data_image0
_chemical_formula_structural       H2SCHCSCSFeS2FeSFeS2HFe2S2FeSFeS2FeS2FeS2FeSFeS3FeS2HSHSFeS2FeCSCFeS3CHSHC6H4CHC6H5C6H4CH2CH3C6H4C6H2CHCSHCHC6H5C12H4CHSC2HCPC7HC2H5CHC8PC16H6CH11C6PC16H2CH3CH8CH2CH3PCHC2HC3H5CH3C3H10C2HC3SH3C4PC12H13C2HC2H2C2H2CH2C3H2CHCHC4HC2HC2HCHCHCHCPH3CH5FeH2C3H3C3SH3CH2C4SH2SC4HCHPC18HCHSH16C6PC18H20PH2C11SC3SC2H2C2HCFeSH3C2FeCHC4H3C2SHC3H2C2H4C2FeHCH3CHC3H3CH2C2HC7HCH2C2HC3FeCSHCHC2HCHCHCFeH2C2HC3H4CHSCH7CHCHC3H2C2HC3FeHCHSCFeS2FeS2FeSFeS4H4CFeSCHCHSCFeSFeS2FeS2FeS2FeSFeS3FeC4PSC6H4C6H4C6H4SH5CH4C7H4C6H4C6H4C6H5C6PHC3H2C5HC6H5CH4C2H8CHFeHC7HFeCFeC2HPC2HC2H3C2HC2H2C2H2C3HCHC2HC5HC2HC4HCSC3H2CPHCH4CH2CHCH5CHC2HCH2C2H2SHCHC2SHC7HC2P2HCHC3HCHC3SHC7H4C2H2C2H3CH4PHCHC5HC2HCH2CHC3HC2HC2HCH3C3HFeH3CH3CPH2CHCHCHC3PC4HC10HC2H2C2H10C3HC2SHSH3C4HC3H3CHC4H2C7HC7HPHCH6C2HSHC7PFeHSH2CFeC3HC2HC2HC2SH6C2H5CFeS2FeS2CPSCH2CH2SHSHFeS2HCHCHSFeS2Fe2SFeS2Fe2SFeS2FeCS2HCH2C2SC4H3C2H2C6HC6H4FeC9H2C2H3C6H2CH5C6H6C2H2C5H5C4HC4PHCHCH2CH3CPC2HC6PC2HCHC2H5C3H9C3H3C2H4C2HC2HC6HC3HSC2HCPC2H4C10SC2H2CHC2SCH3C3HC3H2C3H3SC2HC2H2C3SHCHC2PSH2CHCSC4H2CHCH2C2HC2HC2H3CH2CHC6HCHC2H2CSH2CH2C2H2C3HC3PH2C2H5CHC8HCHCPHCHC5HCHC2H2C4H2CHCH3CHC3HC3H4C6PC15H16CH2CSHC2PCHC4H2CFeHPC11HCHC4H5SHC3H5PC3H2CHC2SCHCHC2HSC2H3C2H4C3HCSC2HCHCFeHC3H2CFeHCH3C2HC3HC3H2CFeCFeH3CHCH2C2HC2HC2H3C5H11C3SHC3FeS2FeS2FeSFeS3FeS2FeHSHFeS3FeS2FeS2FeSCFeSFeS3FeS2FeSFeSFeS4HC2H4CSC6HC2HC2H3C8H4C2HCSC11H3C7H4C6H4C6H4C6H4C3HCH2FeC8H4C2H6CH2CSC2H2CH2C6H2CHCH2C6PC11H10C2PC15HPCH7CSH5CHC6PC18H7CH12CSHCHCHCH4C3HCHC5HC2HCHC2HCSHPHC2HCHFeC4H4C4H2C2PCH3C2HCHC2HC2H4SC3HC2HC6PC14HCHCH17CH6CHC3HCH2CHCHSHCHCH2C5H2C3H2CHC2HCHCPHC6HC2H2C6HC2HCH6CH5SC3FeC2HCHCH7C3SH2CH2CHC2FeHC4HC3H2CFePCH2CHCSH3C2SC3HC2HC2SCHCH5FeC2HSH4C3HFePHC2HC3H3CFeC2HCHCHCHCH4C2SC3H2CFeH2C2H2CSC2HCFeHC2FeHSH2SCFeCH2CSC4HSH2SFeS2FeS2FeHFeS3HFeS2HFeSFeS2C4SC2HCH3C6SC3HC6H7CSC2SHCFeC3HCHCHC3H3C2H3SHCHCHC7H3C6H2CH3C2Fe2CSC2H2CHCHC2H4CHCHC4H3C4HCFeH4C2HCH4CSFeCHC2HC2H2SC4HCH2C2H4CH2CHC2HCHC3H4CH3C3HCHC4HCPC6HFeCH4C6PC3S2C10H2CH8CH8C2HC4H2C2HC2H3C3HFeHC3FeC4PC2H2C2HCHCPH2CPC7PC3HC5H3C3HC2H5C2H2CH3CH6C2H3C2SHCHCSC2HC3H3C2HCSC2H6C4H2C2HC3PC2H2CPH2CH2CHC4HC7FeCHCHC4HCHCHC2HCHCHPSCH5CHC2H2C2SCSHCSH2SHC2FeSCHSHFeSFeHSFeS2H2FeS2HCFeSHSHC3HC3HFeS2FeSCFeSFeS3C2H2CHCH3CH2FeHCHC6H6CHCH2CSHCHC3H2FeHCHCHCH2C2H2C2FeH3C6H3CHCHCSHCH2CHCHCHCHC2H2CSHC13SC2H4CH7C2H5CPHCHFeSHC2H3C2PHC3HC2HC4HCHSCSHCH4C4HC4HCHSC2HC2HCHC2HC3HCH3CHC5H2CHC2H3CHC2H2C7HCH2C2HC3FePC19H2CH5C2H6C2H2SCHPC2PH2SCPHCHC3HCFeC7H5C2H9C3HCHC3H3C10HC5HC2HC2HC5H2C3H2CHCHCH2CHC2HC3SC2SCPH2CH2C2SHCHCHC4HC4H3CHCHSCH4PSH4C6SH2SFeS2FeS2FeCFeS3FeSFeS2FeSFeS3FeSC2SFeS2FeS2FeSFeS3FeCSFeS2FeSFeS2HSCHSC3HCH2FeC10H4CH2CHC6H5C2H3C6H4C7H3C6H4C6H4C6H8CHC6H4CH2C3PC18FeCH4C2H10CHC5H2CHFeHCHC4H3CH2C3H2C2H2C2HCHCFeH2CHC2HC2HSHCH2C8PC14HCHCH16CH3CH3PCHC2HCHCHCPH2CHC6PC9HC8H24CSHC2HC11H2C8H6CSH2CHCH2C7H2C3PCHCH2C4H3SH6C2H3CH5C2HCH3C2SPH3CHCH5C2HCH3CH2C2HC8PC16HCH3CSCH2CSCH2C2HPSFeH2C4HCH2C2H4C3SHC2H2C3FeSFeHSHCS3FeSCSCSHFeSFeSFeCSC2SCHCHSFeSFeSHFeCFeS2CH3FeSHFeSCFeHFeS2H2C3H2SC7H5CHCHCPC2HC3H2C2HFeHCH2C2HCSHC2HC2H3C7H5CHC2H2C6H5C3HCH4SC2HCH4CHCHCHCS2H2CH9C2HFeC10H5CHCH2C3H4PC4HC3HCH3CH2CHC3H2CFeC5HCH3CH3C2H3CHC2H2CH2CH2CHCH3CHPC6HC11HCH6CH3CH8C2HC2HC2HC3HC2HC3PHC6H2CH2C6HC2H8C2HCHC2HSC6PC19H17C4HC3HC2SCPCH2C2H2CHCHCHC3PHC2HSC3SCHC3HCH2C3HCH2C2H4C2SHCHCHCHC3HC3H4SH3FeHC2HCSCHC8H2C6HC2HCSHCH3C12HSFeC4HCHSCH2CH2CH2CHCH2C2H4C3HSHCHC2H2CH2C3H4C3HCH3CHC2H2FeH2C3PHSHFeS2FeS2FeSFeS4HCHFeSC4FeS2FeS2FeS2FeSFeS3FeSHC6H4C6H4C6H4C5HC8H4C6H4C6H5C6H3C6PC5HC12H6C2H12CH3C2H2C11H4CH2CFeHC7H3CSC2H2C6FeHCH2CSC4PHFeHCHCH2CH2C7H2CH2CHC3H3C7H3CH2CH2C2SHSH2C2H4C2HC3H3CH2C2H6PC2H3CHC3HSC6H3C3H6C2H6C11H3CHC3PH6CH3CHSPC2HC2H3C2PCHCH3CPSH3CHCHC4HCHC2H4CHCH3CH3CH2CHC2HCSHC4HC2FeHCH2C9PC18H2CH11P2H2C4HC2HC2SH2C2SHCH2C2H2C2HC5SFeSCSCHSHPC3HFeS2FeS2Fe2S3FeSCFeS2FeSFeS3HSCHFeS2FeSFeSCH2SFe2S2FeS2FeS2CFeS3C6H4C6H4C6H4C6HCH2C6H4C6H5C3HCHC4H6C2HC7H4FeH3C3HCH5C2HCH2SH2FeHC3H3C3HC2FeHCHCH4CHCH2C2HC7H2CHC6PC14HC3H2SH9CH2C2H2CH3CPHC2HCHCH2CH2C4PHSHSH3C3HC2SH2C4H3C8PC18H12FeCH8CH2CH2C5H3C3HCH2CHC2H2C2HC2H2CHC2H3CHC6PC6HC11H6C2H3SH9CHCSHCH5CHCHC2HC5HCHCH2C5H3CH2C2HCHCHCHC4HCH2FeCFeCPCH2C2HCH2SC3H6C2H4C6PC13HCH5CH4CH2C2H2C6PC8HC2SHC2H4C2HC2H5C2HC2H3C2HC2HCHSC2HCHCHC2H2CH3CHSH2CH3PCHC2H2SC3HCFeHSFeSCHS2FeS2HCSFeS2FeSFeS2HFeCFeS2FeSHSCFeS2FeS2Fe2S3HCSHCFeS2PCFeSFeS4HCFeSFeSH2C6HCHC6H4C6H7C6H4C6SH4C2HCSC6H6C9H5SHC4H2C3H5C2HSCHCH2C2H2C10PC18H12C2H6CHCH5CFeCHC2H3C2HFeH2CHFe2H3C2HC5HC3HCH5CPHC3PCHC4H2CHC2HCH2C7H6C6PC18H20C6PC18H12CH7C6PC18H12CH4CH2C6PC4HC3HSCH7FeCHCHC2H4C9H2C2HC2HCHCHC3H3C2HCH3C6HCPC4HCHCHCH3PCH7CSHC2HC2H2C2HCHCSC2HCH2CH3SHCHC3H3C5HCHSHCHCSC2HFeCHCHC3HCHCSCH2CH5CS2HC3HCHC2FeH2CHC3HSHC2H2CSHC7HFeS2FeS2FeSFeS4H2SFeS2C2SCSFeS2FeS2FeSFeS3H2CFeSHC8H2C6H4C6H6FeH2CPCH3C6H4C6H4C6H3CHC7H3C2HCHCHC6HC5HC2HC5HCHC2HC3HCFeC3H4C3H2C2H4C2HPCHC4H2CH6C4H3CH2CHC6HCHCSC3H2CH3C2H4C5HC4HC6H8C3H2C4FeC4HC3PC3HC2H2C2HCHPH8CH3CHC3H2CHCHCHCH2CH2C7HPC13HC6H2CHC2SH6C4H6CHC6PC8HCHC3HPC2H10CHCH3CH3C6PC18H19CHCHCHCH2CPHCHCH5CHC2H5CHC2H2FeH6CPHCH5SCSCSCFeSFeSHSH2C2SH2FeSH2SHFeSHFeSCHSHCHSFeSCFeS2Fe3S2CSH2CFeSC2SH2CHC7HC4HCPC6H6C4H2CHC4HC3HCH5C6H4CHCHCSC6H9C4SCSPSH4C3HCHCHCFeHC4H2SCH2SHCHC5FeHPC3H3CHSCH2C8HCHCH9C7PC7H2CHC7H6C3HSC2H9CHCSC2H2C2H2C5H2CH3CHC6SH7CSCHC3HCFeCHC2FeHC6H2CH2SCH2CH2C2H3SH3CH2C3H4CHC4H3PCH4SH3C2H3C4PC15HCH10CHCH2C2HSH3CHCHCHC2HSH3C4H2CHC2HC3HC3H2C4HC3HCH2C3H2C3H2C3HC5H3C2HCHCHCH2C3HCH2C2HC3HCPHCHCHCFeHCHCHFeH2C4FeCSHC8HC3HC2SCSFeSHFeS2FeSFeS3FeSFeS2FeSFeS3H2SHSCFeSCHFeS2FeS2FeSFeS3FeS2FeS2FeSFeS2H3FeCSCHSC7H4C3H3FeC4HCH4C4H2CHC2HC7H4C6H4C6H4C6H4C6H4C2HC3H2C6H5C2HC5PC2HC2HC6HCH4CH8SH6C2HC2PC18H8CHCH2CH3CHSCHC6HCSC2H2CHPH2C3H6CH4CH2C3HCH2SHC3H2C9PC18H21C3H2CHC6H2CH2C4H2CH2C7HFeCHCH2C5HC2H2CH3CHC2HCH2C3H2C3H3CH2CHCHCH3C9H2C2HC6PC13H17C4HCPHC2HCHCHPCSH4CHFeHC2HC3HCHC2H3CHCH2CHC4HC5HC5HCHCH3C4H5CH2C2SH6SCH4CHCSH2SCHCH2CH2SFeCHC2PC4H2CFeSC2SCFeHSC3SFeSFeSC5SCHSHCFeS2FeSHFeSFeS3CHSCHS3C2S2C6HPH2CHCH2C2PCHC3FeH2C2HC4H2CHC3SC2HS2H2CHCH3SCH2CHC3H4C4H5CPC4FeCHCHCH3C3H3C4H2CH2C2HC5H2C2HSHCH2SCH4CFeHFeHC6PC18HSH17CHCPHC3SHC2HCHCH4CSFeHC2HCH6C2H3C3H2C7PC11PHPC3HC4HCH7C2HSC5HC2HCH3CHFeCHC2HCH3C3H4CH2C3H2C2HC3H7CHC6PHCH2CHFeHC6H2CH4C2HC2HCHCSHC2FeSC2H3C2HCH2CHSCHPCHCHC4HCHC2HC2H3C7H2CHCHCH2C3HCH2C3HCHCH2C2SCHCH2SCHC8H2CH3CH3CH2CH2CHC2HCHC2H2CH3FeCSCHFeCS2FeSCFeCSC2SCHC2HC2S2H2CHC2SHCSCFeS2FeS2FeSFeS3C2H2CH2FePHC5H2C7H3CHC3H3C9H4CHCHCH2CHC4H3C3HC6H4C3H5FeH3CFePC2HSCH2C3FeHC2HCHSC2HC7PC2HC8SC2HCHCFeH5CH3C4H4C2HPCHCH2C2H2CH2CH2CH3C2HCH2CHC2HSCHC2HC2H2C3H4PHC2H3CH4CH2C2SC4PH2C2H2C3FeC6H2C2HSH2CHC2SC6HC3H4CH3C2SH5C8PC8PHC3H2CH6CH2C5HCH2CH2CH2C3PC18HC2H5CH11C6PC2HC3HCH2CHCHCHC2H4C2H3CHCHC2HCH2CHCSC2HCHC2HC2SC3FeH2C2H4C3HC3HCH2CH4CSPHCHC2HC3H2C2HCHSH2C2HC2HC6H2SHCHC4FeH2C2FeSCFeS2FeS2FeSFeS3FeS2HSFeSFeS2PSH3FeSCFeSCFeS2FeSFeS3FeS2FeSFeSFeS3HFeS3HC4S2H5C6H4CH2CHCHCHC4HCHCH2C2SC6H4C6HCH2C6H4C6H4C6H4C3H5C6H4C3PH3CHCHC2H2CSC9PC18H2CH17CPC10HC3H9C10PC18HCH18C3HC2PC11HCH7CH3C4H2C3HCHC2SCHC5HCHCSCH6CHCH3C5HC2FeH3C6PC18H12CH11C2SC6PC18H13C2H3C4H2CHFeHC2H3CH2C2HC2HCH3C2H2C2HCH2CH11FeHC2H2C2HFeH3C2H2C2SH4C2HCH2CPCHC3HC3H2SCS2C2SH3CSCSFeSCSH2C2FeS2FeC2HS2CH2FeS2Fe3HS2H2CHCHFeHCHC10H5C2HC2HCH5SCHCH2CHCHCHC3SHC2HCH5C8H2SHCH2C6H5CHC4HC6PHC3PC2HSC9H3PH3C2H2C3H7C2H2C3HC2HCH3C5SC6H2C2SHC2H2C3H2PC2H4SHPC3HCHC8HC4HCH2C2SH8SH4FeCHCHCHC2HC2HC2SFeCHC7HC3HSH2C4H8PC3HC2H2CH3CHSHC3HCH2CSCHCH2CHCSCFeH3C4H2C5PC7HCHCHCHC3HCSH2CH5C2H3CH2C8PC4SFeSHC3H3CH8CHCHCHCH2CHCHC3H2C2H2CH2CHCHC2HC2HC2HC2HCSCHC2HC3H2CH4CH2CPFeCHSCHC2H2CHC5HCSCFeCHCHC2HCHCHCHCHC3HC2HC3H3PHCHC2HC2HC2FeSCHCSHCPCFeCHC3HCHCPCH3CSFeS2FeS2FeSFeS4FeSFeCFeS2HCH3FeSFeS2FeS2FeSFeS3H4FeSHC6H4C6H4C6H4C4HC2HC9H4C6H4C6H4C7H4CH2C5H2PCHC3SC6H2C2H2CFeH3CH3C2HCHCH2CH3C2H2C4SHCH2C2H2C4HCH5C2H3CSCHC2HC2HC2HCH2C3SC4H3CH2CHPH2C3HC10PC18HCH18C5HCH2C2H2PH2C3H2C4SH3FeHSCHC4H2CH2CHPC12H9C4PC3H2CFeC7H5CH10PC2H2CHC2H2C4HC3HC3HC2HC4SH4C3PH3C6PCH2C2H2C2HCHC3H2CH5C4HC5HSH3C4HC4H2C2HCHCH2C2SH2C2HC3SFeC2HFeC3FeSHFeHSCHSCFeS2FeS2FeSFeS4CSCFeSH2CFeS2FeSFeS3CH2FeS2FeS2FeC3FeSCSC6H4C4HCH4C6H4C6H4C6H4C6H5CH4C3HC3HCH2C6H5C2HCH4SCS3H2CHCH2SCSCH2C4HC2SH2C2PHCH7C3HCH2C6PC18H20C3S2C3HC2HC2FeC2H2PSHC2FeHC3H4C2H5SC2HSC4PC18H10SH9SC5PCHC4HC7H2C3H4C2H4CHCH6C6PCHCHCHC9H2SCHCHCHCHCH5FeHC5H2C6PC18H12CH7C8PC18H20CHFeC2H2C2HSC2HCH2CH5C2HC2PC2HC2HC2HCHC2HCSH5CH2CSH2CH5CHCH2C3HC2HC2HC2SC3H2FeHCHCH6CH2CH3C2H3CHSCHPFeH2C
_chemical_formula_sum              "H4608 S768 C5760 Fe384 P192"
_cell_length_a       65.3085
_cell_length_b       64.7966
_cell_length_c       83.1045
_cell_angle_alpha    80.5856
_cell_angle_beta     80.5264
_cell_angle_gamma    80.0342

_space_group_name_H-M_alt    "P 1"
_space_group_IT_number       1

loop_
  _space_group_symop_operation_xyz
  'x, y, z'

loop_
  _atom_site_type_symbol
  _atom_site_label
  _atom_site_symmetry_multiplicity
  _atom_site_fract_x
  _atom_site_fract_y
  _atom_site_fract_z
  _atom_site_occupancy
  H   H1        1.0  0.04316  0.08275  0.12803  1.0000
  H   H2        1.0  0.29515  0.43264  0.01350  1.0000
  S   S1        1.0  0.47054  0.25273  0.11722  1.0000
  C   C1        1.0  0.17745  0.46787  0.02925  1.0000
  H   H3        1.0  0.49369  0.31709  0.99293  1.0000
  C   C2        1.0  0.01285  0.10750  0.04478  1.0000
  S   S2        1.0  0.22268  0.03965  0.10976  1.0000
  C   C3        1.0  0.41536  0.47351  0.99965  1.0000
  S   S3        1.0  0.19829  0.00337  0.08731  1.0000
  Fe  Fe1       1.0  0.18146  0.13264  0.16288  1.0000
  S   S4        1.0  0.18201  0.16240  0.14460  1.0000
  S   S5        1.0  0.17203  0.10179  0.15913  1.0000
  Fe  Fe2       1.0  0.21008  0.16689  0.15554  1.0000
  S   S6        1.0  0.24136  0.17478  0.14200  1.0000
  Fe  Fe3       1.0  0.16310  0.17860  0.16541  1.0000
  S   S7        1.0  0.13551  0.20460  0.16157  1.0000
  S   S8        1.0  0.21113  0.13565  0.17190  1.0000
  H   H4        1.0  0.21651  0.25752  0.17043  1.0000
  Fe  Fe4       1.0  0.24805  0.46007  0.09304  1.0000
  Fe  Fe5       1.0  0.23094  0.42595  0.11817  1.0000
  S   S9        1.0  0.20263  0.44814  0.12714  1.0000
  S   S10       1.0  0.23414  0.39071  0.12639  1.0000
  Fe  Fe6       1.0  0.20083  0.45996  0.10047  1.0000
  S   S11       1.0  0.16859  0.46678  0.09213  1.0000
  Fe  Fe7       1.0  0.22471  0.47165  0.12603  1.0000
  S   S12       1.0  0.22763  0.43619  0.09151  1.0000
  S   S13       1.0  0.25326  0.44817  0.11930  1.0000
  Fe  Fe8       1.0  0.06169  0.40875  0.03540  1.0000
  S   S14       1.0  0.03849  0.40484  0.05849  1.0000
  S   S15       1.0  0.04707  0.41587  0.01177  1.0000
  Fe  Fe9       1.0  0.09776  0.40839  0.05455  1.0000
  S   S16       1.0  0.07714  0.40483  0.07886  1.0000
  S   S17       1.0  0.13307  0.40693  0.05320  1.0000
  Fe  Fe10      1.0  0.06379  0.38076  0.06872  1.0000
  S   S18       1.0  0.05737  0.35224  0.08764  1.0000
  Fe  Fe11      1.0  0.05343  0.42918  0.06676  1.0000
  S   S19       1.0  0.03288  0.45296  0.08198  1.0000
  S   S20       1.0  0.08605  0.38249  0.04496  1.0000
  S   S21       1.0  0.07514  0.43485  0.04307  1.0000
  Fe  Fe12      1.0  0.03546  0.20379  0.11973  1.0000
  S   S22       1.0  0.03659  0.20732  0.09237  1.0000
  S   S23       1.0  0.06169  0.18058  0.13032  1.0000
  H   H5        1.0  0.21369  0.00625  0.99839  1.0000
  S   S24       1.0  0.03588  0.26578  0.07316  1.0000
  H   H6        1.0  0.40498  0.04681  0.01197  1.0000
  S   S25       1.0  0.02522  0.23852  0.12086  1.0000
  Fe  Fe13      1.0  0.34795  0.26584  0.13452  1.0000
  S   S26       1.0  0.32880  0.24475  0.15322  1.0000
  S   S27       1.0  0.37333  0.25542  0.11402  1.0000
  Fe  Fe14      1.0  0.32366  0.30588  0.14649  1.0000
  C   C4        1.0  0.48329  0.17494  0.03276  1.0000
  S   S28       1.0  0.32300  0.34115  0.14085  1.0000
  C   C5        1.0  0.21667  0.30493  0.13588  1.0000
  Fe  Fe15      1.0  0.30063  0.26852  0.14746  1.0000
  S   S29       1.0  0.26770  0.26377  0.14488  1.0000
  S   S30       1.0  0.35347  0.28540  0.15278  1.0000
  S   S31       1.0  0.31931  0.28759  0.12702  1.0000
  C   C6        1.0  0.29868  0.46917  0.04440  1.0000
  H   H7        1.0  0.18725  0.37745  0.00662  1.0000
  S   S32       1.0  0.34783  0.48939  0.99050  1.0000
  H   H8        1.0  0.00795  0.15550  0.11148  1.0000
  C   C7        1.0  0.05241  0.32803  0.08316  1.0000
  C   C8        1.0  0.05230  0.32449  0.06703  1.0000
  C   C9        1.0  0.04737  0.30524  0.06412  1.0000
  C   C10       1.0  0.04240  0.28951  0.07730  1.0000
  C   C11       1.0  0.04285  0.29295  0.09338  1.0000
  C   C12       1.0  0.04815  0.31202  0.09626  1.0000
  H   H9        1.0  0.05593  0.33658  0.05682  1.0000
  H   H10       1.0  0.04718  0.30260  0.05163  1.0000
  H   H11       1.0  0.03915  0.28092  0.10360  1.0000
  H   H12       1.0  0.04883  0.31443  0.10871  1.0000
  C   C13       1.0  0.02412  0.47923  0.07355  1.0000
  H   H13       1.0  0.03934  0.47643  0.04882  1.0000
  C   C14       1.0  0.25915  0.37735  0.12993  1.0000
  C   C15       1.0  0.26315  0.35527  0.13075  1.0000
  C   C16       1.0  0.28283  0.34409  0.13389  1.0000
  C   C17       1.0  0.29855  0.35496  0.13628  1.0000
  C   C18       1.0  0.29469  0.37707  0.13517  1.0000
  C   C19       1.0  0.27502  0.38826  0.13200  1.0000
  H   H14       1.0  0.25100  0.34681  0.12892  1.0000
  H   H15       1.0  0.28581  0.32705  0.13456  1.0000
  H   H16       1.0  0.30677  0.38551  0.13711  1.0000
  H   H17       1.0  0.27207  0.40526  0.13141  1.0000
  H   H18       1.0  0.09965  0.02270  0.09228  1.0000
  C   C20       1.0  0.14256  0.42304  0.06474  1.0000
  C   C21       1.0  0.16373  0.41888  0.06726  1.0000
  C   C22       1.0  0.17191  0.43191  0.07584  1.0000
  C   C23       1.0  0.15894  0.44929  0.08193  1.0000
  C   C24       1.0  0.13772  0.45329  0.07957  1.0000
  C   C25       1.0  0.12952  0.44016  0.07111  1.0000
  H   H19       1.0  0.17386  0.40553  0.06256  1.0000
  H   H20       1.0  0.18824  0.42867  0.07760  1.0000
  H   H21       1.0  0.12757  0.46668  0.08426  1.0000
  H   H22       1.0  0.11317  0.44351  0.06931  1.0000
  C   C26       1.0  0.10482  0.43265  0.99132  1.0000
  H   H23       1.0  0.12629  0.02753  0.16570  1.0000
  H   H24       1.0  0.45406  0.28674  0.08560  1.0000
  C   C27       1.0  0.14572  0.33578  0.11108  1.0000
  H   H25       1.0  0.43698  0.20274  0.11132  1.0000
  H   H26       1.0  0.08136  0.38218  0.00288  1.0000
  H   H27       1.0  0.48091  0.33016  0.04531  1.0000
  C   C28       1.0  0.11532  0.19821  0.15232  1.0000
  C   C29       1.0  0.09814  0.21371  0.14874  1.0000
  C   C30       1.0  0.08163  0.20867  0.14181  1.0000
  C   C31       1.0  0.08221  0.18809  0.13849  1.0000
  C   C32       1.0  0.09949  0.17275  0.14191  1.0000
  C   C33       1.0  0.11604  0.17777  0.14869  1.0000
  H   H28       1.0  0.09747  0.22956  0.15153  1.0000
  H   H29       1.0  0.06829  0.22055  0.13934  1.0000
  H   H30       1.0  0.09996  0.15683  0.13946  1.0000
  H   H31       1.0  0.12918  0.16571  0.15138  1.0000
  C   C34       1.0  0.24830  0.19915  0.14437  1.0000
  C   C35       1.0  0.26925  0.20049  0.14552  1.0000
  C   C36       1.0  0.27537  0.22012  0.14617  1.0000
  C   C37       1.0  0.26066  0.23858  0.14517  1.0000
  C   C38       1.0  0.23975  0.23719  0.14399  1.0000
  C   C39       1.0  0.23349  0.21753  0.14391  1.0000
  H   H32       1.0  0.28076  0.18631  0.14585  1.0000
  H   H33       1.0  0.29150  0.22105  0.14710  1.0000
  C   C40       1.0  0.27952  0.42733  0.03841  1.0000
  H   H34       1.0  0.21741  0.21667  0.14276  1.0000
  C   C41       1.0  0.32921  0.00512  0.08428  1.0000
  S   S33       1.0  0.48777  0.35127  0.01221  1.0000
  H   H35       1.0  0.49348  0.32746  0.09672  1.0000
  C   C42       1.0  0.22200  0.46831  0.99693  1.0000
  H   H36       1.0  0.25992  0.42457  0.06185  1.0000
  C   C43       1.0  0.20853  0.05655  0.12374  1.0000
  C   C44       1.0  0.21623  0.07510  0.12497  1.0000
  C   C45       1.0  0.20536  0.08902  0.13593  1.0000
  C   C46       1.0  0.18656  0.08459  0.14554  1.0000
  C   C47       1.0  0.17885  0.06605  0.14427  1.0000
  C   C48       1.0  0.18986  0.05199  0.13350  1.0000
  H   H37       1.0  0.23071  0.07866  0.11748  1.0000
  H   H38       1.0  0.21146  0.10320  0.13690  1.0000
  H   H39       1.0  0.16430  0.06254  0.15168  1.0000
  H   H40       1.0  0.18387  0.03771  0.13267  1.0000
  H   H41       1.0  0.14693  0.39870  0.10221  1.0000
  C   C49       1.0  0.40179  0.31506  0.08196  1.0000
  C   C50       1.0  0.20854  0.42743  0.01336  1.0000
  C   C51       1.0  0.14137  0.02503  0.17008  1.0000
  C   C52       1.0  0.22580  0.00994  0.17051  1.0000
  C   C53       1.0  0.49098  0.28390  0.99761  1.0000
  C   C54       1.0  0.21247  0.32776  0.11009  1.0000
  C   C55       1.0  0.44356  0.25421  0.11581  1.0000
  C   C56       1.0  0.42850  0.26092  0.12875  1.0000
  C   C57       1.0  0.40695  0.26167  0.12825  1.0000
  C   C58       1.0  0.40023  0.25562  0.11482  1.0000
  C   C59       1.0  0.41527  0.24937  0.10171  1.0000
  C   C60       1.0  0.43684  0.24878  0.10213  1.0000
  H   H42       1.0  0.43354  0.26526  0.13935  1.0000
  H   H43       1.0  0.39558  0.26660  0.13840  1.0000
  H   H44       1.0  0.41023  0.24464  0.09129  1.0000
  H   H45       1.0  0.44826  0.24388  0.09197  1.0000
  C   C61       1.0  0.41480  0.37420  0.02633  1.0000
  H   H46       1.0  0.19643  0.49633  0.06041  1.0000
  S   S34       1.0  0.27830  0.46115  0.07557  1.0000
  C   C62       1.0  0.42233  0.19836  0.14375  1.0000
  C   C63       1.0  0.27952  0.47240  0.05479  1.0000
  H   H47       1.0  0.24587  0.48285  0.00421  1.0000
  C   C64       1.0  0.41191  0.18991  0.10395  1.0000
  P   P1        1.0  0.42473  0.31625  0.06648  1.0000
  C   C65       1.0  0.43130  0.29141  0.05812  1.0000
  C   C66       1.0  0.41697  0.27687  0.06095  1.0000
  C   C67       1.0  0.42270  0.25719  0.05531  1.0000
  C   C68       1.0  0.44273  0.25184  0.04680  1.0000
  C   C69       1.0  0.45705  0.26616  0.04389  1.0000
  C   C70       1.0  0.45145  0.28580  0.04959  1.0000
  C   C71       1.0  0.44668  0.31989  0.07585  1.0000
  H   H48       1.0  0.00240  0.06745  0.07532  1.0000
  C   C72       1.0  0.37737  0.01313  0.03139  1.0000
  C   C73       1.0  0.38164  0.31829  0.07723  1.0000
  H   H49       1.0  0.40157  0.28026  0.06792  1.0000
  H   H50       1.0  0.41177  0.24586  0.05791  1.0000
  H   H51       1.0  0.44737  0.23639  0.04277  1.0000
  H   H52       1.0  0.37972  0.32101  0.06432  1.0000
  H   H53       1.0  0.08720  0.11133  0.18539  1.0000
  C   C74       1.0  0.01999  0.09223  0.07731  1.0000
  H   H54       1.0  0.18798  0.42508  0.03663  1.0000
  C   C75       1.0  0.02458  0.11789  0.05264  1.0000
  C   C76       1.0  0.43095  0.19806  0.10135  1.0000
  C   C77       1.0  0.08984  0.22906  0.06831  1.0000
  C   C78       1.0  0.08755  0.20900  0.07691  1.0000
  C   C79       1.0  0.09470  0.20275  0.09217  1.0000
  C   C80       1.0  0.10437  0.21647  0.09873  1.0000
  C   C81       1.0  0.10695  0.23658  0.09008  1.0000
  C   C82       1.0  0.09962  0.24279  0.07479  1.0000
  P   P2        1.0  0.11912  0.25393  0.09921  1.0000
  C   C83       1.0  0.12352  0.27799  0.08552  1.0000
  C   C84       1.0  0.10170  0.26281  0.11677  1.0000
  C   C85       1.0  0.10891  0.27416  0.12715  1.0000
  C   C86       1.0  0.09528  0.28199  0.14035  1.0000
  C   C87       1.0  0.08047  0.26006  0.11940  1.0000
  C   C88       1.0  0.14374  0.28365  0.08104  1.0000
  C   C89       1.0  0.14671  0.30263  0.07081  1.0000
  C   C90       1.0  0.12955  0.31619  0.06510  1.0000
  C   C91       1.0  0.10936  0.31098  0.06985  1.0000
  C   C92       1.0  0.10629  0.29211  0.08017  1.0000
  C   C93       1.0  0.14363  0.23847  0.10433  1.0000
  C   C94       1.0  0.15876  0.23099  0.09167  1.0000
  C   C95       1.0  0.17774  0.21879  0.09531  1.0000
  C   C96       1.0  0.18166  0.21371  0.11163  1.0000
  C   C97       1.0  0.16648  0.22060  0.12430  1.0000
  C   C98       1.0  0.14743  0.23272  0.12073  1.0000
  H   H55       1.0  0.08356  0.23421  0.05677  1.0000
  H   H56       1.0  0.07969  0.19853  0.07197  1.0000
  H   H57       1.0  0.09220  0.18751  0.09914  1.0000
  H   H58       1.0  0.10958  0.21149  0.11069  1.0000
  H   H59       1.0  0.10113  0.25818  0.06783  1.0000
  H   H60       1.0  0.12509  0.27693  0.12504  1.0000
  C   C99       1.0  0.15746  0.05884  0.09789  1.0000
  H   H61       1.0  0.07426  0.25195  0.11131  1.0000
  H   H62       1.0  0.15724  0.27371  0.08558  1.0000
  H   H63       1.0  0.16230  0.30696  0.06744  1.0000
  H   H64       1.0  0.13179  0.33100  0.05730  1.0000
  H   H65       1.0  0.09601  0.32178  0.06576  1.0000
  H   H66       1.0  0.09044  0.28853  0.08396  1.0000
  H   H67       1.0  0.15584  0.23468  0.07897  1.0000
  H   H68       1.0  0.18943  0.21325  0.08549  1.0000
  H   H69       1.0  0.19636  0.20426  0.11453  1.0000
  H   H70       1.0  0.16937  0.21626  0.13699  1.0000
  H   H71       1.0  0.13569  0.23713  0.13087  1.0000
  C   C100      1.0  0.14914  0.16319  0.10603  1.0000
  C   C101      1.0  0.17031  0.15548  0.10695  1.0000
  C   C102      1.0  0.17676  0.13379  0.11097  1.0000
  C   C103      1.0  0.16209  0.11976  0.11393  1.0000
  C   C104      1.0  0.14086  0.12729  0.11259  1.0000
  C   C105      1.0  0.13446  0.14918  0.10887  1.0000
  P   P3        1.0  0.12155  0.10945  0.11793  1.0000
  C   C106      1.0  0.10099  0.11913  0.10519  1.0000
  C   C107      1.0  0.13328  0.08279  0.11444  1.0000
  C   C108      1.0  0.12746  0.06519  0.12548  1.0000
  C   C109      1.0  0.45909  0.02362  0.02742  1.0000
  C   C110      1.0  0.14838  0.07940  0.10061  1.0000
  C   C111      1.0  0.08449  0.13481  0.11009  1.0000
  C   C112      1.0  0.06956  0.14385  0.09971  1.0000
  C   C113      1.0  0.07070  0.13707  0.08446  1.0000
  C   C114      1.0  0.08679  0.12114  0.07958  1.0000
  C   C115      1.0  0.10198  0.11227  0.08985  1.0000
  C   C116      1.0  0.11074  0.10981  0.13936  1.0000
  C   C117      1.0  0.09140  0.10282  0.14550  1.0000
  C   C118      1.0  0.08295  0.10330  0.16208  1.0000
  C   C119      1.0  0.09375  0.11078  0.17259  1.0000
  C   C120      1.0  0.11302  0.11769  0.16656  1.0000
  C   C121      1.0  0.12147  0.11724  0.15002  1.0000
  H   H72       1.0  0.14402  0.18009  0.10352  1.0000
  H   H73       1.0  0.18163  0.16636  0.10509  1.0000
  C   C122      1.0  0.12629  0.33146  0.10858  1.0000
  H   H74       1.0  0.16729  0.10314  0.11769  1.0000
  H   H75       1.0  0.11809  0.15560  0.10858  1.0000
  H   H76       1.0  0.11620  0.06717  0.13639  1.0000
  C   C123      1.0  0.03644  0.11481  0.13328  1.0000
  H   H77       1.0  0.15330  0.09267  0.09200  1.0000
  H   H78       1.0  0.08341  0.14056  0.12176  1.0000
  H   H79       1.0  0.05721  0.15636  0.10346  1.0000
  H   H80       1.0  0.05918  0.14440  0.07641  1.0000
  H   H81       1.0  0.08768  0.11591  0.06772  1.0000
  H   H82       1.0  0.11457  0.10036  0.08564  1.0000
  H   H83       1.0  0.08291  0.09704  0.13745  1.0000
  H   H84       1.0  0.06800  0.09799  0.16680  1.0000
  C   C124      1.0  0.20880  0.39966  0.99685  1.0000
  H   H85       1.0  0.00972  0.11358  0.03235  1.0000
  H   H86       1.0  0.13625  0.12299  0.14563  1.0000
  C   C125      1.0  0.40161  0.37340  0.04139  1.0000
  H   H87       1.0  0.19305  0.12785  0.11231  1.0000
  H   H88       1.0  0.47352  0.35837  0.08131  1.0000
  H   H89       1.0  0.44133  0.20863  0.15892  1.0000
  P   P4        1.0  0.21794  0.45103  0.01620  1.0000
  C   C126      1.0  0.23937  0.30001  0.17463  1.0000
  H   H90       1.0  0.48361  0.29165  0.09869  1.0000
  C   C127      1.0  0.21647  0.41763  0.99928  1.0000
  C   C128      1.0  0.25330  0.00114  0.14190  1.0000
  H   H91       1.0  0.48904  0.25101  0.99852  1.0000
  C   C129      1.0  0.16283  0.47908  0.04019  1.0000
  C   C130      1.0  0.48870  0.15466  0.02804  1.0000
  C   C131      1.0  0.46917  0.34278  0.08225  1.0000
  H   H92       1.0  0.17183  0.46010  0.02062  1.0000
  H   H93       1.0  0.22714  0.35202  0.15950  1.0000
  H   H94       1.0  0.13192  0.03111  0.13111  1.0000
  H   H95       1.0  0.40015  0.48179  0.00418  1.0000
  H   H96       1.0  0.99868  0.27432  0.13781  1.0000
  C   C132      1.0  0.42475  0.06146  0.99149  1.0000
  H   H97       1.0  0.37038  0.21708  0.14253  1.0000
  H   H98       1.0  0.47279  0.26164  0.03774  1.0000
  H   H99       1.0  0.19407  0.06052  0.17598  1.0000
  C   C133      1.0  0.20581  0.47739  0.04064  1.0000
  C   C134      1.0  0.24105  0.31943  0.16479  1.0000
  C   C135      1.0  0.24663  0.02206  0.14476  1.0000
  H   H100      1.0  0.47102  0.18602  0.02739  1.0000
  H   H101      1.0  0.48061  0.15030  0.01908  1.0000
  H   H102      1.0  0.47365  0.05083  0.02771  1.0000
  H   H103      1.0  0.22674  0.43598  0.05004  1.0000
  H   H104      1.0  0.04424  0.11144  0.14413  1.0000
  H   H105      1.0  0.44430  0.03323  0.02509  1.0000
  H   H106      1.0  0.03049  0.13212  0.04632  1.0000
  H   H107      1.0  0.16940  0.05629  0.08741  1.0000
  H   H108      1.0  0.17398  0.39400  0.03204  1.0000
  H   H109      1.0  0.12904  0.38314  0.00366  1.0000
  C   C136      1.0  0.99775  0.49470  0.00241  1.0000
  C   C137      1.0  0.18645  0.24698  0.17391  1.0000
  H   H110      1.0  0.31226  0.45972  0.04919  1.0000
  C   C138      1.0  0.40924  0.22388  0.16272  1.0000
  C   C139      1.0  0.14407  0.03536  0.18292  1.0000
  C   C140      1.0  0.00446  0.44533  0.03570  1.0000
  S   S35       1.0  0.48668  0.20678  0.04939  1.0000
  H   H111      1.0  0.44624  0.32701  0.03275  1.0000
  H   H112      1.0  0.44426  0.19677  0.06012  1.0000
  H   H113      1.0  0.22842  0.25144  0.14279  1.0000
  C   C141      1.0  0.12470  0.36031  0.08614  1.0000
  C   C142      1.0  0.44657  0.00349  0.99360  1.0000
  C   C143      1.0  0.15475  0.35256  0.10117  1.0000
  C   C144      1.0  0.14412  0.36461  0.08855  1.0000
  P   P5        1.0  0.17848  0.36019  0.10557  1.0000
  C   C145      1.0  0.17114  0.38259  0.11688  1.0000
  C   C146      1.0  0.18227  0.38451  0.12952  1.0000
  C   C147      1.0  0.17739  0.40242  0.13759  1.0000
  C   C148      1.0  0.16149  0.41866  0.13303  1.0000
  C   C149      1.0  0.15049  0.41703  0.12036  1.0000
  C   C150      1.0  0.15528  0.39912  0.11230  1.0000
  C   C151      1.0  0.19491  0.36854  0.08673  1.0000
  C   C152      1.0  0.20909  0.38253  0.08676  1.0000
  C   C153      1.0  0.22203  0.38889  0.07228  1.0000
  C   C154      1.0  0.22091  0.38139  0.05767  1.0000
  C   C155      1.0  0.20712  0.36715  0.05759  1.0000
  C   C156      1.0  0.19428  0.36058  0.07210  1.0000
  H   H114      1.0  0.11647  0.36999  0.07656  1.0000
  H   H115      1.0  0.15057  0.37771  0.08077  1.0000
  H   H116      1.0  0.19531  0.37264  0.13278  1.0000
  H   H117      1.0  0.18657  0.40407  0.14692  1.0000
  H   H118      1.0  0.15815  0.43284  0.13893  1.0000
  H   H119      1.0  0.21019  0.38858  0.09796  1.0000
  H   H120      1.0  0.23287  0.39969  0.07245  1.0000
  H   H121      1.0  0.23079  0.38658  0.04643  1.0000
  H   H122      1.0  0.20634  0.36125  0.04628  1.0000
  H   H123      1.0  0.18385  0.34938  0.07185  1.0000
  H   H124      1.0  0.38942  0.38663  0.04378  1.0000
  H   H125      1.0  0.02112  0.44634  0.03291  1.0000
  H   H126      1.0  0.38759  0.30656  0.12363  1.0000
  C   C157      1.0  0.40609  0.15724  0.13287  1.0000
  C   C158      1.0  0.43515  0.19497  0.07228  1.0000
  H   H127      1.0  0.19759  0.45880  0.98625  1.0000
  C   C159      1.0  0.40909  0.04912  0.99873  1.0000
  C   C160      1.0  0.39696  0.00171  0.02651  1.0000
  H   H128      1.0  0.22235  0.47716  0.04084  1.0000
  H   H129      1.0  0.02043  0.29863  0.14467  1.0000
  C   C161      1.0  0.41986  0.45153  0.00332  1.0000
  C   C162      1.0  0.43934  0.44090  0.99714  1.0000
  H   H130      1.0  0.49541  0.01629  0.99659  1.0000
  H   H131      1.0  0.42962  0.10973  0.12113  1.0000
  C   C163      1.0  0.48048  0.32536  0.09087  1.0000
  H   H132      1.0  0.10453  0.41276  0.01477  1.0000
  H   H133      1.0  0.12151  0.12351  0.17463  1.0000
  C   C164      1.0  0.27115  0.01736  0.99224  1.0000
  C   C165      1.0  0.28017  0.43298  0.02140  1.0000
  C   C166      1.0  0.49489  0.30270  0.98759  1.0000
  H   H134      1.0  0.03358  0.03932  0.08971  1.0000
  H   H135      1.0  0.40741  0.12553  0.16988  1.0000
  C   C167      1.0  0.43080  0.35738  0.02335  1.0000
  H   H136      1.0  0.44268  0.42381  0.99966  1.0000
  C   C168      1.0  0.18594  0.40049  0.02288  1.0000
  H   H137      1.0  0.00743  0.48721  0.09685  1.0000
  C   C169      1.0  0.18064  0.01895  0.18116  1.0000
  C   C170      1.0  0.38927  0.22601  0.15813  1.0000
  C   C171      1.0  0.40438  0.35573  0.05345  1.0000
  C   C172      1.0  0.06687  0.26800  0.13256  1.0000
  H   H138      1.0  0.40806  0.44268  0.01058  1.0000
  C   C173      1.0  0.45817  0.30247  0.08448  1.0000
  C   C174      1.0  0.44247  0.20059  0.08557  1.0000
  H   H139      1.0  0.36247  0.16232  0.14175  1.0000
  C   C175      1.0  0.46148  0.00147  0.02889  1.0000
  C   C176      1.0  0.19342  0.33839  0.11736  1.0000
  H   H140      1.0  0.02064  0.35753  0.05506  1.0000
  C   C177      1.0  0.35642  0.17556  0.13325  1.0000
  H   H141      1.0  0.06607  0.01342  0.08743  1.0000
  C   C178      1.0  0.38590  0.21474  0.14606  1.0000
  H   H142      1.0  0.42531  0.01796  0.05175  1.0000
  C   C179      1.0  0.19116  0.48860  0.05155  1.0000
  H   H143      1.0  0.41820  0.14642  0.10927  1.0000
  C   C180      1.0  0.49244  0.26538  0.99059  1.0000
  P   P6        1.0  0.39771  0.18435  0.12446  1.0000
  H   H144      1.0  0.32435  0.16989  0.14057  1.0000
  H   H145      1.0  0.00560  0.47858  0.00243  1.0000
  H   H146      1.0  0.41907  0.30707  0.10291  1.0000
  C   C181      1.0  0.45417  0.45217  0.98698  1.0000
  H   H147      1.0  0.46311  0.29627  0.04779  1.0000
  H   H148      1.0  0.44154  0.35837  0.01190  1.0000
  H   H149      1.0  0.17180  0.34030  0.14000  1.0000
  H   H150      1.0  0.39036  0.17746  0.09214  1.0000
  H   H151      1.0  0.44371  0.35380  0.06821  1.0000
  Fe  Fe16      1.0  0.02377  0.24145  0.09374  1.0000
  H   H152      1.0  0.03760  0.11823  0.07463  1.0000
  H   H153      1.0  0.48693  0.28372  0.01080  1.0000
  C   C182      1.0  0.45225  0.34010  0.07482  1.0000
  C   C183      1.0  0.47587  0.03372  0.02869  1.0000
  C   C184      1.0  0.40244  0.20084  0.13870  1.0000
  H   H154      1.0  0.45718  0.20688  0.08361  1.0000
  H   H155      1.0  0.32947  0.03367  0.06715  1.0000
  H   H156      1.0  0.40038  0.35529  0.99549  1.0000
  C   C185      1.0  0.36137  0.20582  0.11244  1.0000
  C   C186      1.0  0.33973  0.21015  0.11199  1.0000
  C   C187      1.0  0.32643  0.19713  0.12206  1.0000
  S   S36       1.0  0.00274  0.19544  0.12470  1.0000
  H   H157      1.0  0.37142  0.21623  0.10470  1.0000
  H   H158      1.0  0.33328  0.22387  0.10404  1.0000
  H   H159      1.0  0.30964  0.20061  0.12174  1.0000
  C   C188      1.0  0.26024  0.42836  0.04863  1.0000
  H   H160      1.0  0.09397  0.44543  0.99632  1.0000
  H   H161      1.0  0.43519  0.18728  0.13868  1.0000
  C   C189      1.0  0.38598  0.31015  0.11065  1.0000
  C   C190      1.0  0.36602  0.31408  0.10585  1.0000
  C   C191      1.0  0.42216  0.12125  0.12920  1.0000
  C   C192      1.0  0.49542  0.02185  0.03098  1.0000
  S   S37       1.0  0.46446  0.12278  0.00204  1.0000
  H   H162      1.0  0.18905  0.24122  0.16209  1.0000
  H   H163      1.0  0.34616  0.00174  0.08339  1.0000
  S   S38       1.0  0.22094  0.48528  0.09969  1.0000
  C   C193      1.0  0.41563  0.14215  0.12250  1.0000
  C   C194      1.0  0.39256  0.02848  0.05042  1.0000
  C   C195      1.0  0.01052  0.30396  0.13511  1.0000
  C   C196      1.0  0.15137  0.04147  0.10883  1.0000
  H   H164      1.0  0.22723  0.04285  0.16050  1.0000
  C   C197      1.0  0.29777  0.02718  0.07561  1.0000
  H   H165      1.0  0.28721  0.02047  0.99047  1.0000
  P   P7        1.0  0.28552  0.05052  0.06370  1.0000
  C   C198      1.0  0.26165  0.04437  0.05837  1.0000
  C   C199      1.0  0.27883  0.07195  0.07603  1.0000
  C   C200      1.0  0.28516  0.06968  0.09167  1.0000
  C   C201      1.0  0.27881  0.08587  0.10150  1.0000
  C   C202      1.0  0.26614  0.10443  0.09582  1.0000
  C   C203      1.0  0.25980  0.10684  0.08027  1.0000
  C   C204      1.0  0.26607  0.09066  0.07042  1.0000
  C   C205      1.0  0.24224  0.05028  0.06784  1.0000
  C   C206      1.0  0.22390  0.04444  0.06456  1.0000
  C   C207      1.0  0.22475  0.03238  0.05194  1.0000
  C   C208      1.0  0.24393  0.02637  0.04248  1.0000
  C   C209      1.0  0.26230  0.03232  0.04564  1.0000
  C   C210      1.0  0.30330  0.05713  0.04507  1.0000
  C   C211      1.0  0.30729  0.07799  0.03983  1.0000
  C   C212      1.0  0.32116  0.08273  0.02545  1.0000
  C   C213      1.0  0.33108  0.06675  0.01616  1.0000
  C   C214      1.0  0.32730  0.04598  0.02132  1.0000
  C   C215      1.0  0.31379  0.04114  0.03583  1.0000
  H   H166      1.0  0.45007  0.01759  0.99725  1.0000
  C   C216      1.0  0.01520  0.12365  0.10582  1.0000
  H   H167      1.0  0.37645  0.23676  0.16373  1.0000
  S   S39       1.0  0.49660  0.07803  0.00121  1.0000
  H   H168      1.0  0.26844  0.01687  0.08755  1.0000
  H   H169      1.0  0.29467  0.05534  0.09648  1.0000
  H   H170      1.0  0.28347  0.08392  0.11365  1.0000
  H   H171      1.0  0.26107  0.11686  0.10355  1.0000
  H   H172      1.0  0.24981  0.12115  0.07595  1.0000
  H   H173      1.0  0.26067  0.09255  0.05854  1.0000
  H   H174      1.0  0.24121  0.05873  0.07821  1.0000
  H   H175      1.0  0.20920  0.04852  0.07234  1.0000
  H   H176      1.0  0.21071  0.02699  0.04988  1.0000
  H   H177      1.0  0.24473  0.01618  0.03322  1.0000
  H   H178      1.0  0.27693  0.02667  0.03849  1.0000
  H   H179      1.0  0.29996  0.09065  0.04681  1.0000
  H   H180      1.0  0.32423  0.09882  0.02149  1.0000
  H   H181      1.0  0.34178  0.07039  0.00499  1.0000
  H   H182      1.0  0.33488  0.03354  0.01410  1.0000
  H   H183      1.0  0.31166  0.02481  0.03988  1.0000
  C   C217      1.0  0.31536  0.46420  0.10075  1.0000
  C   C218      1.0  0.31383  0.45982  0.11789  1.0000
  C   C219      1.0  0.32035  0.43932  0.12533  1.0000
  C   C220      1.0  0.32839  0.42321  0.11565  1.0000
  C   C221      1.0  0.33008  0.42748  0.09839  1.0000
  C   C222      1.0  0.32327  0.44811  0.09106  1.0000
  P   P8        1.0  0.33834  0.40617  0.08600  1.0000
  C   C223      1.0  0.34621  0.41649  0.06465  1.0000
  C   C224      1.0  0.36003  0.38866  0.09430  1.0000
  C   C225      1.0  0.38091  0.38976  0.08704  1.0000
  C   C226      1.0  0.39749  0.37648  0.09393  1.0000
  C   C227      1.0  0.39338  0.36217  0.10815  1.0000
  C   C228      1.0  0.37268  0.36102  0.11544  1.0000
  C   C229      1.0  0.35610  0.37402  0.10848  1.0000
  C   C230      1.0  0.33960  0.40871  0.05184  1.0000
  C   C231      1.0  0.34533  0.41711  0.03540  1.0000
  C   C232      1.0  0.35770  0.43328  0.03161  1.0000
  C   C233      1.0  0.36449  0.44100  0.04425  1.0000
  C   C234      1.0  0.35884  0.43262  0.06070  1.0000
  C   C235      1.0  0.31643  0.39201  0.08741  1.0000
  C   C236      1.0  0.29578  0.40271  0.08953  1.0000
  C   C237      1.0  0.27882  0.39173  0.09081  1.0000
  C   C238      1.0  0.28230  0.37001  0.09011  1.0000
  C   C239      1.0  0.30282  0.35925  0.08785  1.0000
  C   C240      1.0  0.31985  0.37023  0.08632  1.0000
  H   H184      1.0  0.30975  0.47991  0.09492  1.0000
  H   H185      1.0  0.30722  0.47219  0.12541  1.0000
  H   H186      1.0  0.31877  0.43578  0.13864  1.0000
  H   H187      1.0  0.33281  0.40743  0.12177  1.0000
  H   H188      1.0  0.32322  0.45175  0.07789  1.0000
  H   H189      1.0  0.38453  0.40082  0.07615  1.0000
  H   H190      1.0  0.41355  0.37740  0.08831  1.0000
  H   H191      1.0  0.40619  0.35192  0.11354  1.0000
  H   H192      1.0  0.36933  0.34994  0.12649  1.0000
  H   H193      1.0  0.34017  0.37269  0.11431  1.0000
  H   H194      1.0  0.32983  0.39635  0.05447  1.0000
  H   H195      1.0  0.34003  0.41129  0.02552  1.0000
  H   H196      1.0  0.36186  0.43994  0.01885  1.0000
  H   H197      1.0  0.37390  0.45371  0.04128  1.0000
  H   H198      1.0  0.36407  0.43893  0.07035  1.0000
  H   H199      1.0  0.29267  0.41943  0.09055  1.0000
  H   H200      1.0  0.26293  0.39993  0.09309  1.0000
  H   H201      1.0  0.26907  0.36145  0.09180  1.0000
  H   H202      1.0  0.30548  0.34231  0.08768  1.0000
  H   H203      1.0  0.33563  0.36165  0.08462  1.0000
  P   P9        1.0  0.02447  0.08237  0.09825  1.0000
  H   H204      1.0  0.06371  0.28488  0.15331  1.0000
  H   H205      1.0  0.26245  0.44419  0.00139  1.0000
  C   C241      1.0  0.19372  0.41832  0.02538  1.0000
  C   C242      1.0  0.24154  0.43519  0.04189  1.0000
  C   C243      1.0  0.02840  0.11010  0.06876  1.0000
  C   C244      1.0  0.31970  0.02308  0.07494  1.0000
  C   C245      1.0  0.02582  0.10318  0.10992  1.0000
  C   C246      1.0  0.04836  0.06353  0.09649  1.0000
  C   C247      1.0  0.06760  0.06899  0.09855  1.0000
  C   C248      1.0  0.08599  0.05426  0.09714  1.0000
  C   C249      1.0  0.08540  0.03416  0.09333  1.0000
  C   C250      1.0  0.06647  0.02889  0.09066  1.0000
  C   C251      1.0  0.04806  0.04357  0.09207  1.0000
  S   S40       1.0  0.19133  0.18557  0.17482  1.0000
  C   C252      1.0  0.01589  0.13970  0.11498  1.0000
  C   C253      1.0  0.02666  0.13537  0.12862  1.0000
  C   C254      1.0  0.28287  0.49021  0.02143  1.0000
  S   S41       1.0  0.21768  0.49012  0.14805  1.0000
  C   C255      1.0  0.26204  0.48466  0.04855  1.0000
  C   C256      1.0  0.02938  0.48675  0.05687  1.0000
  H   H206      1.0  0.38665  0.03026  0.99460  1.0000
  H   H207      1.0  0.36009  0.03600  0.04654  1.0000
  C   C257      1.0  0.03591  0.09870  0.12405  1.0000
  C   C258      1.0  0.05298  0.40064  0.99534  1.0000
  H   H208      1.0  0.35227  0.31394  0.11513  1.0000
  C   C259      1.0  0.47496  0.30523  0.09199  1.0000
  Fe  Fe17      1.0  0.33222  0.26631  0.17106  1.0000
  S   S42       1.0  0.43763  0.07269  0.00424  1.0000
  H   H209      1.0  0.06847  0.08462  0.10113  1.0000
  H   H210      1.0  0.10077  0.05843  0.09890  1.0000
  H   H211      1.0  0.19225  0.31065  0.15610  1.0000
  C   C260      1.0  0.00225  0.07020  0.10884  1.0000
  C   C261      1.0  0.00114  0.02433  0.00039  1.0000
  Fe  Fe18      1.0  0.46460  0.09115  0.99420  1.0000
  C   C262      1.0  0.11076  0.41417  0.00178  1.0000
  H   H212      1.0  0.02731  0.14795  0.13561  1.0000
  C   C263      1.0  0.19777  0.31537  0.14323  1.0000
  C   C264      1.0  0.11567  0.34390  0.09626  1.0000
  C   C265      1.0  0.41998  0.33835  0.05036  1.0000
  C   C266      1.0  0.36384  0.31791  0.08915  1.0000
  H   H213      1.0  0.34833  0.32030  0.08552  1.0000
  H   H214      1.0  0.25132  0.28667  0.17219  1.0000
  H   H215      1.0  0.10099  0.29051  0.14846  1.0000
  C   C267      1.0  0.41919  0.11525  0.14625  1.0000
  C   C268      1.0  0.40474  0.18422  0.09046  1.0000
  S   S43       1.0  0.30278  0.28875  0.16654  1.0000
  H   H216      1.0  0.39449  0.35589  0.06523  1.0000
  C   C269      1.0  0.07096  0.38546  0.99362  1.0000
  C   C270      1.0  0.28543  0.01370  0.08644  1.0000
  C   C271      1.0  0.36989  0.18856  0.12311  1.0000
  H   H217      1.0  0.21860  0.33232  0.09734  1.0000
  H   H218      1.0  0.41289  0.38802  0.01705  1.0000
  C   C272      1.0  0.30032  0.47790  0.02772  1.0000
  C   C273      1.0  0.41626  0.18685  0.07470  1.0000
  H   H219      1.0  0.41071  0.18235  0.06438  1.0000
  H   H220      1.0  0.10041  0.34085  0.09455  1.0000
  H   H221      1.0  0.13870  0.42999  0.11640  1.0000
  H   H222      1.0  0.02271  0.38773  0.11084  1.0000
  C   C274      1.0  0.43339  0.33952  0.03527  1.0000
  C   C275      1.0  0.01004  0.39771  0.10508  1.0000
  Fe  Fe19      1.0  0.00325  0.20127  0.09726  1.0000
  H   H223      1.0  0.05056  0.26567  0.13459  1.0000
  C   C276      1.0  0.22404  0.31116  0.11936  1.0000
  H   H224      1.0  0.11922  0.31872  0.11634  1.0000
  H   H225      1.0  0.15338  0.32612  0.12088  1.0000
  H   H226      1.0  0.23888  0.30316  0.11382  1.0000
  C   C277      1.0  0.33476  0.17982  0.13266  1.0000
  H   H227      1.0  0.41189  0.23306  0.17177  1.0000
  C   C278      1.0  0.07428  0.27886  0.14308  1.0000
  C   C279      1.0  0.18625  0.33212  0.13406  1.0000
  C   C280      1.0  0.40382  0.31053  0.09880  1.0000
  H   H228      1.0  0.15836  0.49737  0.06026  1.0000
  H   H229      1.0  0.00777  0.42256  0.11985  1.0000
  H   H230      1.0  0.22581  0.29216  0.14302  1.0000
  C   C281      1.0  0.19339  0.39122  0.00857  1.0000
  H   H231      1.0  0.39087  0.03892  0.05964  1.0000
  H   H232      1.0  0.24736  0.48743  0.05662  1.0000
  C   C282      1.0  0.00864  0.08161  0.06919  1.0000
  C   C283      1.0  0.37521  0.02679  0.04313  1.0000
  H   H233      1.0  0.25430  0.32072  0.15517  1.0000
  C   C284      1.0  0.01144  0.49287  0.08391  1.0000
  C   C285      1.0  0.13641  0.04465  0.12261  1.0000
  C   C286      1.0  0.23686  0.48217  0.99453  1.0000
  C   C287      1.0  0.41215  0.01679  0.04574  1.0000
  C   C288      1.0  0.26153  0.43985  0.01460  1.0000
  C   C289      1.0  0.00958  0.32464  0.12687  1.0000
  C   C290      1.0  0.19906  0.46623  0.02986  1.0000
  H   H234      1.0  0.42431  0.09906  0.15142  1.0000
  C   C291      1.0  0.24208  0.44155  0.02484  1.0000
  H   H235      1.0  0.31508  0.47519  0.01974  1.0000
  H   H236      1.0  0.29396  0.42278  0.04376  1.0000
  C   C292      1.0  0.99844  0.29019  0.13114  1.0000
  C   C293      1.0  0.40315  0.15107  0.15000  1.0000
  H   H237      1.0  0.01307  0.01053  0.00016  1.0000
  C   C294      1.0  0.40968  0.13015  0.15665  1.0000
  C   C295      1.0  0.15815  0.01146  0.16291  1.0000
  C   C296      1.0  0.23279  0.02649  0.15892  1.0000
  Fe  Fe20      1.0  0.21399  0.00765  0.10838  1.0000
  C   C297      1.0  0.16969  0.48931  0.05140  1.0000
  S   S44       1.0  0.49317  0.25159  0.07071  1.0000
  H   H238      1.0  0.00010  0.49472  0.02798  1.0000
  C   C298      1.0  0.26376  0.49365  0.03189  1.0000
  H   H239      1.0  0.02394  0.00842  0.05396  1.0000
  C   C299      1.0  0.49389  0.18104  0.04413  1.0000
  C   C300      1.0  0.20200  0.25609  0.17869  1.0000
  H   H240      1.0  0.15838  0.02551  0.10674  1.0000
  C   C301      1.0  0.22572  0.33697  0.16725  1.0000
  H   H241      1.0  0.25158  0.03492  0.13569  1.0000
  C   C302      1.0  0.43026  0.48484  0.98968  1.0000
  H   H242      1.0  0.39580  0.16243  0.15824  1.0000
  C   C303      1.0  0.42579  0.21012  0.15548  1.0000
  Fe  Fe21      1.0  0.49521  0.23986  0.09732  1.0000
  H   H243      1.0  0.02045  0.04273  0.12118  1.0000
  H   H244      1.0  0.01896  0.33534  0.12991  1.0000
  C   C304      1.0  0.49572  0.32273  0.03941  1.0000
  C   C305      1.0  0.00397  0.35823  0.05932  1.0000
  H   H245      1.0  0.22852  0.42395  0.99014  1.0000
  C   C306      1.0  0.17770  0.00838  0.16844  1.0000
  C   C307      1.0  0.41464  0.00390  0.03328  1.0000
  C   C308      1.0  0.12460  0.39749  0.99549  1.0000
  H   H246      1.0  0.00618  0.12727  0.09564  1.0000
  H   H247      1.0  0.43072  0.32702  0.99984  1.0000
  H   H248      1.0  0.15612  0.00338  0.15297  1.0000
  H   H249      1.0  0.14617  0.47945  0.04024  1.0000
  C   C309      1.0  0.00299  0.39150  0.09191  1.0000
  H   H250      1.0  0.15579  0.23754  0.18084  1.0000
  S   S45       1.0  0.16065  0.14867  0.18311  1.0000
  C   C310      1.0  0.00513  0.08922  0.05298  1.0000
  H   H251      1.0  0.00824  0.33354  0.07965  1.0000
  H   H252      1.0  0.07776  0.02034  0.98902  1.0000
  H   H253      1.0  0.21479  0.39232  0.98585  1.0000
  H   H254      1.0  0.00180  0.44082  0.01110  1.0000
  H   H255      1.0  0.04025  0.03406  0.98855  1.0000
  H   H256      1.0  0.36390  0.01133  0.02599  1.0000
  H   H257      1.0  0.15466  0.49739  0.11647  1.0000
  C   C311      1.0  0.39869  0.03974  0.98892  1.0000
  H   H258      1.0  0.01043  0.37679  0.08750  1.0000
  C   C312      1.0  0.00156  0.41728  0.11018  1.0000
  H   H259      1.0  0.00312  0.44790  0.06126  1.0000
  C   C313      1.0  0.20856  0.33501  0.17963  1.0000
  C   C314      1.0  0.00493  0.05092  0.11936  1.0000
  C   C315      1.0  0.23401  0.02823  0.00023  1.0000
  H   H260      1.0  0.22126  0.03983  0.00477  1.0000
  H   H261      1.0  0.19664  0.34861  0.18147  1.0000
  C   C316      1.0  0.25469  0.03231  0.99806  1.0000
  C   C317      1.0  0.22980  0.00912  0.99669  1.0000
  H   H262      1.0  0.25801  0.04701  0.00093  1.0000
  C   C318      1.0  0.42834  0.33445  0.98750  1.0000
  C   C319      1.0  0.16771  0.24494  0.18448  1.0000
  C   C320      1.0  0.01302  0.00024  0.06291  1.0000
  Fe  Fe22      1.0  0.49752  0.11060  0.00670  1.0000
  H   H263      1.0  0.40740  0.39707  0.98568  1.0000
  C   C321      1.0  0.28183  0.15600  0.20079  1.0000
  H   H264      1.0  0.26439  0.26215  0.23498  1.0000
  S   S46       1.0  0.03011  0.20913  0.36098  1.0000
  C   C322      1.0  0.47155  0.26659  0.30123  1.0000
  Fe  Fe23      1.0  0.14987  0.20569  0.32911  1.0000
  S   S47       1.0  0.15724  0.21672  0.30210  1.0000
  S   S48       1.0  0.12542  0.22430  0.34609  1.0000
  Fe  Fe24      1.0  0.18487  0.16804  0.32774  1.0000
  S   S49       1.0  0.19486  0.17562  0.30051  1.0000
  S   S50       1.0  0.20056  0.14254  0.34562  1.0000
  Fe  Fe25      1.0  0.19116  0.20915  0.30560  1.0000
  S   S51       1.0  0.21265  0.23198  0.29178  1.0000
  Fe  Fe26      1.0  0.16024  0.18262  0.29899  1.0000
  S   S52       1.0  0.14337  0.17630  0.27908  1.0000
  S   S53       1.0  0.18373  0.20119  0.33297  1.0000
  S   S54       1.0  0.15040  0.17196  0.32587  1.0000
  S   S55       1.0  0.20171  0.14709  0.21555  1.0000
  H   H265      1.0  0.23778  0.15314  0.35662  1.0000
  H   H266      1.0  0.33605  0.45264  0.24461  1.0000
  H   H267      1.0  0.27988  0.49706  0.20170  1.0000
  H   H268      1.0  0.28066  0.43328  0.29814  1.0000
  C   C323      1.0  0.25341  0.27107  0.33774  1.0000
  Fe  Fe27      1.0  0.25379  0.02770  0.34505  1.0000
  S   S56       1.0  0.24610  0.05440  0.32465  1.0000
  C   C324      1.0  0.37334  0.32620  0.36837  1.0000
  H   H269      1.0  0.43052  0.21974  0.37736  1.0000
  C   C325      1.0  0.03619  0.22168  0.30006  1.0000
  H   H270      1.0  0.45544  0.12891  0.37120  1.0000
  S   S57       1.0  0.34011  0.25111  0.19628  1.0000
  C   C326      1.0  0.25819  0.22991  0.23986  1.0000
  Fe  Fe28      1.0  0.27924  0.46073  0.37207  1.0000
  S   S58       1.0  0.31214  0.44497  0.36415  1.0000
  Fe  Fe29      1.0  0.30236  0.44783  0.33916  1.0000
  S   S59       1.0  0.31397  0.42512  0.32032  1.0000
  S   S60       1.0  0.26879  0.46088  0.34753  1.0000
  Fe  Fe30      1.0  0.32680  0.29312  0.28062  1.0000
  S   S61       1.0  0.34159  0.26011  0.28931  1.0000
  S   S62       1.0  0.32252  0.30748  0.25440  1.0000
  Fe  Fe31      1.0  0.31639  0.30521  0.31536  1.0000
  S   S63       1.0  0.33004  0.27297  0.32685  1.0000
  S   S64       1.0  0.30061  0.32875  0.33262  1.0000
  Fe  Fe32      1.0  0.35646  0.27536  0.30604  1.0000
  S   S65       1.0  0.39087  0.26440  0.30860  1.0000
  Fe  Fe33      1.0  0.31401  0.26045  0.30937  1.0000
  S   S66       1.0  0.29790  0.23171  0.31867  1.0000
  S   S67       1.0  0.34394  0.30860  0.29565  1.0000
  S   S68       1.0  0.29805  0.29244  0.29961  1.0000
  Fe  Fe34      1.0  0.27959  0.49272  0.34095  1.0000
  C   C327      1.0  0.45968  0.32236  0.33954  1.0000
  C   C328      1.0  0.36021  0.08518  0.37934  1.0000
  C   C329      1.0  0.29660  0.14576  0.36226  1.0000
  C   C330      1.0  0.45446  0.00861  0.37043  1.0000
  P   P10       1.0  0.06442  0.21435  0.29567  1.0000
  S   S69       1.0  0.31245  0.47977  0.33108  1.0000
  C   C331      1.0  0.40031  0.26428  0.32734  1.0000
  C   C332      1.0  0.38687  0.26970  0.34142  1.0000
  C   C333      1.0  0.39504  0.26953  0.35610  1.0000
  C   C334      1.0  0.41664  0.26378  0.35684  1.0000
  C   C335      1.0  0.43005  0.25812  0.34282  1.0000
  C   C336      1.0  0.42188  0.25853  0.32811  1.0000
  H   H271      1.0  0.37023  0.27415  0.34097  1.0000
  H   H272      1.0  0.38458  0.27396  0.36690  1.0000
  H   H273      1.0  0.44671  0.25380  0.34325  1.0000
  H   H274      1.0  0.43227  0.25443  0.31722  1.0000
  C   C337      1.0  0.31064  0.39823  0.32420  1.0000
  C   C338      1.0  0.29802  0.39018  0.33828  1.0000
  C   C339      1.0  0.29534  0.36875  0.34078  1.0000
  C   C340      1.0  0.30536  0.35522  0.32933  1.0000
  C   C341      1.0  0.31829  0.36319  0.31538  1.0000
  C   C342      1.0  0.32079  0.38468  0.31279  1.0000
  H   H275      1.0  0.29017  0.40050  0.34714  1.0000
  H   H276      1.0  0.28533  0.36267  0.35159  1.0000
  H   H277      1.0  0.32607  0.35291  0.30648  1.0000
  H   H278      1.0  0.33060  0.39086  0.30190  1.0000
  C   C343      1.0  0.33469  0.26684  0.21241  1.0000
  C   C344      1.0  0.33820  0.25751  0.22839  1.0000
  C   C345      1.0  0.33444  0.26975  0.24139  1.0000
  C   C346      1.0  0.32715  0.29145  0.23849  1.0000
  C   C347      1.0  0.32340  0.30072  0.22254  1.0000
  C   C348      1.0  0.32709  0.28848  0.20955  1.0000
  H   H279      1.0  0.34405  0.24078  0.23069  1.0000
  H   H280      1.0  0.33739  0.26243  0.25360  1.0000
  H   H281      1.0  0.31790  0.31752  0.22015  1.0000
  H   H282      1.0  0.32442  0.29586  0.19727  1.0000
  S   S70       1.0  0.48695  0.26860  0.37569  1.0000
  H   H283      1.0  0.25345  0.14211  0.20365  1.0000
  H   H284      1.0  0.22586  0.02404  0.21543  1.0000
  H   H285      1.0  0.21362  0.28159  0.26827  1.0000
  H   H286      1.0  0.26523  0.20567  0.18829  1.0000
  H   H287      1.0  0.36088  0.01018  0.37737  1.0000
  C   C349      1.0  0.16357  0.03222  0.18854  1.0000
  H   H288      1.0  0.47627  0.31717  0.34014  1.0000
  H   H289      1.0  0.11619  0.15466  0.31588  1.0000
  H   H290      1.0  0.25063  0.13158  0.30653  1.0000
  H   H291      1.0  0.12406  0.25191  0.29626  1.0000
  C   C350      1.0  0.41620  0.21302  0.38169  1.0000
  C   C351      1.0  0.23689  0.23086  0.29871  1.0000
  C   C352      1.0  0.24249  0.21647  0.31232  1.0000
  C   C353      1.0  0.26158  0.21647  0.31803  1.0000
  C   C354      1.0  0.27496  0.23102  0.31035  1.0000
  C   C355      1.0  0.26964  0.24500  0.29646  1.0000
  C   C356      1.0  0.25068  0.24483  0.29060  1.0000
  H   H292      1.0  0.23198  0.20557  0.31857  1.0000
  H   H293      1.0  0.26579  0.20550  0.32864  1.0000
  H   H294      1.0  0.28011  0.25596  0.29027  1.0000
  H   H295      1.0  0.24659  0.25568  0.27986  1.0000
  C   C357      1.0  0.15956  0.16821  0.26140  1.0000
  C   C358      1.0  0.15134  0.17064  0.24651  1.0000
  C   C359      1.0  0.16415  0.16441  0.23225  1.0000
  C   C360      1.0  0.18511  0.15536  0.23297  1.0000
  C   C361      1.0  0.19317  0.15266  0.24792  1.0000
  C   C362      1.0  0.18050  0.15919  0.26206  1.0000
  H   H296      1.0  0.13513  0.17755  0.24596  1.0000
  H   H297      1.0  0.15783  0.16645  0.22075  1.0000
  H   H298      1.0  0.20928  0.14550  0.24861  1.0000
  H   H299      1.0  0.18695  0.15706  0.27345  1.0000
  C   C363      1.0  0.21359  0.11847  0.33929  1.0000
  C   C364      1.0  0.22282  0.10301  0.35089  1.0000
  C   C365      1.0  0.23325  0.08355  0.34639  1.0000
  C   C366      1.0  0.23422  0.07925  0.33032  1.0000
  C   C367      1.0  0.22518  0.09482  0.31864  1.0000
  C   C368      1.0  0.21487  0.11442  0.32311  1.0000
  H   H300      1.0  0.22174  0.10601  0.36345  1.0000
  H   H301      1.0  0.24020  0.07176  0.35544  1.0000
  H   H302      1.0  0.22591  0.09161  0.30617  1.0000
  H   H303      1.0  0.20789  0.12632  0.31406  1.0000
  C   C369      1.0  0.05649  0.21369  0.35665  1.0000
  C   C370      1.0  0.07122  0.20083  0.34683  1.0000
  C   C371      1.0  0.09236  0.20412  0.34326  1.0000
  C   C372      1.0  0.09887  0.22028  0.34951  1.0000
  C   C373      1.0  0.08403  0.23338  0.35902  1.0000
  C   C374      1.0  0.06296  0.23002  0.36272  1.0000
  H   H304      1.0  0.06631  0.18818  0.34208  1.0000
  H   H305      1.0  0.10368  0.19405  0.33585  1.0000
  H   H306      1.0  0.08884  0.24631  0.36347  1.0000
  H   H307      1.0  0.05173  0.24016  0.37018  1.0000
  H   H308      1.0  0.24801  0.17018  0.30660  1.0000
  C   C375      1.0  0.22619  0.38625  0.31632  1.0000
  C   C376      1.0  0.24689  0.39037  0.31353  1.0000
  C   C377      1.0  0.26297  0.37583  0.30673  1.0000
  C   C378      1.0  0.25846  0.35712  0.30273  1.0000
  C   C379      1.0  0.23768  0.35286  0.30543  1.0000
  C   C380      1.0  0.22157  0.36754  0.31232  1.0000
  P   P11       1.0  0.23218  0.32849  0.30028  1.0000
  H   H309      1.0  0.10619  0.27150  0.31910  1.0000
  C   C381      1.0  0.20444  0.32975  0.29976  1.0000
  C   C382      1.0  0.25573  0.45583  0.30807  1.0000
  C   C383      1.0  0.09349  0.18077  0.30752  1.0000
  H   H310      1.0  0.23255  0.48192  0.31524  1.0000
  H   H311      1.0  0.15502  0.08738  0.38194  1.0000
  C   C384      1.0  0.19084  0.32615  0.31455  1.0000
  C   C385      1.0  0.09801  0.26113  0.31435  1.0000
  C   C386      1.0  0.18728  0.21037  0.25458  1.0000
  C   C387      1.0  0.24549  0.23458  0.19395  1.0000
  C   C388      1.0  0.02610  0.21808  0.31633  1.0000
  H   H312      1.0  0.17399  0.07223  0.33241  1.0000
  C   C389      1.0  0.24652  0.32491  0.28015  1.0000
  C   C390      1.0  0.24821  0.34248  0.26787  1.0000
  C   C391      1.0  0.25995  0.34000  0.25245  1.0000
  C   C392      1.0  0.27004  0.31998  0.24919  1.0000
  C   C393      1.0  0.26820  0.30242  0.26126  1.0000
  C   C394      1.0  0.25641  0.30482  0.27665  1.0000
  H   H313      1.0  0.21375  0.39750  0.32169  1.0000
  H   H314      1.0  0.25057  0.40472  0.31679  1.0000
  H   H315      1.0  0.27902  0.37898  0.30472  1.0000
  H   H316      1.0  0.27125  0.34582  0.29778  1.0000
  H   H317      1.0  0.20546  0.36466  0.31465  1.0000
  C   C395      1.0  0.43162  0.34662  0.32781  1.0000
  H   H318      1.0  0.09334  0.21841  0.22682  1.0000
  H   H319      1.0  0.26042  0.32222  0.32570  1.0000
  H   H320      1.0  0.23145  0.22875  0.19256  1.0000
  H   H321      1.0  0.19684  0.32295  0.32627  1.0000
  C   C396      1.0  0.47061  0.00130  0.35854  1.0000
  C   C397      1.0  0.24907  0.16399  0.29508  1.0000
  H   H322      1.0  0.03505  0.21074  0.32618  1.0000
  H   H323      1.0  0.22136  0.28557  0.30825  1.0000
  H   H324      1.0  0.24064  0.35812  0.27029  1.0000
  H   H325      1.0  0.26167  0.35362  0.24312  1.0000
  H   H326      1.0  0.27979  0.31810  0.23747  1.0000
  H   H327      1.0  0.27659  0.28706  0.25889  1.0000
  H   H328      1.0  0.25564  0.29104  0.28588  1.0000
  H   H329      1.0  0.28049  0.08866  0.31483  1.0000
  C   C398      1.0  0.25043  0.14226  0.29506  1.0000
  H   H330      1.0  0.47148  0.18166  0.29108  1.0000
  Fe  Fe35      1.0  0.31963  0.47806  0.35678  1.0000
  H   H331      1.0  0.17564  0.21326  0.26519  1.0000
  C   C399      1.0  0.25125  0.13436  0.28026  1.0000
  C   C400      1.0  0.20833  0.20359  0.25664  1.0000
  C   C401      1.0  0.22339  0.19882  0.24313  1.0000
  C   C402      1.0  0.21714  0.20183  0.22739  1.0000
  C   C403      1.0  0.29653  0.37970  0.26795  1.0000
  C   C404      1.0  0.34623  0.16085  0.38298  1.0000
  C   C405      1.0  0.26414  0.20940  0.24772  1.0000
  H   H332      1.0  0.33326  0.12076  0.34418  1.0000
  Fe  Fe36      1.0  0.28687  0.00525  0.36677  1.0000
  C   C406      1.0  0.25107  0.14815  0.26541  1.0000
  Fe  Fe37      1.0  0.00794  0.22891  0.37856  1.0000
  C   C407      1.0  0.45307  0.33990  0.32840  1.0000
  C   C408      1.0  0.24999  0.17003  0.26529  1.0000
  H   H333      1.0  0.20460  0.04819  0.34150  1.0000
  P   P12       1.0  0.22035  0.27307  0.20034  1.0000
  C   C409      1.0  0.26197  0.15206  0.20858  1.0000
  C   C410      1.0  0.19625  0.33375  0.28475  1.0000
  H   H334      1.0  0.46307  0.18018  0.34485  1.0000
  C   C411      1.0  0.20966  0.03968  0.19489  1.0000
  C   C412      1.0  0.26098  0.29013  0.33705  1.0000
  H   H335      1.0  0.08027  0.25144  0.23921  1.0000
  H   H336      1.0  0.28346  0.11128  0.33513  1.0000
  H   H337      1.0  0.14482  0.33049  0.29922  1.0000
  C   C413      1.0  0.28538  0.16612  0.35909  1.0000
  C   C414      1.0  0.11307  0.13493  0.35848  1.0000
  H   H338      1.0  0.22726  0.30934  0.24681  1.0000
  C   C415      1.0  0.02411  0.23113  0.28754  1.0000
  C   C416      1.0  0.31461  0.40948  0.26763  1.0000
  H   H339      1.0  0.03127  0.23391  0.27486  1.0000
  H   H340      1.0  0.22987  0.30606  0.21737  1.0000
  C   C417      1.0  0.16591  0.07921  0.37295  1.0000
  C   C418      1.0  0.16436  0.25246  0.19969  1.0000
  H   H341      1.0  0.31491  0.05694  0.36395  1.0000
  H   H342      1.0  0.29685  0.36276  0.26869  1.0000
  C   C419      1.0  0.29253  0.16909  0.20710  1.0000
  C   C420      1.0  0.11854  0.08177  0.35750  1.0000
  C   C421      1.0  0.08032  0.19686  0.26662  1.0000
  H   H343      1.0  0.16498  0.02890  0.36951  1.0000
  C   C422      1.0  0.06725  0.24439  0.31575  1.0000
  H   H344      1.0  0.15906  0.32345  0.32580  1.0000
  C   C423      1.0  0.00448  0.22423  0.32012  1.0000
  C   C424      1.0  0.24865  0.17784  0.28031  1.0000
  H   H345      1.0  0.32930  0.37681  0.27006  1.0000
  C   C425      1.0  0.34971  0.18656  0.32971  1.0000
  C   C426      1.0  0.35106  0.20800  0.32474  1.0000
  C   C427      1.0  0.36255  0.21832  0.33283  1.0000
  C   C428      1.0  0.37264  0.20730  0.34595  1.0000
  C   C429      1.0  0.37151  0.18569  0.35096  1.0000
  H   H346      1.0  0.44996  0.29762  0.35841  1.0000
  C   C430      1.0  0.36003  0.17537  0.34270  1.0000
  C   C431      1.0  0.40950  0.15572  0.35909  1.0000
  H   H347      1.0  0.25735  0.11723  0.36220  1.0000
  C   C432      1.0  0.26313  0.17489  0.22883  1.0000
  C   C433      1.0  0.17481  0.33406  0.28458  1.0000
  C   C434      1.0  0.26421  0.16877  0.35705  1.0000
  C   C435      1.0  0.48386  0.23124  0.31438  1.0000
  H   H348      1.0  0.10524  0.19108  0.30327  1.0000
  C   C436      1.0  0.36226  0.10968  0.35403  1.0000
  S   S71       1.0  0.28143  0.00209  0.34127  1.0000
  C   C437      1.0  0.44836  0.13417  0.34625  1.0000
  C   C438      1.0  0.43348  0.14329  0.33582  1.0000
  C   C439      1.0  0.41410  0.15400  0.34220  1.0000
  H   H349      1.0  0.47378  0.16271  0.37144  1.0000
  H   H350      1.0  0.42123  0.19378  0.36243  1.0000
  C   C440      1.0  0.35977  0.31450  0.37957  1.0000
  P   P13       1.0  0.30063  0.10131  0.36709  1.0000
  H   H351      1.0  0.21268  0.20171  0.26884  1.0000
  C   C441      1.0  0.19751  0.05463  0.36658  1.0000
  H   H352      1.0  0.27254  0.29120  0.34475  1.0000
  H   H353      1.0  0.34306  0.21671  0.31469  1.0000
  H   H354      1.0  0.36364  0.23494  0.32891  1.0000
  H   H355      1.0  0.38134  0.21582  0.35199  1.0000
  C   C442      1.0  0.34056  0.11125  0.35429  1.0000
  H   H356      1.0  0.16520  0.12327  0.36214  1.0000
  H   H357      1.0  0.29170  0.18891  0.22551  1.0000
  C   C443      1.0  0.16943  0.32645  0.31434  1.0000
  H   H358      1.0  0.06980  0.26686  0.33149  1.0000
  C   C444      1.0  0.21969  0.03895  0.20875  1.0000
  H   H359      1.0  0.25918  0.25723  0.34590  1.0000
  H   H360      1.0  0.36155  0.42821  0.35410  1.0000
  H   H361      1.0  0.46335  0.12583  0.34134  1.0000
  H   H362      1.0  0.43699  0.14217  0.32276  1.0000
  H   H363      1.0  0.40299  0.16118  0.33384  1.0000
  C   C445      1.0  0.48829  0.26221  0.32570  1.0000
  H   H364      1.0  0.14969  0.25112  0.20777  1.0000
  C   C446      1.0  0.29249  0.22176  0.25734  1.0000
  C   C447      1.0  0.09801  0.23563  0.29603  1.0000
  H   H365      1.0  0.33946  0.17567  0.37644  1.0000
  C   C448      1.0  0.31488  0.38765  0.26864  1.0000
  H   H366      1.0  0.15825  0.15922  0.36970  1.0000
  H   H367      1.0  0.34053  0.17875  0.32349  1.0000
  C   C449      1.0  0.24370  0.47579  0.30533  1.0000
  C   C450      1.0  0.26537  0.13076  0.36133  1.0000
  H   H368      1.0  0.46372  0.27680  0.29167  1.0000
  H   H369      1.0  0.05162  0.24245  0.32174  1.0000
  S   S72       1.0  0.28746  0.49371  0.36625  1.0000
  H   H370      1.0  0.22931  0.05704  0.22505  1.0000
  C   C451      1.0  0.12539  0.16401  0.36707  1.0000
  H   H371      1.0  0.06759  0.24969  0.26906  1.0000
  C   C452      1.0  0.42471  0.14679  0.36940  1.0000
  C   C453      1.0  0.07300  0.23516  0.26375  1.0000
  S   S73       1.0  0.00208  0.26445  0.37422  1.0000
  H   H372      1.0  0.26330  0.27727  0.20295  1.0000
  C   C454      1.0  0.22320  0.29421  0.22651  1.0000
  C   C455      1.0  0.18355  0.06567  0.37795  1.0000
  C   C456      1.0  0.00241  0.23716  0.29134  1.0000
  C   C457      1.0  0.18108  0.21243  0.23901  1.0000
  C   C458      1.0  0.44486  0.31139  0.34990  1.0000
  C   C459      1.0  0.20187  0.05947  0.18666  1.0000
  C   C460      1.0  0.10815  0.24988  0.30160  1.0000
  H   H373      1.0  0.19121  0.20947  0.21336  1.0000
  C   C461      1.0  0.33724  0.45652  0.25659  1.0000
  C   C462      1.0  0.26910  0.24630  0.24097  1.0000
  P   P14       1.0  0.48633  0.20287  0.31528  1.0000
  P   P15       1.0  0.25022  0.18813  0.24619  1.0000
  H   H374      1.0  0.12265  0.18026  0.36954  1.0000
  C   C463      1.0  0.24650  0.48814  0.28993  1.0000
  H   H375      1.0  0.28076  0.43965  0.23577  1.0000
  C   C464      1.0  0.08916  0.07175  0.37762  1.0000
  C   C465      1.0  0.49361  0.18932  0.33479  1.0000
  C   C466      1.0  0.19925  0.26264  0.19429  1.0000
  H   H376      1.0  0.46457  0.34833  0.32026  1.0000
  C   C467      1.0  0.46077  0.19836  0.31225  1.0000
  H   H377      1.0  0.34229  0.46985  0.29948  1.0000
  C   C468      1.0  0.27092  0.44845  0.29557  1.0000
  C   C469      1.0  0.27415  0.46097  0.28015  1.0000
  C   C470      1.0  0.16141  0.33038  0.29937  1.0000
  S   S74       1.0  0.35156  0.48499  0.35992  1.0000
  H   H378      1.0  0.42671  0.36016  0.31904  1.0000
  C   C471      1.0  0.44295  0.20745  0.32203  1.0000
  C   C472      1.0  0.42285  0.20664  0.31872  1.0000
  C   C473      1.0  0.42029  0.19636  0.30585  1.0000
  C   C474      1.0  0.43793  0.18694  0.29619  1.0000
  C   C475      1.0  0.45813  0.18811  0.29925  1.0000
  C   C476      1.0  0.16242  0.08206  0.35645  1.0000
  C   C477      1.0  0.49095  0.24023  0.32627  1.0000
  H   H379      1.0  0.19354  0.31423  0.19917  1.0000
  H   H380      1.0  0.21503  0.09185  0.21044  1.0000
  H   H381      1.0  0.16858  0.33705  0.27298  1.0000
  H   H382      1.0  0.39920  0.41286  0.35309  1.0000
  C   C478      1.0  0.06399  0.15313  0.31817  1.0000
  C   C479      1.0  0.23874  0.26974  0.32762  1.0000
  H   H383      1.0  0.29501  0.25475  0.25027  1.0000
  H   H384      1.0  0.11438  0.09493  0.32383  1.0000
  C   C480      1.0  0.35841  0.46502  0.27527  1.0000
  C   C481      1.0  0.26164  0.48080  0.27736  1.0000
  H   H385      1.0  0.21127  0.04431  0.37039  1.0000
  H   H386      1.0  0.05254  0.14243  0.32223  1.0000
  H   H387      1.0  0.10055  0.12887  0.35454  1.0000
  C   C482      1.0  0.05771  0.17370  0.31072  1.0000
  H   H388      1.0  0.44461  0.21594  0.33184  1.0000
  H   H389      1.0  0.40931  0.21485  0.32570  1.0000
  H   H390      1.0  0.40464  0.19627  0.30309  1.0000
  H   H391      1.0  0.43591  0.17942  0.28595  1.0000
  P   P16       1.0  0.29504  0.45187  0.26463  1.0000
  H   H392      1.0  0.16536  0.04034  0.19851  1.0000
  C   C483      1.0  0.28156  0.20538  0.25632  1.0000
  H   H393      1.0  0.08079  0.18146  0.27403  1.0000
  C   C484      1.0  0.29084  0.46564  0.24437  1.0000
  C   C485      1.0  0.19378  0.05689  0.35028  1.0000
  C   C486      1.0  0.23999  0.30634  0.31542  1.0000
  C   C487      1.0  0.32842  0.10028  0.36738  1.0000
  C   C488      1.0  0.36689  0.41230  0.35107  1.0000
  H   H394      1.0  0.29677  0.25335  0.19954  1.0000
  C   C489      1.0  0.34090  0.46631  0.28744  1.0000
  C   C490      1.0  0.22168  0.05770  0.21430  1.0000
  H   H395      1.0  0.29491  0.05058  0.31862  1.0000
  C   C491      1.0  0.23217  0.28721  0.31640  1.0000
  H   H396      1.0  0.49382  0.26893  0.33502  1.0000
  H   H397      1.0  0.31279  0.14415  0.36416  1.0000
  C   C492      1.0  0.28325  0.17852  0.22107  1.0000
  H   H398      1.0  0.20496  0.24721  0.23072  1.0000
  C   C493      1.0  0.08023  0.23621  0.24686  1.0000
  C   C494      1.0  0.20785  0.26311  0.25067  1.0000
  C   C495      1.0  0.07736  0.23287  0.30297  1.0000
  H   H399      1.0  0.30580  0.21866  0.26410  1.0000
  C   C496      1.0  0.44394  0.13589  0.36304  1.0000
  C   C497      1.0  0.09978  0.16006  0.31474  1.0000
  H   H400      1.0  0.25375  0.44632  0.32005  1.0000
  C   C498      1.0  0.19603  0.20828  0.22540  1.0000
  C   C499      1.0  0.20688  0.31556  0.18960  1.0000
  H   H401      1.0  0.04146  0.17839  0.30886  1.0000
  C   C500      1.0  0.21428  0.28048  0.25530  1.0000
  H   H402      1.0  0.47611  0.29241  0.31299  1.0000
  H   H403      1.0  0.38478  0.33320  0.37292  1.0000
  H   H404      1.0  0.41237  0.30897  0.35731  1.0000
  C   C501      1.0  0.17641  0.07066  0.34516  1.0000
  C   C502      1.0  0.28675  0.12789  0.36306  1.0000
  C   C503      1.0  0.08500  0.14633  0.32022  1.0000
  H   H405      1.0  0.30836  0.46351  0.29400  1.0000
  Fe  Fe38      1.0  0.45967  0.25051  0.37946  1.0000
  H   H406      1.0  0.13112  0.04597  0.18844  1.0000
  H   H407      1.0  0.10641  0.22666  0.28642  1.0000
  H   H408      1.0  0.26350  0.38741  0.26616  1.0000
  C   C504      1.0  0.21655  0.27685  0.22177  1.0000
  H   H409      1.0  0.48201  0.01141  0.35251  1.0000
  H   H410      1.0  0.25194  0.11751  0.28031  1.0000
  H   H411      1.0  0.30792  0.17220  0.20103  1.0000
  C   C505      1.0  0.14543  0.15218  0.36713  1.0000
  P   P17       1.0  0.13884  0.09812  0.35030  1.0000
  H   H412      1.0  0.09360  0.18359  0.24438  1.0000
  H   H413      1.0  0.24534  0.23315  0.23272  1.0000
  C   C506      1.0  0.39501  0.38326  0.34630  1.0000
  H   H414      1.0  0.20229  0.25084  0.26004  1.0000
  C   C507      1.0  0.35657  0.46018  0.25983  1.0000
  H   H415      1.0  0.25172  0.14163  0.25415  1.0000
  C   C508      1.0  0.22246  0.29800  0.18730  1.0000
  H   H416      1.0  0.28677  0.18959  0.26219  1.0000
  C   C509      1.0  0.47909  0.17965  0.34682  1.0000
  C   C510      1.0  0.41659  0.33603  0.33854  1.0000
  C   C511      1.0  0.27978  0.46714  0.21757  1.0000
  P   P18       1.0  0.38900  0.34499  0.33728  1.0000
  C   C512      1.0  0.37217  0.32879  0.35142  1.0000
  C   C513      1.0  0.38070  0.37141  0.34262  1.0000
  C   C514      1.0  0.17996  0.26152  0.20452  1.0000
  C   C515      1.0  0.28248  0.24810  0.19794  1.0000
  H   H417      1.0  0.08984  0.13038  0.32589  1.0000
  C   C516      1.0  0.35251  0.40039  0.34784  1.0000
  C   C517      1.0  0.35933  0.38003  0.34367  1.0000
  C   C518      1.0  0.35664  0.32026  0.34591  1.0000
  C   C519      1.0  0.34296  0.30877  0.35717  1.0000
  C   C520      1.0  0.38585  0.34356  0.31635  1.0000
  C   C521      1.0  0.37652  0.36111  0.30636  1.0000
  C   C522      1.0  0.37469  0.35960  0.29006  1.0000
  C   C523      1.0  0.38231  0.34066  0.28362  1.0000
  C   C524      1.0  0.39170  0.32318  0.29350  1.0000
  C   C525      1.0  0.39340  0.32458  0.30982  1.0000
  H   H418      1.0  0.16463  0.21675  0.23760  1.0000
  C   C526      1.0  0.20914  0.26122  0.23402  1.0000
  C   C527      1.0  0.42340  0.31807  0.34936  1.0000
  H   H419      1.0  0.37014  0.45918  0.25038  1.0000
  H   H420      1.0  0.32897  0.41518  0.26843  1.0000
  C   C528      1.0  0.26340  0.26161  0.19992  1.0000
  C   C529      1.0  0.07753  0.25848  0.32134  1.0000
  H   H421      1.0  0.17687  0.26750  0.21623  1.0000
  H   H422      1.0  0.33604  0.40699  0.34842  1.0000
  H   H423      1.0  0.34792  0.37108  0.34115  1.0000
  H   H424      1.0  0.35473  0.32264  0.33300  1.0000
  H   H425      1.0  0.33093  0.30236  0.35284  1.0000
  H   H426      1.0  0.37059  0.37596  0.31102  1.0000
  H   H427      1.0  0.36724  0.37309  0.28247  1.0000
  H   H428      1.0  0.38062  0.33936  0.27108  1.0000
  H   H429      1.0  0.39720  0.30831  0.28867  1.0000
  H   H430      1.0  0.40045  0.31077  0.31738  1.0000
  C   C530      1.0  0.27779  0.39357  0.26647  1.0000
  C   C531      1.0  0.27742  0.41539  0.26557  1.0000
  C   C532      1.0  0.29589  0.42356  0.26588  1.0000
  H   H431      1.0  0.35898  0.15872  0.34635  1.0000
  C   C533      1.0  0.08900  0.05425  0.36981  1.0000
  C   C534      1.0  0.31962  0.45756  0.26883  1.0000
  S   S75       1.0  0.26114  0.03264  0.36941  1.0000
  H   H432      1.0  0.24721  0.19468  0.28066  1.0000
  S   S76       1.0  0.47871  0.22161  0.36982  1.0000
  H   H433      1.0  0.38888  0.09539  0.36643  1.0000
  H   H434      1.0  0.29816  0.21783  0.19177  1.0000
  H   H435      1.0  0.16434  0.00682  0.34794  1.0000
  C   C535      1.0  0.32157  0.46262  0.28426  1.0000
  C   C536      1.0  0.47428  0.24460  0.30174  1.0000
  C   C537      1.0  0.24476  0.25509  0.19775  1.0000
  C   C538      1.0  0.25277  0.16127  0.22262  1.0000
  H   H436      1.0  0.26272  0.42594  0.26462  1.0000
  C   C539      1.0  0.21369  0.07729  0.20609  1.0000
  C   C540      1.0  0.22194  0.29604  0.24322  1.0000
  C   C541      1.0  0.07291  0.21547  0.27375  1.0000
  H   H437      1.0  0.25548  0.18452  0.35465  1.0000
  H   H438      1.0  0.31257  0.03493  0.34297  1.0000
  H   H439      1.0  0.37155  0.11820  0.34395  1.0000
  C   C542      1.0  0.26469  0.22121  0.19173  1.0000
  H   H440      1.0  0.20630  0.33649  0.27314  1.0000
  C   C543      1.0  0.08758  0.21763  0.23987  1.0000
  C   C544      1.0  0.41092  0.19813  0.37334  1.0000
  C   C545      1.0  0.11872  0.06375  0.35008  1.0000
  C   C546      1.0  0.25414  0.30777  0.32606  1.0000
  H   H441      1.0  0.37338  0.46772  0.27785  1.0000
  H   H442      1.0  0.23293  0.25494  0.32810  1.0000
  C   C547      1.0  0.28630  0.24219  0.24964  1.0000
  C   C548      1.0  0.14221  0.10595  0.32828  1.0000
  C   C549      1.0  0.12778  0.10268  0.31849  1.0000
  C   C550      1.0  0.13027  0.11000  0.30158  1.0000
  C   C551      1.0  0.14707  0.12071  0.29438  1.0000
  C   C552      1.0  0.16141  0.12407  0.30406  1.0000
  C   C553      1.0  0.15898  0.11678  0.32095  1.0000
  H   H443      1.0  0.22835  0.19864  0.21665  1.0000
  C   C554      1.0  0.13317  0.12295  0.35847  1.0000
  C   C555      1.0  0.07233  0.18787  0.30567  1.0000
  C   C556      1.0  0.10915  0.15523  0.36303  1.0000
  C   C557      1.0  0.14933  0.13174  0.36281  1.0000
  C   C558      1.0  0.25421  0.15110  0.35820  1.0000
  C   C559      1.0  0.34459  0.30577  0.37396  1.0000
  C   C560      1.0  0.38811  0.40368  0.35041  1.0000
  H   H444      1.0  0.10428  0.09836  0.37820  1.0000
  P   P19       1.0  0.38528  0.17093  0.36740  1.0000
  H   H445      1.0  0.13046  0.06011  0.33969  1.0000
  C   C561      1.0  0.08764  0.19799  0.24976  1.0000
  H   H446      1.0  0.41144  0.37686  0.34617  1.0000
  H   H447      1.0  0.11905  0.10770  0.29402  1.0000
  H   H448      1.0  0.14883  0.12673  0.28132  1.0000
  H   H449      1.0  0.17423  0.13265  0.29850  1.0000
  H   H450      1.0  0.17001  0.11991  0.32834  1.0000
  H   H451      1.0  0.23724  0.15825  0.22833  1.0000
  C   C562      1.0  0.47846  0.27540  0.31326  1.0000
  C   C563      1.0  0.37207  0.09672  0.36661  1.0000
  H   H452      1.0  0.09365  0.16445  0.36292  1.0000
  S   S77       1.0  0.42633  0.26469  0.37530  1.0000
  H   H453      1.0  0.29306  0.17992  0.35816  1.0000
  C   C564      1.0  0.28359  0.45586  0.23294  1.0000
  C   C565      1.0  0.28840  0.08199  0.32541  1.0000
  C   C566      1.0  0.29654  0.06048  0.32753  1.0000
  C   C567      1.0  0.30629  0.05163  0.34133  1.0000
  C   C568      1.0  0.30755  0.06417  0.35320  1.0000
  C   C569      1.0  0.29909  0.08574  0.35132  1.0000
  C   C570      1.0  0.28982  0.09468  0.33716  1.0000
  P   P20       1.0  0.20614  0.01563  0.18787  1.0000
  Fe  Fe39      1.0  0.19055  0.15408  0.19065  1.0000
  H   H454      1.0  0.26384  0.49101  0.26574  1.0000
  S   S78       1.0  0.32036  0.00403  0.37176  1.0000
  H   H455      1.0  0.46857  0.23804  0.29245  1.0000
  H   H456      1.0  0.27393  0.45966  0.20886  1.0000
  C   C571      1.0  0.29469  0.48664  0.23997  1.0000
  Fe  Fe40      1.0  0.24017  0.00825  0.37997  1.0000
  C   C572      1.0  0.33853  0.08685  0.37968  1.0000
  C   C573      1.0  0.48514  0.16942  0.36187  1.0000
  C   C574      1.0  0.28322  0.48818  0.21348  1.0000
  H   H457      1.0  0.07752  0.04369  0.37448  1.0000
  C   C575      1.0  0.36809  0.15439  0.38095  1.0000
  C   C576      1.0  0.10387  0.05018  0.35612  1.0000
  H   H458      1.0  0.10400  0.03639  0.35024  1.0000
  C   C577      1.0  0.10403  0.08533  0.37163  1.0000
  C   C578      1.0  0.39236  0.18935  0.37887  1.0000
  H   H459      1.0  0.26848  0.07322  0.37543  1.0000
  C   C579      1.0  0.20381  0.07813  0.19228  1.0000
  C   C580      1.0  0.28320  0.22801  0.19367  1.0000
  S   S79       1.0  0.23094  0.00499  0.35566  1.0000
  H   H460      1.0  0.42180  0.14841  0.38238  1.0000
  H   H461      1.0  0.33397  0.29683  0.38261  1.0000
  H   H462      1.0  0.30021  0.49460  0.24856  1.0000
  H   H463      1.0  0.45339  0.02435  0.37365  1.0000
  H   H464      1.0  0.38877  0.49769  0.36665  1.0000
  H   H465      1.0  0.28882  0.14900  0.18980  1.0000
  C   C581      1.0  0.16857  0.01185  0.37207  1.0000
  C   C582      1.0  0.29076  0.49788  0.22465  1.0000
  H   H466      1.0  0.02222  0.17400  0.38530  1.0000
  H   H467      1.0  0.19747  0.09329  0.18597  1.0000
  H   H468      1.0  0.44010  0.00264  0.46690  1.0000
  H   H469      1.0  0.01839  0.20129  0.55861  1.0000
  H   H470      1.0  0.00419  0.25882  0.54911  1.0000
  C   C583      1.0  0.47497  0.20409  0.53102  1.0000
  Fe  Fe41      1.0  0.04466  0.37456  0.48526  1.0000
  S   S80       1.0  0.03511  0.37248  0.51266  1.0000
  S   S81       1.0  0.06789  0.39550  0.47014  1.0000
  Fe  Fe42      1.0  0.03311  0.33819  0.51182  1.0000
  S   S82       1.0  0.04651  0.30851  0.52756  1.0000
  S   S83       1.0  0.04516  0.33972  0.48467  1.0000
  C   C584      1.0  0.16470  0.44909  0.43948  1.0000
  P   P21       1.0  0.04650  0.48685  0.48200  1.0000
  S   S84       1.0  0.03218  0.05634  0.53449  1.0000
  C   C585      1.0  0.44460  0.19827  0.43917  1.0000
  H   H471      1.0  0.32706  0.01807  0.45050  1.0000
  H   H472      1.0  0.46030  0.17034  0.45205  1.0000
  C   C586      1.0  0.26586  0.45248  0.46985  1.0000
  H   H473      1.0  0.46605  0.08850  0.45046  1.0000
  H   H474      1.0  0.05759  0.25976  0.47660  1.0000
  S   S85       1.0  0.12286  0.03347  0.49495  1.0000
  H   H475      1.0  0.42254  0.00740  0.51054  1.0000
  S   S86       1.0  0.01145  0.38275  0.47941  1.0000
  H   H476      1.0  0.04554  0.17653  0.48846  1.0000
  Fe  Fe43      1.0  0.43411  0.08307  0.55612  1.0000
  S   S87       1.0  0.43992  0.04893  0.56683  1.0000
  S   S88       1.0  0.42773  0.09617  0.53022  1.0000
  H   H477      1.0  0.18045  0.48430  0.53912  1.0000
  C   C587      1.0  0.03118  0.30534  0.43194  1.0000
  H   H478      1.0  0.27773  0.01142  0.42581  1.0000
  C   C588      1.0  0.02342  0.31729  0.44494  1.0000
  H   H479      1.0  0.23381  0.45903  0.48143  1.0000
  S   S89       1.0  0.46387  0.09084  0.56213  1.0000
  Fe  Fe44      1.0  0.40721  0.05076  0.45593  1.0000
  S   S90       1.0  0.43452  0.06405  0.43998  1.0000
  S   S91       1.0  0.40509  0.03814  0.48315  1.0000
  Fe  Fe45      1.0  0.38198  0.05442  0.42722  1.0000
  Fe  Fe46      1.0  0.42976  0.04312  0.42220  1.0000
  S   S92       1.0  0.45810  0.02624  0.40745  1.0000
  Fe  Fe47      1.0  0.41021  0.08778  0.42793  1.0000
  S   S93       1.0  0.40422  0.02798  0.43901  1.0000
  S   S94       1.0  0.38317  0.07614  0.44545  1.0000
  Fe  Fe48      1.0  0.01112  0.34796  0.48156  1.0000
  Fe  Fe49      1.0  0.18704  0.48048  0.50109  1.0000
  S   S95       1.0  0.21615  0.47870  0.51317  1.0000
  Fe  Fe50      1.0  0.15296  0.45887  0.49198  1.0000
  S   S96       1.0  0.14170  0.48709  0.47437  1.0000
  S   S97       1.0  0.13815  0.42883  0.49989  1.0000
  Fe  Fe51      1.0  0.17618  0.48905  0.46606  1.0000
  C   C589      1.0  0.12705  0.49238  0.55534  1.0000
  S   S98       1.0  0.18730  0.45930  0.48210  1.0000
  S   S99       1.0  0.15385  0.47762  0.51237  1.0000
  H   H480      1.0  0.00591  0.21222  0.44582  1.0000
  C   C590      1.0  0.42066  0.00521  0.55514  1.0000
  H   H481      1.0  0.33109  0.12000  0.41128  1.0000
  H   H482      1.0  0.44987  0.48708  0.55640  1.0000
  C   C591      1.0  0.32788  0.01775  0.38609  1.0000
  C   C592      1.0  0.45706  0.19589  0.56600  1.0000
  S   S100      1.0  0.46302  0.23812  0.40594  1.0000
  C   C593      1.0  0.24307  0.46210  0.40872  1.0000
  C   C594      1.0  0.23573  0.45355  0.42486  1.0000
  C   C595      1.0  0.21945  0.46508  0.43459  1.0000
  C   C596      1.0  0.21059  0.48542  0.42828  1.0000
  H   H483      1.0  0.01785  0.13622  0.39139  1.0000
  H   H484      1.0  0.24265  0.43791  0.42981  1.0000
  H   H485      1.0  0.21377  0.45824  0.44694  1.0000
  C   C597      1.0  0.46739  0.13917  0.41546  1.0000
  C   C598      1.0  0.00822  0.20846  0.50046  1.0000
  H   H486      1.0  0.45354  0.11037  0.42211  1.0000
  H   H487      1.0  0.15196  0.10663  0.41942  1.0000
  C   C599      1.0  0.08672  0.48894  0.51441  1.0000
  C   C600      1.0  0.47715  0.41544  0.44890  1.0000
  C   C601      1.0  0.00277  0.08140  0.57556  1.0000
  C   C602      1.0  0.03611  0.44967  0.47488  1.0000
  C   C603      1.0  0.39543  0.46644  0.49545  1.0000
  C   C604      1.0  0.05846  0.15706  0.41169  1.0000
  H   H488      1.0  0.48704  0.12214  0.53587  1.0000
  C   C605      1.0  0.42140  0.07968  0.51744  1.0000
  C   C606      1.0  0.41218  0.06164  0.52400  1.0000
  C   C607      1.0  0.40659  0.04936  0.51340  1.0000
  C   C608      1.0  0.41070  0.05472  0.49621  1.0000
  C   C609      1.0  0.41981  0.07283  0.48969  1.0000
  C   C610      1.0  0.42515  0.08522  0.50029  1.0000
  H   H489      1.0  0.40899  0.05741  0.53721  1.0000
  H   H490      1.0  0.39885  0.03584  0.51856  1.0000
  H   H491      1.0  0.42294  0.07717  0.47650  1.0000
  H   H492      1.0  0.43246  0.09900  0.49516  1.0000
  Fe  Fe52      1.0  0.00757  0.07833  0.52137  1.0000
  C   C611      1.0  0.02931  0.46744  0.48309  1.0000
  C   C612      1.0  0.12246  0.38951  0.44494  1.0000
  C   C613      1.0  0.46627  0.22077  0.49905  1.0000
  C   C614      1.0  0.28071  0.08635  0.41639  1.0000
  C   C615      1.0  0.45996  0.01643  0.51986  1.0000
  C   C616      1.0  0.02941  0.14187  0.39687  1.0000
  C   C617      1.0  0.09730  0.49159  0.44591  1.0000
  C   C618      1.0  0.43068  0.45902  0.53250  1.0000
  C   C619      1.0  0.20065  0.39477  0.42274  1.0000
  H   H493      1.0  0.17507  0.42587  0.40444  1.0000
  H   H494      1.0  0.02789  0.42174  0.46842  1.0000
  C   C620      1.0  0.09233  0.46760  0.52037  1.0000
  C   C621      1.0  0.00472  0.14262  0.56759  1.0000
  H   H495      1.0  0.11391  0.18059  0.39960  1.0000
  H   H496      1.0  0.09919  0.49066  0.41992  1.0000
  H   H497      1.0  0.16285  0.46239  0.39241  1.0000
  C   C622      1.0  0.05741  0.05057  0.52345  1.0000
  C   C623      1.0  0.06364  0.06253  0.50840  1.0000
  C   C624      1.0  0.08394  0.05748  0.49988  1.0000
  C   C625      1.0  0.09781  0.04014  0.50615  1.0000
  C   C626      1.0  0.09158  0.02843  0.52131  1.0000
  C   C627      1.0  0.07156  0.03379  0.53002  1.0000
  H   H498      1.0  0.05286  0.07571  0.50346  1.0000
  H   H499      1.0  0.08884  0.06679  0.48830  1.0000
  C   C628      1.0  0.49098  0.43339  0.51168  1.0000
  H   H500      1.0  0.06690  0.02465  0.54175  1.0000
  H   H501      1.0  0.05756  0.24094  0.52442  1.0000
  H   H502      1.0  0.11078  0.36350  0.46133  1.0000
  H   H503      1.0  0.49472  0.19526  0.58301  1.0000
  H   H504      1.0  0.44892  0.16556  0.56360  1.0000
  C   C629      1.0  0.08638  0.40563  0.47900  1.0000
  C   C630      1.0  0.09296  0.39585  0.49394  1.0000
  C   C631      1.0  0.10885  0.40317  0.50005  1.0000
  C   C632      1.0  0.11803  0.42065  0.49153  1.0000
  C   C633      1.0  0.11116  0.43079  0.47673  1.0000
  C   C634      1.0  0.09553  0.42317  0.47044  1.0000
  H   H505      1.0  0.08617  0.38228  0.50060  1.0000
  H   H506      1.0  0.11406  0.39522  0.51149  1.0000
  H   H507      1.0  0.11809  0.44424  0.47004  1.0000
  H   H508      1.0  0.09065  0.43079  0.45882  1.0000
  H   H509      1.0  0.29699  0.45031  0.45639  1.0000
  H   H510      1.0  0.13756  0.41459  0.43060  1.0000
  C   C635      1.0  0.46793  0.41420  0.46535  1.0000
  C   C636      1.0  0.19579  0.05331  0.44707  1.0000
  H   H511      1.0  0.18099  0.40568  0.49781  1.0000
  H   H512      1.0  0.24176  0.02950  0.42810  1.0000
  C   C637      1.0  0.23230  0.48380  0.54048  1.0000
  C   C638      1.0  0.03892  0.27910  0.55477  1.0000
  C   C639      1.0  0.03164  0.29882  0.54614  1.0000
  C   C640      1.0  0.40422  0.45419  0.48281  1.0000
  C   C641      1.0  0.02249  0.43526  0.47493  1.0000
  H   H513      1.0  0.41547  0.16995  0.58193  1.0000
  H   H514      1.0  0.05343  0.27003  0.54987  1.0000
  H   H515      1.0  0.13960  0.12480  0.44409  1.0000
  H   H516      1.0  0.99927  0.15905  0.49767  1.0000
  H   H517      1.0  0.16439  0.40634  0.47323  1.0000
  C   C642      1.0  0.37892  0.43708  0.51085  1.0000
  C   C643      1.0  0.19055  0.40610  0.48581  1.0000
  C   C644      1.0  0.12006  0.49636  0.58426  1.0000
  C   C645      1.0  0.43135  0.48721  0.46856  1.0000
  H   H518      1.0  0.46489  0.03993  0.47983  1.0000
  C   C646      1.0  0.05911  0.13455  0.55047  1.0000
  C   C647      1.0  0.46389  0.16118  0.41063  1.0000
  C   C648      1.0  0.38354  0.48389  0.42038  1.0000
  C   C649      1.0  0.12448  0.37109  0.45628  1.0000
  P   P22       1.0  0.18129  0.40662  0.43812  1.0000
  H   H519      1.0  0.47364  0.06387  0.52311  1.0000
  C   C650      1.0  0.19333  0.40712  0.45615  1.0000
  H   H520      1.0  0.46332  0.47072  0.46831  1.0000
  C   C651      1.0  0.24608  0.46475  0.47219  1.0000
  H   H521      1.0  0.21162  0.05644  0.42207  1.0000
  H   H522      1.0  0.24374  0.36958  0.39039  1.0000
  C   C652      1.0  0.31975  0.03832  0.40892  1.0000
  H   H523      1.0  0.28414  0.08991  0.42786  1.0000
  H   H524      1.0  0.36569  0.45899  0.43159  1.0000
  H   H525      1.0  0.30822  0.04607  0.41777  1.0000
  C   C653      1.0  0.31160  0.47011  0.42098  1.0000
  P   P23       1.0  0.01566  0.22749  0.52647  1.0000
  C   C654      1.0  0.37811  0.46756  0.43273  1.0000
  C   C655      1.0  0.19767  0.00045  0.56610  1.0000
  H   H526      1.0  0.00733  0.30204  0.49918  1.0000
  C   C656      1.0  0.08759  0.08924  0.44526  1.0000
  C   C657      1.0  0.07509  0.10224  0.45605  1.0000
  C   C658      1.0  0.05889  0.09452  0.46729  1.0000
  C   C659      1.0  0.05551  0.07361  0.46809  1.0000
  C   C660      1.0  0.06857  0.06010  0.45780  1.0000
  C   C661      1.0  0.08419  0.06836  0.44596  1.0000
  P   P24       1.0  0.06433  0.03295  0.45881  1.0000
  C   C662      1.0  0.27228  0.07675  0.38678  1.0000
  C   C663      1.0  0.05846  0.02107  0.48004  1.0000
  H   H527      1.0  0.08852  0.00071  0.48142  1.0000
  C   C664      1.0  0.00356  0.17178  0.50282  1.0000
  H   H528      1.0  0.03145  0.15155  0.47481  1.0000
  C   C665      1.0  0.03380  0.01797  0.50538  1.0000
  C   C666      1.0  0.03856  0.02666  0.48891  1.0000
  H   H529      1.0  0.42316  0.49780  0.43600  1.0000
  H   H530      1.0  0.32987  0.07725  0.38940  1.0000
  H   H531      1.0  0.33848  0.48600  0.41108  1.0000
  H   H532      1.0  0.49401  0.44305  0.53472  1.0000
  H   H533      1.0  0.10224  0.01536  0.52644  1.0000
  C   C667      1.0  0.04165  0.03234  0.44912  1.0000
  C   C668      1.0  0.03067  0.05099  0.44148  1.0000
  C   C669      1.0  0.01233  0.05034  0.43503  1.0000
  H   H534      1.0  0.11364  0.49325  0.44522  1.0000
  H   H535      1.0  0.35583  0.45909  0.39368  1.0000
  H   H536      1.0  0.31607  0.15351  0.39529  1.0000
  H   H537      1.0  0.10000  0.09530  0.43640  1.0000
  H   H538      1.0  0.07783  0.11832  0.45566  1.0000
  H   H539      1.0  0.04885  0.10470  0.47545  1.0000
  H   H540      1.0  0.04281  0.06813  0.47687  1.0000
  H   H541      1.0  0.09391  0.05872  0.43732  1.0000
  H   H542      1.0  0.04772  0.23006  0.49758  1.0000
  C   C670      1.0  0.03737  0.08770  0.57882  1.0000
  C   C671      1.0  0.05598  0.13558  0.41499  1.0000
  C   C672      1.0  0.45694  0.21895  0.52867  1.0000
  H   H543      1.0  0.02678  0.03795  0.48315  1.0000
  H   H544      1.0  0.22657  0.49374  0.46426  1.0000
  H   H545      1.0  0.30204  0.10584  0.40138  1.0000
  C   C673      1.0  0.19354  0.48803  0.56055  1.0000
  C   C674      1.0  0.00924  0.28324  0.57646  1.0000
  H   H546      1.0  0.10822  0.02914  0.46331  1.0000
  H   H547      1.0  0.03588  0.06613  0.44076  1.0000
  H   H548      1.0  0.21791  0.34810  0.40743  1.0000
  H   H549      1.0  0.05697  0.15004  0.50959  1.0000
  C   C675      1.0  0.43145  0.21654  0.58416  1.0000
  C   C676      1.0  0.99810  0.16093  0.57516  1.0000
  H   H550      1.0  0.38792  0.49200  0.53396  1.0000
  C   C677      1.0  0.43388  0.46617  0.54685  1.0000
  C   C678      1.0  0.21199  0.40704  0.48434  1.0000
  H   H551      1.0  0.06490  0.12473  0.42355  1.0000
  C   C679      1.0  0.38887  0.46211  0.44642  1.0000
  C   C680      1.0  0.06644  0.16982  0.44277  1.0000
  C   C681      1.0  0.05133  0.17461  0.47576  1.0000
  C   C682      1.0  0.06797  0.21022  0.41368  1.0000
  C   C683      1.0  0.40517  0.47300  0.44786  1.0000
  C   C684      1.0  0.00332  0.22598  0.45218  1.0000
  H   H552      1.0  0.44630  0.22434  0.53909  1.0000
  C   C685      1.0  0.26852  0.04100  0.46236  1.0000
  C   C686      1.0  0.13977  0.40001  0.43897  1.0000
  C   C687      1.0  0.05782  0.14801  0.53558  1.0000
  H   H553      1.0  0.05282  0.20891  0.42105  1.0000
  S   S101      1.0  0.26268  0.44658  0.39662  1.0000
  C   C688      1.0  0.47005  0.05393  0.50033  1.0000
  C   C689      1.0  0.01503  0.25699  0.45791  1.0000
  H   H554      1.0  0.11485  0.46918  0.57444  1.0000
  C   C690      1.0  0.43019  0.13748  0.41712  1.0000
  P   P25       1.0  0.07691  0.16654  0.42168  1.0000
  C   C691      1.0  0.47919  0.49691  0.57324  1.0000
  C   C692      1.0  0.00903  0.16823  0.51867  1.0000
  H   H555      1.0  0.00369  0.06482  0.42944  1.0000
  H   H556      1.0  0.41090  0.16750  0.41141  1.0000
  H   H557      1.0  0.00729  0.32582  0.54608  1.0000
  H   H558      1.0  0.19067  0.36386  0.42803  1.0000
  C   C693      1.0  0.04437  0.26242  0.48614  1.0000
  C   C694      1.0  0.45065  0.42903  0.47016  1.0000
  C   C695      1.0  0.25796  0.49212  0.45092  1.0000
  C   C696      1.0  0.48489  0.15330  0.54253  1.0000
  C   C697      1.0  0.03182  0.16321  0.39348  1.0000
  C   C698      1.0  0.45044  0.21427  0.57356  1.0000
  C   C699      1.0  0.38275  0.41676  0.55816  1.0000
  C   C700      1.0  0.10219  0.19423  0.40162  1.0000
  C   C701      1.0  0.15728  0.46963  0.43257  1.0000
  C   C702      1.0  0.22414  0.40815  0.46881  1.0000
  S   S102      1.0  0.31544  0.49595  0.57707  1.0000
  C   C703      1.0  0.04634  0.17081  0.40076  1.0000
  C   C704      1.0  0.47021  0.05125  0.51734  1.0000
  H   H559      1.0  0.42074  0.44714  0.53310  1.0000
  H   H560      1.0  0.24736  0.48201  0.53276  1.0000
  C   C705      1.0  0.29098  0.09521  0.40137  1.0000
  H   H561      1.0  0.46617  0.03051  0.54012  1.0000
  C   C706      1.0  0.19644  0.04264  0.46305  1.0000
  C   C707      1.0  0.46059  0.01892  0.50266  1.0000
  S   S103      1.0  0.40728  0.06790  0.40888  1.0000
  C   C708      1.0  0.40294  0.21950  0.39550  1.0000
  H   H562      1.0  0.00719  0.22402  0.49328  1.0000
  H   H563      1.0  0.03736  0.29576  0.47744  1.0000
  H   H564      1.0  0.00794  0.38365  0.44158  1.0000
  C   C709      1.0  0.46541  0.03249  0.52704  1.0000
  C   C710      1.0  0.03307  0.20747  0.55456  1.0000
  C   C711      1.0  0.37630  0.13540  0.39002  1.0000
  H   H565      1.0  0.38461  0.44918  0.45562  1.0000
  C   C712      1.0  0.44205  0.44486  0.45839  1.0000
  C   C713      1.0  0.06319  0.48853  0.46228  1.0000
  C   C714      1.0  0.45745  0.48904  0.53016  1.0000
  H   H566      1.0  0.45910  0.20256  0.43209  1.0000
  H   H567      1.0  0.40660  0.42356  0.47479  1.0000
  C   C715      1.0  0.34120  0.03867  0.40899  1.0000
  C   C716      1.0  0.23032  0.02254  0.45408  1.0000
  C   C717      1.0  0.04159  0.12801  0.40755  1.0000
  H   H568      1.0  0.10731  0.15083  0.44526  1.0000
  H   H569      1.0  0.46926  0.44893  0.56289  1.0000
  H   H570      1.0  0.44622  0.45888  0.43268  1.0000
  S   S104      1.0  0.00745  0.11285  0.51218  1.0000
  C   C718      1.0  0.12610  0.12235  0.40670  1.0000
  C   C719      1.0  0.05098  0.15819  0.45165  1.0000
  H   H571      1.0  0.46250  0.48735  0.50415  1.0000
  C   C720      1.0  0.45285  0.48540  0.46963  1.0000
  C   C721      1.0  0.00890  0.47009  0.49186  1.0000
  H   H572      1.0  0.39333  0.01270  0.57286  1.0000
  H   H573      1.0  0.24071  0.40917  0.46761  1.0000
  C   C722      1.0  0.09871  0.07278  0.55358  1.0000
  C   C723      1.0  0.17034  0.43799  0.41242  1.0000
  C   C724      1.0  0.46911  0.43148  0.43720  1.0000
  S   S105      1.0  0.21626  0.01812  0.40139  1.0000
  H   H574      1.0  0.38450  0.40867  0.49947  1.0000
  C   C725      1.0  0.49599  0.43700  0.49454  1.0000
  H   H575      1.0  0.36912  0.43052  0.52165  1.0000
  C   C726      1.0  0.13066  0.12818  0.43383  1.0000
  C   C727      1.0  0.29510  0.01164  0.45518  1.0000
  P   P26       1.0  0.42289  0.45450  0.56698  1.0000
  S   S106      1.0  0.40852  0.12344  0.42104  1.0000
  H   H576      1.0  0.25077  0.05735  0.40186  1.0000
  H   H577      1.0  0.06113  0.24420  0.40832  1.0000
  C   C728      1.0  0.40011  0.43330  0.48440  1.0000
  H   H578      1.0  0.02674  0.26746  0.45584  1.0000
  C   C729      1.0  0.41038  0.48946  0.43542  1.0000
  S   S107      1.0  0.34864  0.05256  0.42325  1.0000
  C   C730      1.0  0.11228  0.14297  0.43444  1.0000
  C   C731      1.0  0.38757  0.42480  0.49837  1.0000
  C   C732      1.0  0.45064  0.12732  0.41853  1.0000
  C   C733      1.0  0.23084  0.39770  0.40144  1.0000
  H   H579      1.0  0.33806  0.48690  0.48085  1.0000
  H   H580      1.0  0.12575  0.05579  0.54014  1.0000
  C   C734      1.0  0.45171  0.44621  0.44191  1.0000
  H   H581      1.0  0.10206  0.08808  0.54726  1.0000
  C   C735      1.0  0.05509  0.48720  0.44790  1.0000
  H   H582      1.0  0.12160  0.21598  0.38662  1.0000
  H   H583      1.0  0.07260  0.19729  0.47293  1.0000
  C   C736      1.0  0.10771  0.13706  0.40729  1.0000
  C   C737      1.0  0.00220  0.43805  0.48358  1.0000
  H   H584      1.0  0.25857  0.06558  0.42823  1.0000
  C   C738      1.0  0.28724  0.09002  0.38647  1.0000
  C   C739      1.0  0.36296  0.12318  0.40095  1.0000
  H   H585      1.0  0.09908  0.14048  0.39687  1.0000
  C   C740      1.0  0.00191  0.30288  0.56776  1.0000
  C   C741      1.0  0.22943  0.03323  0.43804  1.0000
  H   H586      1.0  0.47285  0.16004  0.53488  1.0000
  H   H587      1.0  0.04790  0.18740  0.39774  1.0000
  H   H588      1.0  0.27677  0.49316  0.40552  1.0000
  C   C742      1.0  0.36130  0.44797  0.56768  1.0000
  H   H589      1.0  0.43860  0.46113  0.50609  1.0000
  H   H590      1.0  0.14535  0.34872  0.47041  1.0000
  C   C743      1.0  0.11225  0.05456  0.54958  1.0000
  H   H591      1.0  0.45735  0.00643  0.49670  1.0000
  C   C744      1.0  0.05493  0.22966  0.53536  1.0000
  C   C745      1.0  0.07021  0.22500  0.54592  1.0000
  C   C746      1.0  0.06703  0.21148  0.56071  1.0000
  C   C747      1.0  0.04848  0.20272  0.56501  1.0000
  C   C748      1.0  0.49211  0.16590  0.55201  1.0000
  C   C749      1.0  0.06061  0.10435  0.53632  1.0000
  H   H592      1.0  0.30992  0.47865  0.46779  1.0000
  C   C750      1.0  0.42669  0.15950  0.41241  1.0000
  H   H593      1.0  0.44423  0.42822  0.48306  1.0000
  C   C751      1.0  0.15934  0.39202  0.44427  1.0000
  C   C752      1.0  0.20172  0.37351  0.42069  1.0000
  H   H594      1.0  0.17849  0.48943  0.56830  1.0000
  H   H595      1.0  0.18527  0.02213  0.42972  1.0000
  C   C753      1.0  0.01600  0.28626  0.49888  1.0000
  S   S108      1.0  0.01398  0.22638  0.40468  1.0000
  H   H596      1.0  0.47665  0.43273  0.42449  1.0000
  H   H597      1.0  0.15258  0.48198  0.44028  1.0000
  C   C754      1.0  0.49100  0.47791  0.42702  1.0000
  H   H598      1.0  0.36101  0.31228  0.39260  1.0000
  H   H599      1.0  0.01890  0.13235  0.57039  1.0000
  C   C755      1.0  0.21373  0.02753  0.46661  1.0000
  C   C756      1.0  0.01564  0.01255  0.44375  1.0000
  H   H600      1.0  0.08427  0.23242  0.54286  1.0000
  H   H601      1.0  0.19074  0.01649  0.56779  1.0000
  C   C757      1.0  0.44711  0.48145  0.54550  1.0000
  C   C758      1.0  0.45428  0.48175  0.51598  1.0000
  C   C759      1.0  0.17158  0.43319  0.42940  1.0000
  H   H602      1.0  0.01880  0.02317  0.51239  1.0000
  C   C760      1.0  0.21490  0.40804  0.45479  1.0000
  C   C761      1.0  0.49291  0.13180  0.54305  1.0000
  C   C762      1.0  0.01296  0.31057  0.55259  1.0000
  P   P27       1.0  0.48097  0.19358  0.55152  1.0000
  H   H603      1.0  0.08627  0.19297  0.44406  1.0000
  H   H604      1.0  0.31747  0.05510  0.45591  1.0000
  C   C763      1.0  0.27382  0.02005  0.45894  1.0000
  C   C764      1.0  0.33109  0.47229  0.41134  1.0000
  H   H605      1.0  0.36953  0.10875  0.40814  1.0000
  H   H606      1.0  0.04470  0.14718  0.44605  1.0000
  H   H607      1.0  0.16522  0.44577  0.45263  1.0000
  H   H608      1.0  0.21503  0.42317  0.41446  1.0000
  H   H609      1.0  0.41198  0.00992  0.54478  1.0000
  C   C765      1.0  0.13760  0.11791  0.41995  1.0000
  H   H610      1.0  0.37749  0.47086  0.57383  1.0000
  C   C766      1.0  0.46402  0.43523  0.57067  1.0000
  C   C767      1.0  0.06320  0.47938  0.49793  1.0000
  C   C768      1.0  0.44415  0.18007  0.56896  1.0000
  C   C769      1.0  0.10819  0.03466  0.55750  1.0000
  C   C770      1.0  0.41616  0.47421  0.58083  1.0000
  C   C771      1.0  0.08321  0.45219  0.51535  1.0000
  C   C772      1.0  0.06883  0.45799  0.50407  1.0000
  C   C773      1.0  0.39936  0.44412  0.56548  1.0000
  H   H611      1.0  0.40696  0.23144  0.40167  1.0000
  C   C774      1.0  0.07217  0.49484  0.50326  1.0000
  H   H612      1.0  0.48251  0.42051  0.51745  1.0000
  C   C775      1.0  0.23173  0.37658  0.39940  1.0000
  P   P28       1.0  0.42059  0.46490  0.46466  1.0000
  H   H613      1.0  0.05194  0.44684  0.46844  1.0000
  C   C776      1.0  0.02768  0.27122  0.56983  1.0000
  H   H614      1.0  0.21905  0.40731  0.49521  1.0000
  C   C777      1.0  0.00200  0.31973  0.45101  1.0000
  C   C778      1.0  0.21538  0.40677  0.41304  1.0000
  C   C779      1.0  0.10747  0.01962  0.45388  1.0000
  C   C780      1.0  0.06662  0.18632  0.46701  1.0000
  C   C781      1.0  0.46712  0.10109  0.45727  1.0000
  H   H615      1.0  0.08723  0.01745  0.57531  1.0000
  C   C782      1.0  0.44349  0.17125  0.40894  1.0000
  H   H616      1.0  0.13155  0.11458  0.39588  1.0000
  C   C783      1.0  0.33651  0.49357  0.46821  1.0000
  C   C784      1.0  0.21234  0.04869  0.43459  1.0000
  H   H617      1.0  0.08787  0.43562  0.51978  1.0000
  H   H618      1.0  0.06265  0.44565  0.49985  1.0000
  C   C785      1.0  0.01315  0.20519  0.51665  1.0000
  C   C786      1.0  0.42093  0.00117  0.58456  1.0000
  C   C787      1.0  0.23121  0.48699  0.55698  1.0000
  C   C788      1.0  0.08763  0.00547  0.43715  1.0000
  H   H619      1.0  0.37420  0.21587  0.41185  1.0000
  H   H620      1.0  0.43884  0.23888  0.51097  1.0000
  C   C789      1.0  0.44253  0.43368  0.57491  1.0000
  H   H621      1.0  0.21403  0.01990  0.47919  1.0000
  C   C790      1.0  0.04347  0.16057  0.46810  1.0000
  H   H622      1.0  0.03347  0.25608  0.57644  1.0000
  H   H623      1.0  0.25230  0.04773  0.46568  1.0000
  H   H624      1.0  0.10409  0.46291  0.52861  1.0000
  C   C791      1.0  0.06803  0.48799  0.43268  1.0000
  H   H625      1.0  0.99902  0.19442  0.48138  1.0000
  C   C792      1.0  0.38281  0.45788  0.50938  1.0000
  C   C793      1.0  0.02182  0.24920  0.51065  1.0000
  C   C794      1.0  0.18118  0.40646  0.47178  1.0000
  H   H626      1.0  0.23985  0.48921  0.39004  1.0000
  C   C795      1.0  0.24208  0.48446  0.46264  1.0000
  C   C796      1.0  0.10065  0.14748  0.42117  1.0000
  C   C797      1.0  0.31071  0.02432  0.45403  1.0000
  H   H627      1.0  0.03938  0.11156  0.41047  1.0000
  H   H628      1.0  0.37594  0.46736  0.51905  1.0000
  H   H629      1.0  0.02607  0.08984  0.55541  1.0000
  H   H630      1.0  0.10720  0.39604  0.44129  1.0000
  C   C798      1.0  0.37837  0.11791  0.49267  1.0000
  C   C799      1.0  0.37079  0.11626  0.47823  1.0000
  C   C800      1.0  0.37966  0.12613  0.46309  1.0000
  C   C801      1.0  0.39630  0.13736  0.46236  1.0000
  C   C802      1.0  0.40418  0.13892  0.47678  1.0000
  C   C803      1.0  0.39495  0.12925  0.49198  1.0000
  P   P29       1.0  0.42746  0.15104  0.47535  1.0000
  C   C804      1.0  0.42861  0.15955  0.49482  1.0000
  C   C805      1.0  0.45045  0.13210  0.47007  1.0000
  C   C806      1.0  0.46988  0.13399  0.47441  1.0000
  C   C807      1.0  0.44925  0.11561  0.46134  1.0000
  C   C808      1.0  0.42136  0.18059  0.49753  1.0000
  C   C809      1.0  0.42166  0.18673  0.51286  1.0000
  C   C810      1.0  0.42905  0.17193  0.52562  1.0000
  C   C811      1.0  0.43632  0.15100  0.52301  1.0000
  C   C812      1.0  0.43629  0.14490  0.50764  1.0000
  C   C813      1.0  0.42660  0.17392  0.45971  1.0000
  C   C814      1.0  0.40732  0.18657  0.45713  1.0000
  C   C815      1.0  0.40676  0.20486  0.44555  1.0000
  C   C816      1.0  0.42541  0.21076  0.43662  1.0000
  C   C817      1.0  0.08273  0.19206  0.41131  1.0000
  C   C818      1.0  0.44522  0.17986  0.45056  1.0000
  H   H631      1.0  0.37189  0.10981  0.50438  1.0000
  H   H632      1.0  0.35833  0.10699  0.47873  1.0000
  H   H633      1.0  0.37411  0.12457  0.45181  1.0000
  H   H634      1.0  0.40347  0.14426  0.45044  1.0000
  H   H635      1.0  0.40096  0.12965  0.50329  1.0000
  H   H636      1.0  0.47129  0.14681  0.48084  1.0000
  H   H637      1.0  0.43466  0.11390  0.45751  1.0000
  H   H638      1.0  0.41529  0.19227  0.48793  1.0000
  H   H639      1.0  0.41590  0.20293  0.51491  1.0000
  H   H640      1.0  0.42891  0.17661  0.53758  1.0000
  H   H641      1.0  0.44159  0.13928  0.53298  1.0000
  H   H642      1.0  0.44184  0.12858  0.50588  1.0000
  H   H643      1.0  0.39277  0.18239  0.46415  1.0000
  H   H644      1.0  0.39188  0.21452  0.44353  1.0000
  H   H645      1.0  0.42501  0.22495  0.42768  1.0000
  H   H646      1.0  0.17617  0.36688  0.45983  1.0000
  C   C819      1.0  0.23435  0.48250  0.40247  1.0000
  H   H647      1.0  0.11858  0.02054  0.55422  1.0000
  H   H648      1.0  0.45996  0.22686  0.57137  1.0000
  C   C820      1.0  0.07423  0.18389  0.45060  1.0000
  S   S109      1.0  0.02780  0.28009  0.40934  1.0000
  H   H649      1.0  0.04775  0.30347  0.42722  1.0000
  C   C821      1.0  0.00334  0.19183  0.49366  1.0000
  C   C822      1.0  0.26633  0.07260  0.41660  1.0000
  P   P30       1.0  0.06283  0.09475  0.56998  1.0000
  C   C823      1.0  0.48039  0.49576  0.41819  1.0000
  H   H650      1.0  0.47313  0.06874  0.49292  1.0000
  C   C824      1.0  0.21403  0.48278  0.53394  1.0000
  C   C825      1.0  0.30528  0.04529  0.45703  1.0000
  C   C826      1.0  0.34935  0.01805  0.38618  1.0000
  C   C827      1.0  0.15680  0.47450  0.41563  1.0000
  H   H651      1.0  0.44064  0.18818  0.40537  1.0000
  H   H652      1.0  0.22467  0.40875  0.44297  1.0000
  C   C828      1.0  0.16133  0.37320  0.45540  1.0000
  Fe  Fe53      1.0  0.48371  0.21023  0.39611  1.0000
  H   H653      1.0  0.34593  0.45699  0.57094  1.0000
  P   P31       1.0  0.29892  0.49000  0.43382  1.0000
  C   C829      1.0  0.09213  0.23229  0.39713  1.0000
  C   C830      1.0  0.30170  0.45293  0.41978  1.0000
  C   C831      1.0  0.31170  0.43763  0.40986  1.0000
  C   C832      1.0  0.33144  0.43956  0.40079  1.0000
  C   C833      1.0  0.34101  0.45702  0.40138  1.0000
  C   C834      1.0  0.35197  0.04564  0.58418  1.0000
  C   C835      1.0  0.28422  0.05356  0.46138  1.0000
  C   C836      1.0  0.28175  0.46003  0.45809  1.0000
  C   C837      1.0  0.03302  0.28272  0.48659  1.0000
  C   C838      1.0  0.03390  0.01317  0.45029  1.0000
  C   C839      1.0  0.39956  0.49493  0.42180  1.0000
  H   H654      1.0  0.05658  0.16495  0.53536  1.0000
  C   C840      1.0  0.01866  0.23911  0.44992  1.0000
  H   H655      1.0  0.48704  0.47472  0.44025  1.0000
  C   C841      1.0  0.48872  0.19787  0.51720  1.0000
  C   C842      1.0  0.49750  0.44599  0.52141  1.0000
  C   C843      1.0  0.48635  0.10302  0.46170  1.0000
  C   C844      1.0  0.07245  0.10768  0.58434  1.0000
  H   H656      1.0  0.28598  0.45156  0.42603  1.0000
  H   H657      1.0  0.30374  0.42469  0.40871  1.0000
  H   H658      1.0  0.36473  0.18934  0.39733  1.0000
  H   H659      1.0  0.18349  0.04599  0.47272  1.0000
  H   H660      1.0  0.47450  0.40187  0.47438  1.0000
  S   S110      1.0  0.41493  0.09335  0.57921  1.0000
  H   H661      1.0  0.00918  0.15265  0.52574  1.0000
  C   C845      1.0  0.14393  0.36285  0.46142  1.0000
  C   C846      1.0  0.45265  0.22726  0.51273  1.0000
  C   C847      1.0  0.01354  0.18483  0.52567  1.0000
  H   H662      1.0  0.34700  0.05389  0.57274  1.0000
  H   H663      1.0  0.05865  0.14151  0.56152  1.0000
  H   H664      1.0  0.28008  0.06975  0.46391  1.0000
  H   H665      1.0  0.42804  0.00138  0.38806  1.0000
  H   H666      1.0  0.34956  0.00152  0.55065  1.0000
  P   P32       1.0  0.25352  0.00429  0.45878  1.0000
  C   C848      1.0  0.42501  0.18255  0.57936  1.0000
  C   C849      1.0  0.05929  0.11784  0.52147  1.0000
  C   C850      1.0  0.27803  0.48004  0.44865  1.0000
  H   H667      1.0  0.18647  0.06353  0.39063  1.0000
  H   H668      1.0  0.03394  0.32466  0.45017  1.0000
  C   C851      1.0  0.33289  0.14841  0.39374  1.0000
  H   H669      1.0  0.18230  0.06487  0.44431  1.0000
  C   C852      1.0  0.41003  0.00687  0.57102  1.0000
  C   C853      1.0  0.32054  0.48885  0.46067  1.0000
  S   S111      1.0  0.99911  0.34458  0.50859  1.0000
  C   C854      1.0  0.07266  0.23024  0.40661  1.0000
  H   H670      1.0  0.24535  0.48764  0.56195  1.0000
  C   C855      1.0  0.03868  0.24568  0.49801  1.0000
  H   H671      1.0  0.29652  0.02819  0.39736  1.0000
  C   C856      1.0  0.05800  0.13964  0.52109  1.0000
  C   C857      1.0  0.26200  0.06792  0.40179  1.0000
  H   H672      1.0  0.37542  0.48802  0.40967  1.0000
  S   S112      1.0  0.48533  0.17551  0.40723  1.0000
  C   C858      1.0  0.09051  0.03294  0.56937  1.0000
  C   C859      1.0  0.10678  0.21430  0.39446  1.0000
  H   H673      1.0  0.39825  0.48255  0.49468  1.0000
  H   H674      1.0  0.09128  0.49167  0.47195  1.0000
  H   H675      1.0  0.06149  0.08748  0.53643  1.0000
  C   C860      1.0  0.44080  0.46689  0.51711  1.0000
  C   C861      1.0  0.31308  0.02813  0.39741  1.0000
  H   H676      1.0  0.01455  0.14372  0.43340  1.0000
  H   H677      1.0  0.37251  0.02913  0.39721  1.0000
  H   H678      1.0  0.05918  0.11131  0.51029  1.0000
  H   H679      1.0  0.03312  0.23578  0.44167  1.0000
  C   C862      1.0  0.35599  0.02864  0.39747  1.0000
  C   C863      1.0  0.34128  0.12958  0.40275  1.0000
  C   C864      1.0  0.46534  0.03772  0.49298  1.0000
  H   H680      1.0  0.00322  0.48345  0.49848  1.0000
  C   C865      1.0  0.02254  0.08659  0.56867  1.0000
  S   S113      1.0  0.00720  0.11909  0.46508  1.0000
  C   C866      1.0  0.19289  0.00589  0.43071  1.0000
  C   C867      1.0  0.12604  0.00853  0.44664  1.0000
  H   H681      1.0  0.33893  0.42798  0.39278  1.0000
  C   C868      1.0  0.21182  0.48904  0.56709  1.0000
  H   H682      1.0  0.49499  0.20130  0.49067  1.0000
  C   C869      1.0  0.16318  0.45863  0.40556  1.0000
  Fe  Fe54      1.0  0.46863  0.05704  0.57436  1.0000
  H   H683      1.0  0.26882  0.43716  0.47723  1.0000
  C   C870      1.0  0.06081  0.11254  0.55093  1.0000
  C   C871      1.0  0.01760  0.29566  0.42514  1.0000
  C   C872      1.0  0.00213  0.15275  0.44070  1.0000
  H   H684      1.0  0.24219  0.40713  0.39411  1.0000
  H   H685      1.0  0.04579  0.19267  0.57668  1.0000
  C   C873      1.0  0.03629  0.22065  0.53944  1.0000
  Fe  Fe55      1.0  0.00193  0.37887  0.50664  1.0000
  H   H686      1.0  0.07866  0.20822  0.56907  1.0000
  C   C874      1.0  0.31849  0.49727  0.44420  1.0000
  H   H687      1.0  0.06169  0.48679  0.42167  1.0000
  H   H688      1.0  0.46300  0.22731  0.48670  1.0000
  H   H689      1.0  0.01653  0.18175  0.53831  1.0000
  C   C875      1.0  0.08081  0.07120  0.56543  1.0000
  C   C876      1.0  0.00487  0.03112  0.43612  1.0000
  H   H690      1.0  0.14082  0.00958  0.45051  1.0000
  C   C877      1.0  0.12011  0.48451  0.57163  1.0000
  C   C878      1.0  0.19461  0.48503  0.54401  1.0000
  C   C879      1.0  0.08808  0.01816  0.44925  1.0000
  H   H691      1.0  0.49177  0.42673  0.48699  1.0000
  C   C880      1.0  0.01037  0.26963  0.51088  1.0000
  C   C881      1.0  0.04864  0.00308  0.51299  1.0000
  C   C882      1.0  0.21717  0.36450  0.40901  1.0000
  H   H692      1.0  0.48313  0.13126  0.41685  1.0000
  H   H693      1.0  0.38403  0.40154  0.55399  1.0000
  C   C883      1.0  0.08444  0.49071  0.46115  1.0000
  Fe  Fe56      1.0  0.49178  0.25417  0.40147  1.0000
  C   C884      1.0  0.07682  0.05111  0.57332  1.0000
  Fe  Fe57      1.0  0.00596  0.26177  0.40091  1.0000
  H   H694      1.0  0.15175  0.49062  0.41031  1.0000
  H   H695      1.0  0.40457  0.49941  0.56249  1.0000
  H   H696      1.0  0.09564  0.24784  0.39153  1.0000
  C   C885      1.0  0.07314  0.00576  0.48775  1.0000
  H   H697      1.0  0.12709  0.48321  0.54553  1.0000
  C   C886      1.0  0.37938  0.45581  0.56932  1.0000
  H   H698      1.0  0.07302  0.00413  0.43320  1.0000
  H   H699      1.0  0.41612  0.41536  0.55661  1.0000
  C   C887      1.0  0.40089  0.42458  0.55977  1.0000
  C   C888      1.0  0.38446  0.21081  0.40114  1.0000
  H   H700      1.0  0.39298  0.12998  0.38899  1.0000
  C   C889      1.0  0.48811  0.47710  0.58063  1.0000
  C   C890      1.0  0.48773  0.11947  0.47026  1.0000
  H   H701      1.0  0.38091  0.05883  0.58032  1.0000
  C   C891      1.0  0.36296  0.42844  0.56215  1.0000
  C   C892      1.0  0.40703  0.49487  0.57523  1.0000
  H   H702      1.0  0.49574  0.42037  0.57334  1.0000
  H   H703      1.0  0.34886  0.42232  0.56114  1.0000
  H   H704      1.0  0.49075  0.40413  0.44524  1.0000
  C   C893      1.0  0.21821  0.49411  0.41225  1.0000
  C   C894      1.0  0.37915  0.19577  0.39285  1.0000
  C   C895      1.0  0.47918  0.41909  0.57668  1.0000
  C   C896      1.0  0.08914  0.49017  0.43169  1.0000
  C   C897      1.0  0.48430  0.20610  0.50129  1.0000
  H   H705      1.0  0.03879  0.48539  0.44846  1.0000
  H   H706      1.0  0.10456  0.09176  0.58049  1.0000
  H   H707      1.0  0.17517  0.01202  0.39657  1.0000
  H   H708      1.0  0.99838  0.12332  0.55064  1.0000
  H   H709      1.0  0.06304  0.04937  0.58234  1.0000
  H   H710      1.0  0.29245  0.49563  0.51442  1.0000
  H   H711      1.0  0.36780  0.07478  0.38896  1.0000
  H   H712      1.0  0.99942  0.42088  0.44719  1.0000
  H   H713      1.0  0.07785  0.07469  0.38841  1.0000
  H   H714      1.0  0.99824  0.17912  0.42126  1.0000
  H   H715      1.0  0.37576  0.00027  0.42437  1.0000
  C   C898      1.0  0.17423  0.00231  0.38734  1.0000
  C   C899      1.0  0.19454  0.04566  0.62537  1.0000
  C   C900      1.0  0.19761  0.09080  0.67095  1.0000
  S   S114      1.0  0.03517  0.19497  0.65538  1.0000
  H   H716      1.0  0.09255  0.13713  0.61451  1.0000
  C   C901      1.0  0.00206  0.27686  0.68074  1.0000
  C   C902      1.0  0.13992  0.31025  0.68836  1.0000
  C   C903      1.0  0.22912  0.08338  0.62549  1.0000
  Fe  Fe58      1.0  0.11544  0.23127  0.70123  1.0000
  S   S115      1.0  0.12509  0.19811  0.71351  1.0000
  S   S116      1.0  0.10004  0.24331  0.67818  1.0000
  Fe  Fe59      1.0  0.13040  0.25167  0.72716  1.0000
  S   S117      1.0  0.14103  0.22042  0.74170  1.0000
  S   S118      1.0  0.13019  0.28398  0.73416  1.0000
  Fe  Fe60      1.0  0.15414  0.21012  0.71706  1.0000
  S   S119      1.0  0.18782  0.19416  0.71364  1.0000
  Fe  Fe61      1.0  0.11125  0.21108  0.73719  1.0000
  S   S120      1.0  0.08990  0.19494  0.75768  1.0000
  S   S121      1.0  0.14581  0.24231  0.70279  1.0000
  S   S122      1.0  0.09948  0.24305  0.72468  1.0000
  Fe  Fe62      1.0  0.40201  0.22878  0.74201  1.0000
  S   S123      1.0  0.41429  0.19680  0.75450  1.0000
  S   S124      1.0  0.42391  0.24791  0.72438  1.0000
  Fe  Fe63      1.0  0.35921  0.22956  0.76203  1.0000
  H   H717      1.0  0.15210  0.09652  0.76359  1.0000
  S   S125      1.0  0.32611  0.24650  0.76719  1.0000
  H   H718      1.0  0.17785  0.02744  0.75142  1.0000
  Fe  Fe64      1.0  0.38325  0.18799  0.75207  1.0000
  S   S126      1.0  0.38249  0.15517  0.74632  1.0000
  S   S127      1.0  0.38811  0.24143  0.76561  1.0000
  S   S128      1.0  0.37233  0.21914  0.73740  1.0000
  Fe  Fe65      1.0  0.46458  0.23983  0.63782  1.0000
  S   S129      1.0  0.43049  0.24125  0.64855  1.0000
  S   S130      1.0  0.47713  0.23328  0.61205  1.0000
  Fe  Fe66      1.0  0.22417  0.33502  0.74837  1.0000
  S   S131      1.0  0.24703  0.34556  0.72657  1.0000
  S   S132      1.0  0.21599  0.30203  0.75097  1.0000
  Fe  Fe67      1.0  0.22406  0.37403  0.76478  1.0000
  S   S133      1.0  0.24717  0.38754  0.74441  1.0000
  C   C904      1.0  0.48730  0.18681  0.73872  1.0000
  Fe  Fe68      1.0  0.22829  0.37798  0.72728  1.0000
  S   S134      1.0  0.21585  0.39886  0.70512  1.0000
  Fe  Fe69      1.0  0.26416  0.35395  0.74531  1.0000
  S   S135      1.0  0.29948  0.34426  0.74338  1.0000
  S   S136      1.0  0.20379  0.36663  0.74765  1.0000
  S   S137      1.0  0.24252  0.34137  0.76712  1.0000
  Fe  Fe70      1.0  0.24437  0.08620  0.73874  1.0000
  S   S138      1.0  0.26774  0.09808  0.71804  1.0000
  S   S139      1.0  0.20964  0.09575  0.73758  1.0000
  Fe  Fe71      1.0  0.27769  0.06188  0.75894  1.0000
  S   S140      1.0  0.30417  0.07222  0.73975  1.0000
  Fe  Fe72      1.0  0.28446  0.10425  0.73793  1.0000
  S   S141      1.0  0.29460  0.13666  0.73366  1.0000
  Fe  Fe73      1.0  0.28568  0.06529  0.72119  1.0000
  S   S142      1.0  0.30279  0.05118  0.69852  1.0000
  S   S143      1.0  0.25951  0.09476  0.75861  1.0000
  S   S144      1.0  0.26087  0.05253  0.74026  1.0000
  S   S145      1.0  0.27427  0.44689  0.64714  1.0000
  H   H719      1.0  0.02643  0.17956  0.75252  1.0000
  C   C905      1.0  0.37871  0.19561  0.64607  1.0000
  C   C906      1.0  0.22287  0.28546  0.70645  1.0000
  H   H720      1.0  0.27005  0.43860  0.76090  1.0000
  H   H721      1.0  0.38674  0.21872  0.62518  1.0000
  H   H722      1.0  0.45786  0.11111  0.62922  1.0000
  H   H723      1.0  0.25238  0.06751  0.68362  1.0000
  C   C907      1.0  0.07391  0.28596  0.69851  1.0000
  S   S146      1.0  0.26202  0.01740  0.61454  1.0000
  C   C908      1.0  0.28999  0.03620  0.68842  1.0000
  C   C909      1.0  0.27120  0.02903  0.69584  1.0000
  C   C910      1.0  0.26145  0.01698  0.68757  1.0000
  C   C911      1.0  0.27032  0.01209  0.67182  1.0000
  C   C912      1.0  0.28909  0.01929  0.66437  1.0000
  C   C913      1.0  0.29896  0.03119  0.67272  1.0000
  H   H724      1.0  0.26416  0.03280  0.70792  1.0000
  C   C914      1.0  0.19287  0.02659  0.75560  1.0000
  C   C915      1.0  0.08123  0.23265  0.77024  1.0000
  H   H725      1.0  0.31354  0.03662  0.66695  1.0000
  C   C916      1.0  0.36757  0.12968  0.70124  1.0000
  C   C917      1.0  0.45518  0.16119  0.60866  1.0000
  H   H726      1.0  0.06140  0.16539  0.73858  1.0000
  H   H727      1.0  0.28332  0.46336  0.70442  1.0000
  H   H728      1.0  0.11129  0.15871  0.73397  1.0000
  C   C918      1.0  0.24946  0.46892  0.71079  1.0000
  C   C919      1.0  0.00760  0.23881  0.68186  1.0000
  C   C920      1.0  0.23226  0.41269  0.68945  1.0000
  C   C921      1.0  0.22312  0.42797  0.67760  1.0000
  C   C922      1.0  0.23572  0.43880  0.66466  1.0000
  C   C923      1.0  0.25761  0.43437  0.66347  1.0000
  C   C924      1.0  0.26672  0.41927  0.67547  1.0000
  C   C925      1.0  0.25412  0.40850  0.68842  1.0000
  H   H729      1.0  0.20622  0.43142  0.67838  1.0000
  H   H730      1.0  0.22854  0.45043  0.65554  1.0000
  H   H731      1.0  0.28364  0.41582  0.67465  1.0000
  H   H732      1.0  0.26130  0.39679  0.69749  1.0000
  C   C926      1.0  0.18492  0.39431  0.66955  1.0000
  C   C927      1.0  0.37749  0.03816  0.60336  1.0000
  H   H733      1.0  0.22672  0.45360  0.76608  1.0000
  C   C928      1.0  0.18121  0.35724  0.67789  1.0000
  S   S147      1.0  0.02650  0.21427  0.60765  1.0000
  C   C929      1.0  0.40812  0.17222  0.65694  1.0000
  C   C930      1.0  0.12030  0.14515  0.74039  1.0000
  C   C931      1.0  0.18865  0.29488  0.69752  1.0000
  C   C932      1.0  0.20033  0.43855  0.76518  1.0000
  C   C933      1.0  0.47004  0.17189  0.61295  1.0000
  C   C934      1.0  0.31946  0.27380  0.76077  1.0000
  C   C935      1.0  0.33470  0.28712  0.75535  1.0000
  C   C936      1.0  0.32853  0.30878  0.75001  1.0000
  C   C937      1.0  0.30718  0.31716  0.75019  1.0000
  C   C938      1.0  0.29210  0.30379  0.75574  1.0000
  C   C939      1.0  0.29820  0.28225  0.76103  1.0000
  H   H734      1.0  0.35115  0.28073  0.75519  1.0000
  H   H735      1.0  0.34027  0.31905  0.74581  1.0000
  H   H736      1.0  0.27566  0.31002  0.75597  1.0000
  C   C940      1.0  0.28674  0.16970  0.76684  1.0000
  C   C941      1.0  0.35806  0.14997  0.74291  1.0000
  C   C942      1.0  0.34311  0.16637  0.73701  1.0000
  C   C943      1.0  0.32393  0.16193  0.73393  1.0000
  C   C944      1.0  0.31928  0.14116  0.73715  1.0000
  C   C945      1.0  0.33426  0.12470  0.74298  1.0000
  C   C946      1.0  0.35371  0.12909  0.74568  1.0000
  H   H737      1.0  0.34636  0.18248  0.73477  1.0000
  H   H738      1.0  0.31250  0.17476  0.72939  1.0000
  H   H739      1.0  0.33087  0.10863  0.74540  1.0000
  H   H740      1.0  0.36530  0.11631  0.75014  1.0000
  C   C947      1.0  0.42486  0.24636  0.70334  1.0000
  C   C948      1.0  0.40838  0.24028  0.69723  1.0000
  C   C949      1.0  0.40990  0.23902  0.68031  1.0000
  C   C950      1.0  0.42801  0.24351  0.66958  1.0000
  C   C951      1.0  0.44438  0.24959  0.67575  1.0000
  C   C952      1.0  0.44269  0.25123  0.69250  1.0000
  H   H741      1.0  0.39453  0.23652  0.70549  1.0000
  H   H742      1.0  0.39731  0.23411  0.67559  1.0000
  H   H743      1.0  0.45844  0.25300  0.66763  1.0000
  H   H744      1.0  0.45556  0.25571  0.69711  1.0000
  C   C953      1.0  0.19346  0.16665  0.71978  1.0000
  C   C954      1.0  0.21372  0.15800  0.72325  1.0000
  C   C955      1.0  0.21869  0.13633  0.72879  1.0000
  C   C956      1.0  0.20351  0.12302  0.73063  1.0000
  C   C957      1.0  0.18330  0.13158  0.72694  1.0000
  C   C958      1.0  0.17818  0.15340  0.72168  1.0000
  H   H745      1.0  0.22541  0.16822  0.72224  1.0000
  H   H746      1.0  0.23422  0.13005  0.73186  1.0000
  H   H747      1.0  0.17165  0.12131  0.72805  1.0000
  H   H748      1.0  0.16251  0.15991  0.71902  1.0000
  C   C959      1.0  0.15427  0.28907  0.73831  1.0000
  C   C960      1.0  0.17181  0.27331  0.73842  1.0000
  C   C961      1.0  0.19064  0.27755  0.74235  1.0000
  C   C962      1.0  0.19219  0.29763  0.74581  1.0000
  C   C963      1.0  0.17470  0.31342  0.74561  1.0000
  C   C964      1.0  0.15569  0.30904  0.74208  1.0000
  H   H749      1.0  0.17086  0.25788  0.73548  1.0000
  H   H750      1.0  0.20424  0.26542  0.74239  1.0000
  H   H751      1.0  0.17572  0.32882  0.74854  1.0000
  H   H752      1.0  0.14203  0.32110  0.74237  1.0000
  C   C965      1.0  0.07529  0.21284  0.77062  1.0000
  C   C966      1.0  0.43729  0.14449  0.76194  1.0000
  C   C967      1.0  0.01514  0.23657  0.69695  1.0000
  H   H753      1.0  0.31551  0.16757  0.77694  1.0000
  C   C968      1.0  0.25373  0.47891  0.74286  1.0000
  H   H754      1.0  0.09476  0.23715  0.76189  1.0000
  H   H755      1.0  0.48203  0.22013  0.69576  1.0000
  Fe  Fe74      1.0  0.28510  0.49740  0.59500  1.0000
  C   C969      1.0  0.33916  0.03226  0.59463  1.0000
  C   C970      1.0  0.48272  0.13369  0.59980  1.0000
  C   C971      1.0  0.05280  0.20898  0.66162  1.0000
  C   C972      1.0  0.05531  0.22964  0.65446  1.0000
  C   C973      1.0  0.06973  0.24007  0.65973  1.0000
  C   C974      1.0  0.08171  0.22993  0.67216  1.0000
  C   C975      1.0  0.07911  0.20933  0.67933  1.0000
  C   C976      1.0  0.06462  0.19897  0.67416  1.0000
  H   H756      1.0  0.04626  0.23752  0.64481  1.0000
  H   H757      1.0  0.07171  0.25599  0.65406  1.0000
  H   H758      1.0  0.08857  0.20126  0.68863  1.0000
  H   H759      1.0  0.06277  0.18298  0.67975  1.0000
  C   C977      1.0  0.17564  0.16163  0.76260  1.0000
  C   C978      1.0  0.19316  0.17209  0.75921  1.0000
  H   H760      1.0  0.10790  0.32753  0.76365  1.0000
  H   H761      1.0  0.42345  0.16433  0.72914  1.0000
  H   H762      1.0  0.16376  0.16601  0.75451  1.0000
  H   H763      1.0  0.19460  0.18402  0.74853  1.0000
  H   H764      1.0  0.32633  0.01238  0.73640  1.0000
  H   H765      1.0  0.13433  0.28486  0.77074  1.0000
  C   C979      1.0  0.07969  0.29483  0.71101  1.0000
  H   H766      1.0  0.22620  0.08831  0.70220  1.0000
  H   H767      1.0  0.40410  0.20233  0.59536  1.0000
  C   C980      1.0  0.20261  0.09407  0.68600  1.0000
  S   S148      1.0  0.45272  0.06546  0.59913  1.0000
  C   C981      1.0  0.47679  0.26160  0.75594  1.0000
  C   C982      1.0  0.39093  0.11821  0.62152  1.0000
  H   H768      1.0  0.21172  0.40070  0.65164  1.0000
  H   H769      1.0  0.24691  0.01151  0.69337  1.0000
  C   C983      1.0  0.41907  0.46884  0.59746  1.0000
  H   H770      1.0  0.17970  0.41082  0.67088  1.0000
  H   H771      1.0  0.19831  0.11824  0.62038  1.0000
  C   C984      1.0  0.18307  0.09315  0.63563  1.0000
  C   C985      1.0  0.03860  0.22475  0.72813  1.0000
  C   C986      1.0  0.02698  0.21117  0.73961  1.0000
  C   C987      1.0  0.03520  0.18984  0.74340  1.0000
  C   C988      1.0  0.05482  0.18181  0.73547  1.0000
  C   C989      1.0  0.49172  0.18932  0.70884  1.0000
  H   H772      1.0  0.18680  0.02219  0.61265  1.0000
  H   H773      1.0  0.31316  0.00624  0.76626  1.0000
  C   C990      1.0  0.23662  0.49237  0.74994  1.0000
  H   H774      1.0  0.27824  0.09829  0.59521  1.0000
  C   C991      1.0  0.46083  0.13363  0.66911  1.0000
  H   H775      1.0  0.01156  0.21695  0.74564  1.0000
  H   H776      1.0  0.46206  0.13973  0.68023  1.0000
  C   C992      1.0  0.09359  0.10325  0.58689  1.0000
  C   C993      1.0  0.36469  0.02480  0.61383  1.0000
  C   C994      1.0  0.16432  0.49034  0.76898  1.0000
  C   C995      1.0  0.08874  0.31292  0.78483  1.0000
  C   C996      1.0  0.20991  0.36729  0.65708  1.0000
  C   C997      1.0  0.19903  0.35166  0.66658  1.0000
  P   P33       1.0  0.16830  0.33680  0.69108  1.0000
  C   C998      1.0  0.15303  0.34821  0.70864  1.0000
  C   C999      1.0  0.13100  0.34989  0.71135  1.0000
  C   C1000     1.0  0.11932  0.35946  0.72459  1.0000
  C   C1001     1.0  0.12945  0.36769  0.73511  1.0000
  C   C1002     1.0  0.15125  0.36660  0.73227  1.0000
  C   C1003     1.0  0.16299  0.35699  0.71908  1.0000
  C   C1004     1.0  0.15191  0.32583  0.68006  1.0000
  C   C1005     1.0  0.12878  0.30025  0.67971  1.0000
  C   C1006     1.0  0.12884  0.30626  0.66279  1.0000
  C   C1007     1.0  0.14014  0.32225  0.65450  1.0000
  C   C1008     1.0  0.15173  0.33194  0.66306  1.0000
  H   H777      1.0  0.22393  0.36291  0.64865  1.0000
  H   H778      1.0  0.20477  0.33519  0.66538  1.0000
  H   H779      1.0  0.12267  0.34407  0.70326  1.0000
  H   H780      1.0  0.10239  0.36055  0.72663  1.0000
  H   H781      1.0  0.12043  0.37499  0.74540  1.0000
  H   H782      1.0  0.15913  0.37312  0.74033  1.0000
  H   H783      1.0  0.17982  0.35661  0.71707  1.0000
  H   H784      1.0  0.12029  0.29834  0.65611  1.0000
  H   H785      1.0  0.14019  0.32687  0.64136  1.0000
  H   H786      1.0  0.16067  0.34399  0.65632  1.0000
  C   C1009     1.0  0.35956  0.06917  0.66011  1.0000
  C   C1010     1.0  0.35605  0.06048  0.67679  1.0000
  P   P34       1.0  0.34300  0.09262  0.65184  1.0000
  C   C1011     1.0  0.32112  0.08347  0.64580  1.0000
  C   C1012     1.0  0.33440  0.11143  0.66650  1.0000
  C   C1013     1.0  0.34054  0.13168  0.66323  1.0000
  C   C1014     1.0  0.33344  0.14628  0.67437  1.0000
  C   C1015     1.0  0.32035  0.14079  0.68895  1.0000
  C   C1016     1.0  0.31413  0.12083  0.69228  1.0000
  C   C1017     1.0  0.32080  0.10635  0.68105  1.0000
  C   C1018     1.0  0.32489  0.06737  0.63574  1.0000
  C   C1019     1.0  0.43740  0.18717  0.71080  1.0000
  C   C1020     1.0  0.43241  0.30574  0.76693  1.0000
  C   C1021     1.0  0.28360  0.08404  0.64699  1.0000
  C   C1022     1.0  0.30030  0.09208  0.65108  1.0000
  C   C1023     1.0  0.35847  0.10506  0.63399  1.0000
  C   C1024     1.0  0.37881  0.10850  0.63516  1.0000
  C   C1025     1.0  0.21829  0.44750  0.75815  1.0000
  H   H787      1.0  0.19133  0.10338  0.69412  1.0000
  P   P35       1.0  0.49030  0.17173  0.75872  1.0000
  C   C1026     1.0  0.35046  0.11146  0.61898  1.0000
  H   H788      1.0  0.34386  0.06783  0.68534  1.0000
  H   H789      1.0  0.35062  0.13649  0.65207  1.0000
  H   H790      1.0  0.33822  0.16180  0.67179  1.0000
  H   H791      1.0  0.31509  0.15189  0.69779  1.0000
  H   H792      1.0  0.30408  0.11660  0.70362  1.0000
  H   H793      1.0  0.31493  0.09135  0.68363  1.0000
  H   H794      1.0  0.34076  0.06071  0.63121  1.0000
  C   C1027     1.0  0.26442  0.09435  0.60353  1.0000
  S   S149      1.0  0.44177  0.12947  0.59695  1.0000
  H   H795      1.0  0.06705  0.22650  0.71077  1.0000
  H   H796      1.0  0.29675  0.10486  0.65843  1.0000
  H   H797      1.0  0.38531  0.10357  0.64660  1.0000
  H   H798      1.0  0.41551  0.47981  0.62103  1.0000
  H   H799      1.0  0.28465  0.15348  0.77155  1.0000
  C   C1028     1.0  0.40199  0.28882  0.77860  1.0000
  H   H800      1.0  0.33489  0.10889  0.61772  1.0000
  C   C1029     1.0  0.33045  0.25147  0.72086  1.0000
  C   C1030     1.0  0.33558  0.23550  0.71083  1.0000
  C   C1031     1.0  0.34730  0.23926  0.69529  1.0000
  C   C1032     1.0  0.35377  0.25901  0.68974  1.0000
  C   C1033     1.0  0.34858  0.27525  0.69974  1.0000
  C   C1034     1.0  0.33693  0.27118  0.71538  1.0000
  P   P36       1.0  0.35783  0.30058  0.69321  1.0000
  C   C1035     1.0  0.36970  0.30656  0.70973  1.0000
  C   C1036     1.0  0.37718  0.29869  0.67501  1.0000
  C   C1037     1.0  0.39868  0.29724  0.67594  1.0000
  C   C1038     1.0  0.41347  0.29511  0.66184  1.0000
  C   C1039     1.0  0.40700  0.29409  0.64683  1.0000
  C   C1040     1.0  0.38568  0.29536  0.64582  1.0000
  C   C1041     1.0  0.37082  0.29763  0.65984  1.0000
  C   C1042     1.0  0.36858  0.32762  0.71238  1.0000
  C   C1043     1.0  0.37743  0.33218  0.72537  1.0000
  C   C1044     1.0  0.38750  0.31579  0.73576  1.0000
  C   C1045     1.0  0.38891  0.29484  0.73305  1.0000
  C   C1046     1.0  0.38013  0.29021  0.72006  1.0000
  C   C1047     1.0  0.33622  0.32167  0.68939  1.0000
  C   C1048     1.0  0.31878  0.32469  0.70162  1.0000
  C   C1049     1.0  0.30265  0.34166  0.69925  1.0000
  C   C1050     1.0  0.30372  0.35590  0.68470  1.0000
  C   C1051     1.0  0.32120  0.35341  0.67262  1.0000
  C   C1052     1.0  0.33751  0.33657  0.67502  1.0000
  H   H801      1.0  0.32165  0.24853  0.73302  1.0000
  H   H802      1.0  0.33085  0.22011  0.71530  1.0000
  H   H803      1.0  0.35179  0.22671  0.68767  1.0000
  H   H804      1.0  0.36332  0.26114  0.67787  1.0000
  H   H805      1.0  0.33332  0.28296  0.72361  1.0000
  H   H806      1.0  0.40419  0.29715  0.68753  1.0000
  H   H807      1.0  0.43008  0.29333  0.66260  1.0000
  C   C1053     1.0  0.04818  0.26875  0.71837  1.0000
  H   H808      1.0  0.38077  0.29415  0.63423  1.0000
  H   H809      1.0  0.35437  0.29815  0.65893  1.0000
  H   H810      1.0  0.36067  0.34054  0.70456  1.0000
  H   H811      1.0  0.37619  0.34843  0.72751  1.0000
  H   H812      1.0  0.39408  0.31931  0.74596  1.0000
  H   H813      1.0  0.39669  0.28204  0.74104  1.0000
  H   H814      1.0  0.38146  0.27385  0.71816  1.0000
  H   H815      1.0  0.31779  0.31452  0.71329  1.0000
  H   H816      1.0  0.28954  0.34406  0.70893  1.0000
  H   H817      1.0  0.29120  0.36909  0.68294  1.0000
  H   H818      1.0  0.32225  0.36480  0.66151  1.0000
  H   H819      1.0  0.35124  0.33571  0.66579  1.0000
  C   C1054     1.0  0.39922  0.13527  0.68214  1.0000
  S   S150      1.0  0.26713  0.46977  0.60024  1.0000
  H   H820      1.0  0.46208  0.19939  0.78065  1.0000
  C   C1055     1.0  0.47673  0.27078  0.78305  1.0000
  H   H821      1.0  0.40674  0.12055  0.62234  1.0000
  C   C1056     1.0  0.45562  0.15335  0.75584  1.0000
  H   H822      1.0  0.36506  0.03495  0.69553  1.0000
  C   C1057     1.0  0.05779  0.20715  0.78162  1.0000
  H   H823      1.0  0.12048  0.28746  0.68608  1.0000
  H   H824      1.0  0.23699  0.31131  0.71070  1.0000
  H   H825      1.0  0.12991  0.09551  0.64518  1.0000
  H   H826      1.0  0.48043  0.46990  0.59221  1.0000
  C   C1058     1.0  0.45673  0.29948  0.69152  1.0000
  C   C1059     1.0  0.44958  0.29636  0.70841  1.0000
  C   C1060     1.0  0.46374  0.28801  0.71960  1.0000
  H   H827      1.0  0.39299  0.01642  0.67654  1.0000
  C   C1061     1.0  0.09258  0.32323  0.76865  1.0000
  H   H828      1.0  0.08134  0.18880  0.71761  1.0000
  C   C1062     1.0  0.00905  0.26026  0.74010  1.0000
  C   C1063     1.0  0.21230  0.07879  0.66041  1.0000
  C   C1064     1.0  0.10080  0.11377  0.59780  1.0000
  C   C1065     1.0  0.01247  0.07778  0.60286  1.0000
  C   C1066     1.0  0.38377  0.03113  0.67199  1.0000
  H   H829      1.0  0.00730  0.22491  0.67621  1.0000
  C   C1067     1.0  0.20919  0.01148  0.64779  1.0000
  C   C1068     1.0  0.49218  0.28579  0.69694  1.0000
  H   H830      1.0  0.44574  0.30574  0.68287  1.0000
  C   C1069     1.0  0.44233  0.19377  0.69398  1.0000
  H   H831      1.0  0.35476  0.13546  0.71019  1.0000
  C   C1070     1.0  0.01464  0.25536  0.75609  1.0000
  C   C1071     1.0  0.21701  0.04301  0.76668  1.0000
  H   H832      1.0  0.48138  0.00896  0.59352  1.0000
  C   C1072     1.0  0.42627  0.32051  0.77798  1.0000
  S   S151      1.0  0.48386  0.26560  0.63657  1.0000
  H   H833      1.0  0.48358  0.29593  0.67266  1.0000
  P   P37       1.0  0.02772  0.25213  0.72282  1.0000
  H   H834      1.0  0.16016  0.38359  0.68750  1.0000
  C   C1073     1.0  0.30416  0.17758  0.76981  1.0000
  C   C1074     1.0  0.42023  0.28992  0.76720  1.0000
  H   H835      1.0  0.27460  0.06126  0.63424  1.0000
  C   C1075     1.0  0.38641  0.17907  0.65762  1.0000
  H   H836      1.0  0.24510  0.40839  0.77914  1.0000
  Fe  Fe75      1.0  0.39800  0.20852  0.77789  1.0000
  C   C1076     1.0  0.19304  0.02504  0.62327  1.0000
  C   C1077     1.0  0.22231  0.08561  0.69058  1.0000
  C   C1078     1.0  0.45174  0.39984  0.59166  1.0000
  C   C1079     1.0  0.06596  0.13330  0.60368  1.0000
  H   H837      1.0  0.20805  0.33864  0.70265  1.0000
  H   H838      1.0  0.42833  0.13983  0.75362  1.0000
  H   H839      1.0  0.41481  0.14438  0.70918  1.0000
  H   H840      1.0  0.43872  0.16762  0.61067  1.0000
  C   C1080     1.0  0.42191  0.18199  0.64437  1.0000
  C   C1081     1.0  0.18910  0.31643  0.69792  1.0000
  C   C1082     1.0  0.20373  0.04934  0.63860  1.0000
  C   C1083     1.0  0.21092  0.03208  0.64989  1.0000
  H   H841      1.0  0.23186  0.05738  0.61134  1.0000
  H   H842      1.0  0.48769  0.11897  0.59474  1.0000
  C   C1084     1.0  0.36270  0.12111  0.60534  1.0000
  C   C1085     1.0  0.05412  0.27778  0.73087  1.0000
  P   P38       1.0  0.41854  0.15220  0.67259  1.0000
  C   C1086     1.0  0.14553  0.12003  0.62999  1.0000
  H   H843      1.0  0.33520  0.35283  0.76582  1.0000
  H   H844      1.0  0.44672  0.30642  0.75829  1.0000
  H   H845      1.0  0.24353  0.06069  0.65740  1.0000
  C   C1087     1.0  0.38575  0.10179  0.68578  1.0000
  C   C1088     1.0  0.46688  0.15986  0.76665  1.0000
  H   H846      1.0  0.45771  0.28612  0.73254  1.0000
  C   C1089     1.0  0.38718  0.03943  0.65534  1.0000
  H   H847      1.0  0.37766  0.06395  0.63635  1.0000
  C   C1090     1.0  0.20542  0.27953  0.70177  1.0000
  C   C1091     1.0  0.40071  0.11470  0.67822  1.0000
  H   H848      1.0  0.07519  0.29656  0.73698  1.0000
  C   C1092     1.0  0.36925  0.10923  0.69736  1.0000
  C   C1093     1.0  0.42996  0.14232  0.77879  1.0000
  H   H849      1.0  0.02978  0.24626  0.75823  1.0000
  H   H850      1.0  0.17570  0.35531  0.77979  1.0000
  H   H851      1.0  0.37541  0.17200  0.66718  1.0000
  H   H852      1.0  0.19500  0.43798  0.77828  1.0000
  S   S152      1.0  0.28450  0.49937  0.62168  1.0000
  C   C1094     1.0  0.23811  0.07123  0.61284  1.0000
  C   C1095     1.0  0.25541  0.10673  0.61590  1.0000
  C   C1096     1.0  0.20685  0.32220  0.70256  1.0000
  H   H853      1.0  0.33577  0.01153  0.61757  1.0000
  C   C1097     1.0  0.05726  0.32082  0.76438  1.0000
  C   C1098     1.0  0.22733  0.00720  0.76000  1.0000
  H   H854      1.0  0.05519  0.14510  0.61001  1.0000
  C   C1099     1.0  0.28603  0.26526  0.70757  1.0000
  C   C1100     1.0  0.27938  0.28305  0.71562  1.0000
  C   C1101     1.0  0.26595  0.28157  0.73053  1.0000
  C   C1102     1.0  0.25904  0.26238  0.73742  1.0000
  C   C1103     1.0  0.26556  0.24440  0.72939  1.0000
  C   C1104     1.0  0.27939  0.24593  0.71453  1.0000
  P   P39       1.0  0.25691  0.21933  0.73797  1.0000
  C   C1105     1.0  0.23262  0.22333  0.75193  1.0000
  C   C1106     1.0  0.25370  0.20712  0.72060  1.0000
  C   C1107     1.0  0.26554  0.18760  0.71741  1.0000
  C   C1108     1.0  0.26303  0.17849  0.70386  1.0000
  C   C1109     1.0  0.24880  0.18891  0.69328  1.0000
  C   C1110     1.0  0.23741  0.20864  0.69605  1.0000
  C   C1111     1.0  0.24007  0.21785  0.70951  1.0000
  C   C1112     1.0  0.23303  0.22913  0.76744  1.0000
  C   C1113     1.0  0.21443  0.23301  0.77827  1.0000
  C   C1114     1.0  0.19531  0.23069  0.77387  1.0000
  C   C1115     1.0  0.19482  0.22428  0.75872  1.0000
  C   C1116     1.0  0.21335  0.22056  0.74778  1.0000
  C   C1117     1.0  0.27570  0.20308  0.75021  1.0000
  C   C1118     1.0  0.29305  0.21103  0.75349  1.0000
  H   H855      1.0  0.42644  0.13191  0.64276  1.0000
  C   C1119     1.0  0.34567  0.02168  0.60941  1.0000
  H   H856      1.0  0.35770  0.09922  0.70333  1.0000
  C   C1120     1.0  0.27247  0.18244  0.75720  1.0000
  H   H857      1.0  0.29663  0.26635  0.69608  1.0000
  H   H858      1.0  0.28456  0.29802  0.71036  1.0000
  H   H859      1.0  0.26057  0.29540  0.73672  1.0000
  H   H860      1.0  0.24838  0.26199  0.74884  1.0000
  H   H861      1.0  0.28501  0.23220  0.70826  1.0000
  H   H862      1.0  0.27666  0.17922  0.72533  1.0000
  H   H863      1.0  0.27169  0.16303  0.70193  1.0000
  H   H864      1.0  0.24624  0.18150  0.68314  1.0000
  H   H865      1.0  0.22599  0.21648  0.68808  1.0000
  H   H866      1.0  0.23107  0.23310  0.71153  1.0000
  H   H867      1.0  0.24771  0.23114  0.77104  1.0000
  H   H868      1.0  0.44026  0.18911  0.66954  1.0000
  H   H869      1.0  0.18085  0.23401  0.78214  1.0000
  H   H870      1.0  0.18001  0.22245  0.75530  1.0000
  H   H871      1.0  0.21233  0.21551  0.73622  1.0000
  H   H872      1.0  0.29565  0.22707  0.74874  1.0000
  H   H873      1.0  0.00550  0.25900  0.78173  1.0000
  C   C1121     1.0  0.22358  0.30677  0.70684  1.0000
  H   H874      1.0  0.20464  0.26298  0.70169  1.0000
  H   H875      1.0  0.25928  0.17592  0.75477  1.0000
  H   H876      1.0  0.46074  0.15534  0.74270  1.0000
  H   H877      1.0  0.14193  0.24793  0.76567  1.0000
  H   H878      1.0  0.02066  0.22078  0.70264  1.0000
  H   H879      1.0  0.01045  0.28876  0.70102  1.0000
  C   C1122     1.0  0.28749  0.06771  0.63729  1.0000
  H   H880      1.0  0.21829  0.03423  0.66011  1.0000
  C   C1123     1.0  0.01593  0.25453  0.70420  1.0000
  C   C1124     1.0  0.45869  0.11743  0.64035  1.0000
  C   C1125     1.0  0.36815  0.04162  0.68269  1.0000
  H   H881      1.0  0.41863  0.29160  0.63612  1.0000
  C   C1126     1.0  0.25577  0.07661  0.60202  1.0000
  H   H882      1.0  0.22098  0.05674  0.77067  1.0000
  H   H883      1.0  0.13984  0.30526  0.70147  1.0000
  C   C1127     1.0  0.39261  0.20551  0.63383  1.0000
  H   H884      1.0  0.04723  0.27453  0.74356  1.0000
  C   C1128     1.0  0.38288  0.12456  0.60663  1.0000
  H   H885      1.0  0.28633  0.27205  0.76525  1.0000
  S   S153      1.0  0.36770  0.19749  0.77641  1.0000
  H   H886      1.0  0.39250  0.13182  0.59603  1.0000
  C   C1129     1.0  0.18358  0.11296  0.62585  1.0000
  H   H887      1.0  0.18240  0.09790  0.66758  1.0000
  C   C1130     1.0  0.00121  0.25892  0.67370  1.0000
  H   H888      1.0  0.22074  0.49039  0.74917  1.0000
  H   H889      1.0  0.18576  0.09882  0.77789  1.0000
  C   C1131     1.0  0.14054  0.13011  0.76275  1.0000
  C   C1132     1.0  0.46141  0.14220  0.60189  1.0000
  C   C1133     1.0  0.37505  0.05822  0.64941  1.0000
  C   C1134     1.0  0.42743  0.16938  0.71611  1.0000
  C   C1135     1.0  0.23197  0.07012  0.66524  1.0000
  H   H890      1.0  0.11476  0.49018  0.59689  1.0000
  H   H891      1.0  0.11628  0.12358  0.72442  1.0000
  C   C1136     1.0  0.38232  0.14272  0.69359  1.0000
  C   C1137     1.0  0.05811  0.21648  0.72002  1.0000
  C   C1138     1.0  0.05354  0.31006  0.78033  1.0000
  H   H892      1.0  0.39900  0.03120  0.64688  1.0000
  H   H893      1.0  0.03867  0.30434  0.78477  1.0000
  C   C1139     1.0  0.07680  0.32732  0.75852  1.0000
  H   H894      1.0  0.05492  0.26541  0.69236  1.0000
  C   C1140     1.0  0.46852  0.26048  0.77261  1.0000
  C   C1141     1.0  0.47591  0.21995  0.72207  1.0000
  H   H895      1.0  0.29608  0.01556  0.65226  1.0000
  C   C1142     1.0  0.23700  0.07375  0.68016  1.0000
  H   H896      1.0  0.43874  0.17719  0.64362  1.0000
  C   C1143     1.0  0.00933  0.27470  0.69594  1.0000
  P   P40       1.0  0.24957  0.45810  0.73228  1.0000
  H   H897      1.0  0.07993  0.33499  0.74598  1.0000
  C   C1144     1.0  0.26998  0.43576  0.73529  1.0000
  C   C1145     1.0  0.27805  0.42325  0.72272  1.0000
  C   C1146     1.0  0.29329  0.40550  0.72545  1.0000
  C   C1147     1.0  0.30024  0.39988  0.74083  1.0000
  C   C1148     1.0  0.29190  0.41194  0.75352  1.0000
  C   C1149     1.0  0.27677  0.42977  0.75079  1.0000
  H   H898      1.0  0.08194  0.28854  0.68602  1.0000
  C   C1150     1.0  0.20298  0.38860  0.65868  1.0000
  C   C1151     1.0  0.23048  0.47752  0.70474  1.0000
  H   H899      1.0  0.23569  0.27354  0.70999  1.0000
  H   H900      1.0  0.30011  0.34569  0.77962  1.0000
  C   C1152     1.0  0.22565  0.44772  0.74126  1.0000
  C   C1153     1.0  0.47822  0.20061  0.78150  1.0000
  C   C1154     1.0  0.23042  0.48525  0.68800  1.0000
  C   C1155     1.0  0.19001  0.42907  0.75558  1.0000
  C   C1156     1.0  0.19747  0.42882  0.73886  1.0000
  C   C1157     1.0  0.21530  0.43797  0.73174  1.0000
  H   H901      1.0  0.41349  0.10835  0.66954  1.0000
  C   C1158     1.0  0.12298  0.12535  0.73512  1.0000
  C   C1159     1.0  0.17370  0.14579  0.77619  1.0000
  H   H902      1.0  0.46898  0.23645  0.72123  1.0000
  C   C1160     1.0  0.12913  0.14755  0.75405  1.0000
  H   H903      1.0  0.27217  0.42676  0.71098  1.0000
  H   H904      1.0  0.29918  0.39564  0.71584  1.0000
  H   H905      1.0  0.31161  0.38579  0.74305  1.0000
  H   H906      1.0  0.29675  0.40716  0.76561  1.0000
  H   H907      1.0  0.16534  0.14163  0.61556  1.0000
  H   H908      1.0  0.31099  0.04717  0.62377  1.0000
  C   C1161     1.0  0.42218  0.15833  0.70464  1.0000
  H   H909      1.0  0.45595  0.25130  0.77748  1.0000
  H   H910      1.0  0.38708  0.08591  0.68279  1.0000
  H   H911      1.0  0.36199  0.20103  0.64678  1.0000
  H   H912      1.0  0.18990  0.42086  0.73149  1.0000
  H   H913      1.0  0.22135  0.43679  0.71892  1.0000
  S   S154      1.0  0.01379  0.16691  0.58870  1.0000
  C   C1162     1.0  0.06615  0.19507  0.72369  1.0000
  C   C1163     1.0  0.44172  0.13705  0.66271  1.0000
  C   C1164     1.0  0.17396  0.37875  0.67904  1.0000
  Fe  Fe76      1.0  0.26433  0.47358  0.62706  1.0000
  C   C1165     1.0  0.44086  0.12907  0.64815  1.0000
  C   C1166     1.0  0.43656  0.18324  0.68246  1.0000
  H   H914      1.0  0.42508  0.20661  0.62376  1.0000
  C   C1167     1.0  0.30810  0.05963  0.63147  1.0000
  H   H915      1.0  0.09231  0.30429  0.70832  1.0000
  C   C1168     1.0  0.13441  0.10789  0.74361  1.0000
  H   H916      1.0  0.04515  0.32366  0.75646  1.0000
  H   H917      1.0  0.17560  0.28953  0.69390  1.0000
  H   H918      1.0  0.43298  0.30002  0.71281  1.0000
  H   H919      1.0  0.26765  0.09044  0.65145  1.0000
  H   H920      1.0  0.24924  0.49032  0.66420  1.0000
  H   H921      1.0  0.46504  0.18663  0.61795  1.0000
  H   H922      1.0  0.12678  0.16304  0.75797  1.0000
  C   C1169     1.0  0.06989  0.29063  0.72718  1.0000
  C   C1170     1.0  0.41419  0.19864  0.63296  1.0000
  C   C1171     1.0  0.05843  0.27279  0.70218  1.0000
  S   S155      1.0  0.40133  0.04146  0.60923  1.0000
  H   H923      1.0  0.36948  0.01695  0.62542  1.0000
  H   H924      1.0  0.26222  0.12039  0.61714  1.0000
  C   C1172     1.0  0.14319  0.11023  0.75735  1.0000
  H   H925      1.0  0.17831  0.49643  0.72735  1.0000
  H   H926      1.0  0.42612  0.45311  0.60214  1.0000
  C   C1173     1.0  0.20894  0.16686  0.76927  1.0000
  H   H927      1.0  0.18923  0.05864  0.61631  1.0000
  C   C1174     1.0  0.16357  0.08697  0.64257  1.0000
  C   C1175     1.0  0.47801  0.29404  0.68578  1.0000
  Fe  Fe77      1.0  0.01525  0.20729  0.63482  1.0000
  H   H928      1.0  0.16283  0.07185  0.65030  1.0000
  C   C1176     1.0  0.16486  0.12631  0.62304  1.0000
  C   C1177     1.0  0.47881  0.12257  0.66095  1.0000
  C   C1178     1.0  0.42614  0.16556  0.68767  1.0000
  C   C1179     1.0  0.35195  0.33087  0.78343  1.0000
  H   H929      1.0  0.47203  0.21547  0.74844  1.0000
  C   C1180     1.0  0.47773  0.11447  0.64658  1.0000
  C   C1181     1.0  0.48521  0.28246  0.71395  1.0000
  C   C1182     1.0  0.23793  0.10119  0.62692  1.0000
  H   H930      1.0  0.38071  0.15850  0.69687  1.0000
  H   H931      1.0  0.36714  0.33404  0.77707  1.0000
  C   C1183     1.0  0.26842  0.46928  0.70001  1.0000
  Fe  Fe78      1.0  0.00342  0.19350  0.60444  1.0000
  P   P41       1.0  0.20698  0.07605  0.64021  1.0000
  C   C1184     1.0  0.19776  0.04417  0.76111  1.0000
  H   H932      1.0  0.23135  0.11074  0.63662  1.0000
  H   H933      1.0  0.43577  0.33269  0.77786  1.0000
  C   C1185     1.0  0.23159  0.02447  0.76640  1.0000
  H   H934      1.0  0.13106  0.13050  0.62794  1.0000
  C   C1186     1.0  0.14489  0.10034  0.63972  1.0000
  S   S156      1.0  0.48705  0.21453  0.65022  1.0000
  H   H935      1.0  0.42503  0.27831  0.75874  1.0000
  H   H936      1.0  0.24651  0.02394  0.77064  1.0000
  H   H937      1.0  0.45024  0.20739  0.68978  1.0000
  C   C1187     1.0  0.45993  0.15662  0.78368  1.0000
  C   C1188     1.0  0.03230  0.08291  0.59599  1.0000
  S   S157      1.0  0.20977  0.49306  0.58787  1.0000
  C   C1189     1.0  0.20752  0.00809  0.75515  1.0000
  C   C1190     1.0  0.47786  0.20805  0.73750  1.0000
  C   C1191     1.0  0.48312  0.21071  0.70773  1.0000
  H   H938      1.0  0.44117  0.19595  0.71968  1.0000
  C   C1192     1.0  0.30414  0.00296  0.75738  1.0000
  C   C1193     1.0  0.26827  0.47688  0.68326  1.0000
  H   H939      1.0  0.18679  0.05881  0.76087  1.0000
  C   C1194     1.0  0.31406  0.33763  0.78480  1.0000
  C   C1195     1.0  0.41870  0.20072  0.58702  1.0000
  S   S158      1.0  0.28671  0.04025  0.78210  1.0000
  C   C1196     1.0  0.00089  0.26244  0.76948  1.0000
  H   H940      1.0  0.13671  0.09257  0.73941  1.0000
  C   C1197     1.0  0.49759  0.14421  0.60440  1.0000
  H   H941      1.0  0.18410  0.31621  0.78375  1.0000
  H   H942      1.0  0.28764  0.47262  0.73762  1.0000
  H   H943      1.0  0.17674  0.42120  0.76128  1.0000
  H   H944      1.0  0.28282  0.47635  0.67479  1.0000
  H   H945      1.0  0.04360  0.08320  0.60409  1.0000
  Fe  Fe79      1.0  0.42339  0.05977  0.59062  1.0000
  C   C1198     1.0  0.30726  0.19823  0.76318  1.0000
  C   C1199     1.0  0.49133  0.16342  0.61090  1.0000
  H   H946      1.0  0.39276  0.27652  0.77874  1.0000
  S   S159      1.0  0.23420  0.49638  0.62684  1.0000
  H   H947      1.0  0.15603  0.48013  0.77849  1.0000
  H   H948      1.0  0.05305  0.19191  0.78185  1.0000
  H   H949      1.0  0.11713  0.11031  0.59971  1.0000
  H   H950      1.0  0.47062  0.25305  0.74813  1.0000
  C   C1200     1.0  0.33391  0.34167  0.77704  1.0000
  C   C1201     1.0  0.49325  0.28223  0.77679  1.0000
  C   C1202     1.0  0.08700  0.12883  0.60615  1.0000
  H   H951      1.0  0.04233  0.12652  0.59110  1.0000
  Fe  Fe80      1.0  0.29468  0.00568  0.60315  1.0000
  P   P42       1.0  0.15040  0.13319  0.78120  1.0000
  H   H952      1.0  0.32081  0.20426  0.76550  1.0000
  C   C1203     1.0  0.41294  0.48391  0.60829  1.0000
  C   C1204     1.0  0.05869  0.12272  0.59289  1.0000
  H   H953      1.0  0.00855  0.07441  0.61610  1.0000
  C   C1205     1.0  0.16678  0.48621  0.75271  1.0000
  C   C1206     1.0  0.43650  0.41597  0.58567  1.0000
  C   C1207     1.0  0.27421  0.48237  0.74348  1.0000
  H   H954      1.0  0.21572  0.47807  0.71287  1.0000
  H   H955      1.0  0.22256  0.17492  0.76644  1.0000
  H   H956      1.0  0.44707  0.38616  0.59989  1.0000
  C   C1208     1.0  0.24929  0.48476  0.67725  1.0000
  Fe  Fe81      1.0  0.23853  0.49470  0.59947  1.0000
  C   C1209     1.0  0.31157  0.00642  0.74058  1.0000
  C   C1210     1.0  0.20050  0.00794  0.63440  1.0000
  H   H957      1.0  0.30541  0.00554  0.71609  1.0000
  C   C1211     1.0  0.49292  0.27363  0.74943  1.0000
  H   H958      1.0  0.42672  0.23055  0.59024  1.0000
  C   C1212     1.0  0.29973  0.00263  0.72915  1.0000
  H   H959      1.0  0.48494  0.38888  0.59175  1.0000
  C   C1213     1.0  0.16782  0.32373  0.78504  1.0000
  H   H960      1.0  0.07481  0.26179  0.78068  1.0000
  C   C1214     1.0  0.06993  0.24659  0.78094  1.0000
  H   H961      1.0  0.35666  0.12567  0.59367  1.0000
  H   H962      1.0  0.41529  0.13631  0.78338  1.0000
  H   H963      1.0  0.41268  0.00235  0.59686  1.0000
  H   H964      1.0  0.21575  0.49142  0.68326  1.0000
  C   C1215     1.0  0.12918  0.27268  0.78034  1.0000
  C   C1216     1.0  0.27749  0.49833  0.75183  1.0000
  S   S160      1.0  0.22255  0.00379  0.58908  1.0000
  C   C1217     1.0  0.47307  0.40136  0.58711  1.0000
  C   C1218     1.0  0.20710  0.15124  0.78293  1.0000
  C   C1219     1.0  0.13333  0.25167  0.77738  1.0000
  H   H965      1.0  0.49697  0.18211  0.69770  1.0000
  H   H966      1.0  0.16098  0.47266  0.74997  1.0000
  C   C1220     1.0  0.16310  0.34578  0.78259  1.0000
  Fe  Fe82      1.0  0.44536  0.09865  0.58614  1.0000
  H   H967      1.0  0.42007  0.41466  0.58956  1.0000
  H   H968      1.0  0.26295  0.06679  0.59257  1.0000
  C   C1221     1.0  0.37114  0.04851  0.58848  1.0000
  C   C1222     1.0  0.49506  0.18938  0.77209  1.0000
  H   H969      1.0  0.49366  0.12047  0.66566  1.0000
  H   H970      1.0  0.49170  0.10615  0.64012  1.0000
  C   C1223     1.0  0.49359  0.17731  0.72428  1.0000
  S   S161      1.0  0.31476  0.02992  0.58913  1.0000
  C   C1224     1.0  0.17654  0.49960  0.73995  1.0000
  C   C1225     1.0  0.49419  0.99999  0.58640  1.0000
  H   H971      1.0  0.13860  0.37263  0.78246  1.0000
  C   C1226     1.0  0.14218  0.35552  0.78408  1.0000
  Fe  Fe83      1.0  0.99874  0.24037  0.60747  1.0000
  H   H972      1.0  0.10425  0.13962  0.78551  1.0000
  C   C1227     1.0  0.08860  0.44548  0.92014  1.0000
  C   C1228     1.0  0.05383  0.22957  0.86652  1.0000
  Fe  Fe84      1.0  0.47245  0.25427  0.84986  1.0000
  H   H973      1.0  0.43546  0.14691  0.80271  1.0000
  S   S162      1.0  0.45025  0.26569  0.83088  1.0000
  H   H974      1.0  0.02224  0.31952  0.92450  1.0000
  H   H975      1.0  0.04249  0.00720  0.94395  1.0000
  S   S163      1.0  0.46263  0.24497  0.87691  1.0000
  C   C1229     1.0  0.48205  0.21338  0.79237  1.0000
  Fe  Fe85      1.0  0.00935  0.25090  0.82171  1.0000
  C   C1230     1.0  0.05773  0.44899  0.96378  1.0000
  H   H976      1.0  0.46019  0.15608  0.89558  1.0000
  H   H977      1.0  0.14324  0.38617  0.97403  1.0000
  C   C1231     1.0  0.15764  0.36944  0.92100  1.0000
  S   S164      1.0  0.46744  0.42142  0.94767  1.0000
  C   C1232     1.0  0.29680  0.48535  0.91760  1.0000
  C   C1233     1.0  0.17146  0.43705  0.92782  1.0000
  C   C1234     1.0  0.03723  0.48576  0.91624  1.0000
  C   C1235     1.0  0.31142  0.05267  0.81459  1.0000
  H   H978      1.0  0.49260  0.19778  0.96876  1.0000
  S   S165      1.0  0.41373  0.19821  0.80085  1.0000
  H   H979      1.0  0.22982  0.00661  0.96225  1.0000
  H   H980      1.0  0.00861  0.10201  0.91619  1.0000
  S   S166      1.0  0.32055  0.46580  0.97045  1.0000
  Fe  Fe86      1.0  0.03546  0.36852  0.89758  1.0000
  S   S167      1.0  0.02346  0.40286  0.88956  1.0000
  S   S168      1.0  0.03825  0.34311  0.88079  1.0000
  Fe  Fe87      1.0  0.05097  0.37880  0.92808  1.0000
  S   S169      1.0  0.04032  0.41351  0.92213  1.0000
  S   S170      1.0  0.06892  0.36616  0.94974  1.0000
  Fe  Fe88      1.0  0.01135  0.40400  0.91638  1.0000
  H   H981      1.0  0.09838  0.41575  0.93413  1.0000
  Fe  Fe89      1.0  0.05350  0.40966  0.89605  1.0000
  S   S171      1.0  0.07011  0.43591  0.88106  1.0000
  S   S172      1.0  0.02088  0.36905  0.92415  1.0000
  S   S173      1.0  0.06657  0.37545  0.90220  1.0000
  H   H982      1.0  0.23517  0.00479  0.87382  1.0000
  Fe  Fe90      1.0  0.18652  0.45269  0.87322  1.0000
  S   S174      1.0  0.22141  0.44324  0.87210  1.0000
  S   S175      1.0  0.16720  0.42724  0.88537  1.0000
  H   H983      1.0  0.01064  0.10648  0.94497  1.0000
  Fe  Fe91      1.0  0.22275  0.46179  0.84667  1.0000
  S   S176      1.0  0.24280  0.45094  0.82360  1.0000
  Fe  Fe92      1.0  0.22123  0.47412  0.88124  1.0000
  S   S177      1.0  0.23284  0.47668  0.90525  1.0000
  S   S178      1.0  0.18785  0.46918  0.84725  1.0000
  C   C1236     1.0  0.21831  0.40451  0.79765  1.0000
  C   C1237     1.0  0.26045  0.47985  0.92592  1.0000
  C   C1238     1.0  0.34161  0.00565  0.90454  1.0000
  C   C1239     1.0  0.42386  0.12425  0.96133  1.0000
  S   S179      1.0  0.36319  0.48381  0.95123  1.0000
  C   C1240     1.0  0.35845  0.02901  0.88256  1.0000
  C   C1241     1.0  0.22888  0.49479  0.96684  1.0000
  H   H984      1.0  0.48690  0.33516  0.93592  1.0000
  C   C1242     1.0  0.08121  0.00564  0.96708  1.0000
  H   H985      1.0  0.48757  0.38825  0.92562  1.0000
  H   H986      1.0  0.19349  0.40382  0.81820  1.0000
  H   H987      1.0  0.42656  0.49061  0.95794  1.0000
  C   C1243     1.0  0.23333  0.43288  0.81381  1.0000
  C   C1244     1.0  0.24421  0.42693  0.79880  1.0000
  C   C1245     1.0  0.20985  0.46859  0.98440  1.0000
  C   C1246     1.0  0.07569  0.32874  0.83858  1.0000
  C   C1247     1.0  0.48098  0.31408  0.92011  1.0000
  C   C1248     1.0  0.17989  0.07451  0.79829  1.0000
  S   S180      1.0  0.46954  0.16551  0.96418  1.0000
  C   C1249     1.0  0.10918  0.15032  0.79234  1.0000
  C   C1250     1.0  0.06235  0.37914  0.96744  1.0000
  C   C1251     1.0  0.04412  0.39389  0.96944  1.0000
  H   H988      1.0  0.03358  0.39706  0.96026  1.0000
  C   C1252     1.0  0.09715  0.43356  0.88203  1.0000
  C   C1253     1.0  0.10821  0.45029  0.87475  1.0000
  C   C1254     1.0  0.12975  0.44872  0.87578  1.0000
  C   C1255     1.0  0.14025  0.43030  0.88392  1.0000
  C   C1256     1.0  0.12914  0.41368  0.89115  1.0000
  C   C1257     1.0  0.10767  0.41532  0.89028  1.0000
  H   H989      1.0  0.10009  0.46447  0.86841  1.0000
  H   H990      1.0  0.13826  0.46162  0.87025  1.0000
  H   H991      1.0  0.13719  0.39938  0.89736  1.0000
  H   H992      1.0  0.09931  0.40244  0.89602  1.0000
  H   H993      1.0  0.42338  0.05776  0.95128  1.0000
  H   H994      1.0  0.20667  0.42865  0.83237  1.0000
  H   H995      1.0  0.45669  0.07611  0.90266  1.0000
  C   C1258     1.0  0.21504  0.42445  0.82073  1.0000
  S   S181      1.0  0.47647  0.10141  0.96769  1.0000
  C   C1259     1.0  0.29375  0.04229  0.84198  1.0000
  C   C1260     1.0  0.25772  0.48010  0.90944  1.0000
  S   S182      1.0  0.39058  0.03194  0.95903  1.0000
  H   H996      1.0  0.16942  0.43812  0.81754  1.0000
  C   C1261     1.0  0.46958  0.36381  0.89874  1.0000
  Fe  Fe93      1.0  0.47908  0.13208  0.97601  1.0000
  C   C1262     1.0  0.31219  0.32283  0.79900  1.0000
  C   C1263     1.0  0.24450  0.00792  0.82550  1.0000
  C   C1264     1.0  0.41808  0.13720  0.88717  1.0000
  H   H997      1.0  0.03019  0.47163  0.92109  1.0000
  C   C1265     1.0  0.44186  0.42406  0.95850  1.0000
  H   H998      1.0  0.06627  0.29702  0.80262  1.0000
  C   C1266     1.0  0.14739  0.08127  0.81665  1.0000
  H   H999      1.0  0.06186  0.34019  0.84151  1.0000
  C   C1267     1.0  0.40809  0.44610  0.96390  1.0000
  C   C1268     1.0  0.42871  0.44336  0.95573  1.0000
  C   C1269     1.0  0.02478  0.31342  0.86661  1.0000
  H   H1000     1.0  0.03455  0.20230  0.91921  1.0000
  H   H1001     1.0  0.39847  0.46128  0.96211  1.0000
  H   H1002     1.0  0.43457  0.45629  0.94732  1.0000
  C   C1270     1.0  0.01937  0.32750  0.87836  1.0000
  C   C1271     1.0  0.10505  0.30367  0.84744  1.0000
  H   H1003     1.0  0.34612  0.23738  0.79640  1.0000
  H   H1004     1.0  0.06638  0.28430  0.84440  1.0000
  H   H1005     1.0  0.46966  0.09715  0.93608  1.0000
  S   S183      1.0  0.20722  0.38801  0.78753  1.0000
  H   H1006     1.0  0.03986  0.31289  0.85898  1.0000
  C   C1272     1.0  0.44971  0.47427  0.98311  1.0000
  H   H1007     1.0  0.43985  0.04398  0.90702  1.0000
  C   C1273     1.0  0.43516  0.13825  0.89516  1.0000
  H   H1008     1.0  0.23848  0.49539  0.81353  1.0000
  C   C1274     1.0  0.20761  0.41033  0.81269  1.0000
  C   C1275     1.0  0.44023  0.24663  0.82280  1.0000
  C   C1276     1.0  0.44211  0.22545  0.83004  1.0000
  C   C1277     1.0  0.43391  0.21069  0.82320  1.0000
  C   C1278     1.0  0.42396  0.21700  0.80907  1.0000
  C   C1279     1.0  0.42230  0.23812  0.80177  1.0000
  C   C1280     1.0  0.43027  0.25291  0.80870  1.0000
  H   H1009     1.0  0.44987  0.22047  0.84088  1.0000
  H   H1010     1.0  0.43543  0.19431  0.82878  1.0000
  H   H1011     1.0  0.19440  0.06427  0.79491  1.0000
  C   C1281     1.0  0.44695  0.15489  0.88966  1.0000
  C   C1282     1.0  0.47799  0.19668  0.91774  1.0000
  C   C1283     1.0  0.47300  0.19193  0.93491  1.0000
  C   C1284     1.0  0.47682  0.17103  0.94275  1.0000
  C   C1285     1.0  0.29407  0.48567  0.90110  1.0000
  C   C1286     1.0  0.43527  0.24323  0.94962  1.0000
  H   H1012     1.0  0.47488  0.21282  0.91178  1.0000
  H   H1013     1.0  0.46607  0.20446  0.94213  1.0000
  C   C1287     1.0  0.04640  0.22117  0.79231  1.0000
  H   H1014     1.0  0.45108  0.18296  0.87236  1.0000
  H   H1015     1.0  0.47458  0.35768  0.88712  1.0000
  H   H1016     1.0  0.20434  0.48157  0.95957  1.0000
  C   C1288     1.0  0.05932  0.23282  0.84941  1.0000
  C   C1289     1.0  0.03621  0.49478  0.89987  1.0000
  Fe  Fe94      1.0  0.19065  0.49821  0.85778  1.0000
  Fe  Fe95      1.0  0.31507  0.49409  0.98396  1.0000
  C   C1290     1.0  0.99960  0.32827  0.88796  1.0000
  S   S184      1.0  0.03911  0.25870  0.80546  1.0000
  C   C1291     1.0  0.47009  0.11022  0.91046  1.0000
  C   C1292     1.0  0.19118  0.44356  0.92541  1.0000
  H   H1017     1.0  0.10813  0.44901  0.96660  1.0000
  H   H1018     1.0  0.15577  0.29436  0.79146  1.0000
  C   C1293     1.0  0.26983  0.02781  0.79836  1.0000
  H   H1019     1.0  0.37013  0.03940  0.87818  1.0000
  C   C1294     1.0  0.09979  0.17894  0.80888  1.0000
  H   H1020     1.0  0.47067  0.04551  0.98440  1.0000
  C   C1295     1.0  0.04727  0.49495  0.92626  1.0000
  C   C1296     1.0  0.41296  0.15256  0.87392  1.0000
  H   H1021     1.0  0.40311  0.04460  0.92092  1.0000
  H   H1022     1.0  0.10033  0.26601  0.81831  1.0000
  H   H1023     1.0  0.04297  0.43372  0.94877  1.0000
  H   H1024     1.0  0.22508  0.01055  0.93307  1.0000
  C   C1297     1.0  0.12594  0.34321  0.78810  1.0000
  H   H1025     1.0  0.43739  0.16196  0.92110  1.0000
  C   C1298     1.0  0.24782  0.00989  0.87836  1.0000
  H   H1026     1.0  0.11421  0.35199  0.94386  1.0000
  C   C1299     1.0  0.04112  0.44652  0.95598  1.0000
  C   C1300     1.0  0.02205  0.46011  0.95784  1.0000
  C   C1301     1.0  0.08705  0.31822  0.85113  1.0000
  C   C1302     1.0  0.12101  0.17868  0.80981  1.0000
  H   H1027     1.0  0.21486  0.23811  0.78997  1.0000
  H   H1028     1.0  0.08786  0.19032  0.81467  1.0000
  H   H1029     1.0  0.46267  0.22472  0.98177  1.0000
  C   C1303     1.0  0.15165  0.31137  0.78918  1.0000
  C   C1304     1.0  0.00630  0.23448  0.89130  1.0000
  C   C1305     1.0  0.44180  0.17020  0.87645  1.0000
  C   C1306     1.0  0.40011  0.42930  0.97437  1.0000
  H   H1030     1.0  0.11243  0.19446  0.90180  1.0000
  C   C1307     1.0  0.35684  0.01881  0.89880  1.0000
  Fe  Fe96      1.0  0.49095  0.21981  0.87532  1.0000
  H   H1031     1.0  0.39978  0.15172  0.86778  1.0000
  H   H1032     1.0  0.05936  0.30691  0.91450  1.0000
  H   H1033     1.0  0.08962  0.36315  0.97833  1.0000
  H   H1034     1.0  0.34609  0.03457  0.85968  1.0000
  C   C1308     1.0  0.05812  0.26564  0.86779  1.0000
  C   C1309     1.0  0.21346  0.48163  0.96934  1.0000
  H   H1035     1.0  0.18815  0.12914  0.79734  1.0000
  C   C1310     1.0  0.48660  0.18044  0.90832  1.0000
  H   H1036     1.0  0.07746  0.16500  0.79939  1.0000
  H   H1037     1.0  0.13666  0.07620  0.82740  1.0000
  H   H1038     1.0  0.40868  0.12461  0.89110  1.0000
  H   H1039     1.0  0.39918  0.11030  0.92510  1.0000
  C   C1311     1.0  0.02644  0.30455  0.91968  1.0000
  S   S185      1.0  0.37363  0.43210  0.98363  1.0000
  Fe  Fe97      1.0  0.32908  0.48880  0.94799  1.0000
  C   C1312     1.0  0.09289  0.46592  0.91419  1.0000
  H   H1040     1.0  0.25842  0.43332  0.79341  1.0000
  C   C1313     1.0  0.42994  0.06442  0.97436  1.0000
  C   C1314     1.0  0.14251  0.10101  0.80727  1.0000
  H   H1041     1.0  0.01549  0.28886  0.85581  1.0000
  C   C1315     1.0  0.10960  0.47309  0.91903  1.0000
  C   C1316     1.0  0.11767  0.27805  0.79524  1.0000
  H   H1042     1.0  0.00502  0.18231  0.92162  1.0000
  H   H1043     1.0  0.21937  0.14715  0.79073  1.0000
  S   S186      1.0  0.22581  0.49214  0.85560  1.0000
  C   C1317     1.0  0.40809  0.31931  0.78945  1.0000
  C   C1318     1.0  0.08297  0.21502  0.89992  1.0000
  C   C1319     1.0  0.07124  0.00212  0.95436  1.0000
  C   C1320     1.0  0.48331  0.37334  0.90534  1.0000
  H   H1044     1.0  0.20463  0.48738  0.80928  1.0000
  C   C1321     1.0  0.40371  0.04292  0.97177  1.0000
  H   H1045     1.0  0.45036  0.01616  0.96784  1.0000
  H   H1046     1.0  0.02800  0.48763  0.89245  1.0000
  C   C1322     1.0  0.12621  0.36201  0.93937  1.0000
  C   C1323     1.0  0.13055  0.32103  0.79054  1.0000
  H   H1047     1.0  0.29677  0.31953  0.80484  1.0000
  H   H1048     1.0  0.40366  0.33079  0.79800  1.0000
  H   H1049     1.0  0.34316  0.03735  0.80898  1.0000
  H   H1050     1.0  0.10981  0.35098  0.78965  1.0000
  C   C1324     1.0  0.00946  0.06826  0.92170  1.0000
  H   H1051     1.0  0.41971  0.15204  0.97333  1.0000
  H   H1052     1.0  0.07336  0.33332  0.81279  1.0000
  C   C1325     1.0  0.03813  0.02028  0.96689  1.0000
  H   H1053     1.0  0.16709  0.42138  0.96932  1.0000
  C   C1326     1.0  0.13248  0.39924  0.97870  1.0000
  C   C1327     1.0  0.48292  0.11310  0.89518  1.0000
  H   H1054     1.0  0.00654  0.24896  0.88269  1.0000
  C   C1328     1.0  0.43976  0.23301  0.96510  1.0000
  H   H1055     1.0  0.05949  0.48039  0.86901  1.0000
  C   C1329     1.0  0.16213  0.45429  0.81845  1.0000
  C   C1330     1.0  0.16973  0.47094  0.80747  1.0000
  C   C1331     1.0  0.04740  0.29742  0.91401  1.0000
  H   H1056     1.0  0.47628  0.12027  0.88412  1.0000
  H   H1057     1.0  0.12798  0.21970  0.78644  1.0000
  H   H1058     1.0  0.22740  0.02434  0.89781  1.0000
  H   H1059     1.0  0.16771  0.39889  0.92155  1.0000
  C   C1332     1.0  0.41337  0.41000  0.97738  1.0000
  H   H1060     1.0  0.02546  0.41615  0.98464  1.0000
  H   H1061     1.0  0.36721  0.02125  0.90703  1.0000
  H   H1062     1.0  0.04830  0.48792  0.93885  1.0000
  C   C1333     1.0  0.07562  0.37474  0.97969  1.0000
  C   C1334     1.0  0.48966  0.47094  0.95999  1.0000
  C   C1335     1.0  0.44249  0.32828  0.97401  1.0000
  H   H1063     1.0  0.05910  0.22039  0.84219  1.0000
  C   C1336     1.0  0.08219  0.32465  0.82235  1.0000
  H   H1064     1.0  0.00364  0.26540  0.91073  1.0000
  C   C1337     1.0  0.12482  0.38115  0.94545  1.0000
  C   C1338     1.0  0.48993  0.46545  0.94431  1.0000
  C   C1339     1.0  0.20206  0.44223  0.93874  1.0000
  C   C1340     1.0  0.05280  0.27840  0.90737  1.0000
  H   H1065     1.0  0.47681  0.47120  0.93752  1.0000
  C   C1341     1.0  0.01095  0.29978  0.86477  1.0000
  P   P43       1.0  0.04456  0.24173  0.89782  1.0000
  C   C1342     1.0  0.12555  0.23584  0.78912  1.0000
  C   C1343     1.0  0.00950  0.08838  0.92568  1.0000
  C   C1344     1.0  0.34482  0.02609  0.87204  1.0000
  C   C1345     1.0  0.06990  0.01707  0.97940  1.0000
  C   C1346     1.0  0.01612  0.27392  0.91172  1.0000
  C   C1347     1.0  0.18946  0.14086  0.78649  1.0000
  H   H1066     1.0  0.00969  0.03527  0.93068  1.0000
  Fe  Fe98      1.0  0.35411  0.46317  0.97487  1.0000
  C   C1348     1.0  0.44134  0.14825  0.78966  1.0000
  H   H1067     1.0  0.07971  0.21514  0.94698  1.0000
  H   H1068     1.0  0.29464  0.00311  0.80542  1.0000
  H   H1069     1.0  0.05120  0.23551  0.93220  1.0000
  H   H1070     1.0  0.34350  0.01533  0.83624  1.0000
  C   C1349     1.0  0.38683  0.34074  0.90478  1.0000
  C   C1350     1.0  0.39336  0.31896  0.90808  1.0000
  C   C1351     1.0  0.40688  0.31106  0.91978  1.0000
  C   C1352     1.0  0.41371  0.32488  0.92833  1.0000
  C   C1353     1.0  0.40706  0.34680  0.92523  1.0000
  C   C1354     1.0  0.39386  0.35464  0.91315  1.0000
  P   P44       1.0  0.41811  0.36491  0.93457  1.0000
  C   C1355     1.0  0.40041  0.38971  0.93509  1.0000
  C   C1356     1.0  0.42216  0.35344  0.95539  1.0000
  C   C1357     1.0  0.43956  0.33786  0.95806  1.0000
  S   S187      1.0  0.00690  0.23603  0.84822  1.0000
  S   S188      1.0  0.33564  0.01258  0.97989  1.0000
  C   C1358     1.0  0.24861  0.03602  0.80209  1.0000
  C   C1359     1.0  0.40808  0.35971  0.96905  1.0000
  C   C1360     1.0  0.37870  0.38958  0.93957  1.0000
  C   C1361     1.0  0.36488  0.40860  0.94025  1.0000
  C   C1362     1.0  0.37257  0.42788  0.93645  1.0000
  C   C1363     1.0  0.39410  0.42817  0.93201  1.0000
  C   C1364     1.0  0.40801  0.40919  0.93139  1.0000
  C   C1365     1.0  0.44333  0.36871  0.92277  1.0000
  C   C1366     1.0  0.45728  0.37813  0.92933  1.0000
  C   C1367     1.0  0.15628  0.38863  0.92702  1.0000
  H   H1071     1.0  0.07570  0.43994  0.91627  1.0000
  H   H1072     1.0  0.31101  0.06161  0.80238  1.0000
  C   C1368     1.0  0.44959  0.36164  0.90733  1.0000
  H   H1073     1.0  0.37659  0.34692  0.89554  1.0000
  H   H1074     1.0  0.38824  0.30820  0.90140  1.0000
  H   H1075     1.0  0.41248  0.29422  0.92200  1.0000
  H   H1076     1.0  0.42458  0.31835  0.93700  1.0000
  H   H1077     1.0  0.38929  0.37151  0.90993  1.0000
  H   H1078     1.0  0.45080  0.33297  0.94781  1.0000
  H   H1079     1.0  0.16997  0.05285  0.81955  1.0000
  H   H1080     1.0  0.38284  0.07775  0.92964  1.0000
  C   C1369     1.0  0.14363  0.49601  0.82128  1.0000
  H   H1081     1.0  0.39480  0.37201  0.96754  1.0000
  H   H1082     1.0  0.37248  0.37477  0.94274  1.0000
  H   H1083     1.0  0.34818  0.40848  0.94390  1.0000
  H   H1084     1.0  0.36185  0.44261  0.93712  1.0000
  H   H1085     1.0  0.25617  0.03744  0.90753  1.0000
  H   H1086     1.0  0.42462  0.40997  0.92821  1.0000
  H   H1087     1.0  0.45284  0.38355  0.94125  1.0000
  H   H1088     1.0  0.04975  0.45598  0.85274  1.0000
  C   C1370     1.0  0.23605  0.02617  0.81564  1.0000
  C   C1371     1.0  0.01024  0.05320  0.95039  1.0000
  H   H1089     1.0  0.43940  0.35398  0.90200  1.0000
  C   C1372     1.0  0.13994  0.39460  0.93943  1.0000
  C   C1373     1.0  0.43100  0.05857  0.91079  1.0000
  C   C1374     1.0  0.06924  0.30603  0.79049  1.0000
  C   C1375     1.0  0.25956  0.02851  0.89722  1.0000
  H   H1090     1.0  0.24202  0.05024  0.79478  1.0000
  H   H1091     1.0  0.49734  0.14701  0.90895  1.0000
  C   C1376     1.0  0.41122  0.35026  0.98503  1.0000
  C   C1377     1.0  0.48711  0.04529  0.95973  1.0000
  H   H1092     1.0  0.36296  0.21357  0.81856  1.0000
  C   C1378     1.0  0.41935  0.05532  0.96453  1.0000
  C   C1379     1.0  0.19324  0.43424  0.95453  1.0000
  H   H1093     1.0  0.44204  0.07381  0.96875  1.0000
  H   H1094     1.0  0.27272  0.48337  0.88428  1.0000
  H   H1095     1.0  0.43012  0.09932  0.94642  1.0000
  C   C1380     1.0  0.11907  0.43848  0.93461  1.0000
  C   C1381     1.0  0.42480  0.16906  0.86857  1.0000
  C   C1382     1.0  0.45949  0.23264  0.96972  1.0000
  H   H1096     1.0  0.24750  0.47741  0.93559  1.0000
  Fe  Fe99      1.0  0.49144  0.39570  0.95802  1.0000
  H   H1097     1.0  0.11158  0.38566  0.95454  1.0000
  C   C1383     1.0  0.16244  0.42894  0.94361  1.0000
  C   C1384     1.0  0.13625  0.47931  0.83235  1.0000
  C   C1385     1.0  0.31176  0.02813  0.84577  1.0000
  Fe  Fe100     1.0  0.37011  0.00682  0.97033  1.0000
  C   C1386     1.0  0.47929  0.10016  0.92436  1.0000
  C   C1387     1.0  0.17500  0.09415  0.78879  1.0000
  C   C1388     1.0  0.36433  0.23026  0.81648  1.0000
  C   C1389     1.0  0.11389  0.24107  0.80398  1.0000
  P   P45       1.0  0.44198  0.11861  0.91236  1.0000
  C   C1390     1.0  0.27984  0.48251  0.93000  1.0000
  C   C1391     1.0  0.16029  0.49197  0.80859  1.0000
  H   H1098     1.0  0.40007  0.44314  0.92937  1.0000
  H   H1099     1.0  0.41469  0.24306  0.79091  1.0000
  C   C1392     1.0  0.41025  0.05894  0.91845  1.0000
  C   C1393     1.0  0.06452  0.22664  0.92543  1.0000
  H   H1100     1.0  0.45576  0.31605  0.97589  1.0000
  C   C1394     1.0  0.24340  0.02111  0.89180  1.0000
  H   H1101     1.0  0.03547  0.49260  0.98154  1.0000
  C   C1395     1.0  0.00987  0.05072  0.93399  1.0000
  P   P46       1.0  0.10944  0.30556  0.79750  1.0000
  H   H1102     1.0  0.05729  0.27876  0.87451  1.0000
  H   H1103     1.0  0.42082  0.18099  0.85834  1.0000
  C   C1396     1.0  0.39880  0.07768  0.92340  1.0000
  P   P47       1.0  0.46803  0.48887  0.96890  1.0000
  C   C1397     1.0  0.43323  0.15122  0.93207  1.0000
  C   C1398     1.0  0.36593  0.32936  0.84711  1.0000
  C   C1399     1.0  0.38554  0.32321  0.85253  1.0000
  C   C1400     1.0  0.40135  0.31038  0.84368  1.0000
  C   C1401     1.0  0.39760  0.30378  0.82939  1.0000
  C   C1402     1.0  0.37794  0.30986  0.82383  1.0000
  C   C1403     1.0  0.36209  0.32267  0.83284  1.0000
  P   P48       1.0  0.37331  0.30064  0.80551  1.0000
  C   C1404     1.0  0.35021  0.31588  0.79767  1.0000
  C   C1405     1.0  0.15641  0.10770  0.79339  1.0000
  C   C1406     1.0  0.27825  0.00955  0.80820  1.0000
  H   H1104     1.0  0.16332  0.43820  0.91729  1.0000
  C   C1407     1.0  0.42314  0.14582  0.96168  1.0000
  C   C1408     1.0  0.45046  0.25326  0.93880  1.0000
  C   C1409     1.0  0.13637  0.16449  0.80178  1.0000
  C   C1410     1.0  0.33016  0.31201  0.80544  1.0000
  C   C1411     1.0  0.47705  0.38069  0.92054  1.0000
  H   H1105     1.0  0.15272  0.16481  0.80244  1.0000
  H   H1106     1.0  0.03304  0.21664  0.80085  1.0000
  H   H1107     1.0  0.09781  0.99992  0.96716  1.0000
  C   C1412     1.0  0.36934  0.27319  0.81019  1.0000
  C   C1413     1.0  0.37830  0.25966  0.82306  1.0000
  C   C1414     1.0  0.37582  0.23830  0.82613  1.0000
  H   H1108     1.0  0.48871  0.13871  0.93931  1.0000
  C   C1415     1.0  0.28482  0.01279  0.87596  1.0000
  C   C1416     1.0  0.35763  0.26497  0.80063  1.0000
  H   H1109     1.0  0.35365  0.33929  0.85399  1.0000
  H   H1110     1.0  0.38851  0.32831  0.86360  1.0000
  H   H1111     1.0  0.41656  0.30536  0.84788  1.0000
  H   H1112     1.0  0.41007  0.29375  0.82277  1.0000
  H   H1113     1.0  0.34678  0.32759  0.82892  1.0000
  C   C1417     1.0  0.49383  0.32363  0.92780  1.0000
  C   C1418     1.0  0.04777  0.48626  0.86087  1.0000
  H   H1114     1.0  0.46911  0.22156  0.79990  1.0000
  H   H1115     1.0  0.12794  0.11098  0.81092  1.0000
  C   C1419     1.0  0.42765  0.15930  0.94705  1.0000
  H   H1116     1.0  0.32843  0.30034  0.81632  1.0000
  H   H1117     1.0  0.27943  0.06467  0.82332  1.0000
  H   H1118     1.0  0.44439  0.39245  0.97181  1.0000
  C   C1420     1.0  0.29360  0.05440  0.82643  1.0000
  H   H1119     1.0  0.00037  0.19164  0.79645  1.0000
  H   H1120     1.0  0.38771  0.26521  0.83050  1.0000
  H   H1121     1.0  0.38343  0.22779  0.83566  1.0000
  H   H1122     1.0  0.42892  0.26923  0.80303  1.0000
  H   H1123     1.0  0.00939  0.45788  0.95162  1.0000
  H   H1124     1.0  0.46412  0.31831  0.92234  1.0000
  C   C1421     1.0  0.08062  0.21506  0.93385  1.0000
  C   C1422     1.0  0.11165  0.29959  0.83121  1.0000
  H   H1125     1.0  0.13540  0.46538  0.93292  1.0000
  H   H1126     1.0  0.00866  0.06623  0.90912  1.0000
  H   H1127     1.0  0.06842  0.46761  0.97902  1.0000
  C   C1423     1.0  0.11275  0.43452  0.97451  1.0000
  C   C1424     1.0  0.09904  0.20344  0.90839  1.0000
  S   S189      1.0  0.18598  0.48227  0.88391  1.0000
  H   H1128     1.0  0.08422  0.21479  0.88682  1.0000
  C   C1425     1.0  0.48575  0.15486  0.93336  1.0000
  H   H1129     1.0  0.35070  0.27486  0.79048  1.0000
  C   C1426     1.0  0.10167  0.43174  0.93022  1.0000
  S   S190      1.0  0.48664  0.36185  0.96516  1.0000
  C   C1427     1.0  0.02265  0.22724  0.90080  1.0000
  C   C1428     1.0  0.01086  0.29272  0.91867  1.0000
  H   H1130     1.0  0.42009  0.24326  0.94597  1.0000
  C   C1429     1.0  0.12248  0.45953  0.92940  1.0000
  C   C1430     1.0  0.14260  0.35615  0.92714  1.0000
  C   C1431     1.0  0.03717  0.26660  0.90600  1.0000
  H   H1131     1.0  0.27951  0.04357  0.85072  1.0000
  H   H1132     1.0  0.17003  0.36525  0.91117  1.0000
  H   H1133     1.0  0.12591  0.28868  0.82846  1.0000
  C   C1432     1.0  0.43406  0.12952  0.93156  1.0000
  C   C1433     1.0  0.43429  0.40739  0.96954  1.0000
  H   H1134     1.0  0.11290  0.48897  0.91442  1.0000
  C   C1434     1.0  0.12649  0.41773  0.96807  1.0000
  S   S191      1.0  0.47289  0.28805  0.89987  1.0000
  C   C1435     1.0  0.01955  0.47650  0.96747  1.0000
  C   C1436     1.0  0.02727  0.47956  0.84102  1.0000
  H   H1135     1.0  0.02293  0.46869  0.83401  1.0000
  H   H1136     1.0  0.00245  0.44599  0.89800  1.0000
  H   H1137     1.0  0.08190  0.32155  0.86368  1.0000
  H   H1138     1.0  0.44713  0.26119  0.92676  1.0000
  H   H1139     1.0  0.19814  0.44952  0.91312  1.0000
  H   H1140     1.0  0.14337  0.34153  0.92219  1.0000
  C   C1437     1.0  0.09789  0.20349  0.92533  1.0000
  C   C1438     1.0  0.13059  0.15038  0.79276  1.0000
  C   C1439     1.0  0.06565  0.22683  0.90838  1.0000
  C   C1440     1.0  0.03948  0.40458  0.98332  1.0000
  H   H1141     1.0  0.28170  0.48227  0.94273  1.0000
  H   H1142     1.0  0.11403  0.29581  0.85716  1.0000
  C   C1441     1.0  0.27461  0.48312  0.89701  1.0000
  C   C1442     1.0  0.05554  0.46560  0.97302  1.0000
  H   H1143     1.0  0.12354  0.48252  0.84219  1.0000
  C   C1443     1.0  0.10008  0.30981  0.81858  1.0000
  C   C1444     1.0  0.06391  0.25252  0.84149  1.0000
  C   C1445     1.0  0.32951  0.03891  0.81831  1.0000
  P   P49       1.0  0.13704  0.42010  0.94644  1.0000
  C   C1446     1.0  0.04986  0.00964  0.95413  1.0000
  C   C1447     1.0  0.01119  0.07331  0.95421  1.0000
  H   H1144     1.0  0.18296  0.46734  0.79811  1.0000
  H   H1145     1.0  0.42069  0.11372  0.97273  1.0000
  C   C1448     1.0  0.05309  0.24599  0.87586  1.0000
  P   P50       1.0  0.01067  0.03046  0.96613  1.0000
  H   H1146     1.0  0.20179  0.43309  0.96482  1.0000
  H   H1147     1.0  0.21738  0.44733  0.93671  1.0000
  C   C1449     1.0  0.04235  0.47239  0.85158  1.0000
  H   H1148     1.0  0.46873  0.44341  0.98177  1.0000
  H   H1149     1.0  0.11039  0.19458  0.93187  1.0000
  C   C1450     1.0  0.32968  0.02662  0.83380  1.0000
  H   H1150     1.0  0.07215  0.43785  0.96274  1.0000
  C   C1451     1.0  0.39603  0.30317  0.79003  1.0000
  C   C1452     1.0  0.48401  0.03821  0.97662  1.0000
  C   C1453     1.0  0.49055  0.15957  0.91618  1.0000
  C   C1454     1.0  0.14543  0.45845  0.83089  1.0000
  H   H1151     1.0  0.13989  0.44552  0.83962  1.0000
  C   C1455     1.0  0.04852  0.02463  0.97920  1.0000
  C   C1456     1.0  0.40817  0.09600  0.92091  1.0000
  C   C1457     1.0  0.44050  0.07682  0.90838  1.0000
  C   C1458     1.0  0.47019  0.25288  0.94336  1.0000
  C   C1459     1.0  0.02210  0.20837  0.91182  1.0000
  C   C1460     1.0  0.44663  0.00279  0.97687  1.0000
  C   C1461     1.0  0.26845  0.00551  0.87055  1.0000
  Fe  Fe101     1.0  0.48516  0.26591  0.88067  1.0000
  C   C1462     1.0  0.35504  0.24364  0.80387  1.0000
  H   H1152     1.0  0.48171  0.26083  0.93479  1.0000
  C   C1463     1.0  0.10999  0.26211  0.80705  1.0000
  H   H1153     1.0  0.04959  0.21440  0.87240  1.0000
  C   C1464     1.0  0.05254  0.24089  0.79202  1.0000
  C   C1465     1.0  0.42928  0.11613  0.94636  1.0000
  C   C1466     1.0  0.01053  0.09088  0.94191  1.0000
  C   C1467     1.0  0.28011  0.02475  0.88915  1.0000
  H   H1154     1.0  0.12559  0.18968  0.81656  1.0000
  C   C1468     1.0  0.42927  0.09556  0.91377  1.0000
  H   H1155     1.0  0.30708  0.48792  0.89143  1.0000
  C   C1469     1.0  0.09390  0.16463  0.80027  1.0000
  H   H1156     1.0  0.06723  0.25527  0.82819  1.0000
  C   C1470     1.0  0.24047  0.49515  0.97948  1.0000
  C   C1471     1.0  0.32808  0.00260  0.89403  1.0000
  H   H1157     1.0  0.08344  0.47600  0.90559  1.0000
  C   C1472     1.0  0.47501  0.24217  0.95872  1.0000
  H   H1158     1.0  0.06913  0.27307  0.90308  1.0000
  C   C1473     1.0  0.16612  0.06808  0.81221  1.0000
  H   H1159     1.0  0.46854  0.16092  0.79239  1.0000
  P   P51       1.0  0.31098  0.00947  0.86457  1.0000
  S   S192      1.0  0.32154  0.48883  0.92212  1.0000
  C   C1474     1.0  0.00539  0.19694  0.91321  1.0000
  H   H1160     1.0  0.21974  0.03281  0.81859  1.0000
  H   H1161     1.0  0.01218  0.07548  0.96668  1.0000
  H   H1162     1.0  0.29218  0.03137  0.89320  1.0000
  H   H1163     1.0  0.42781  0.17591  0.94743  1.0000
  H   H1164     1.0  0.47607  0.05795  0.95438  1.0000
  C   C1475     1.0  0.17352  0.42758  0.95699  1.0000
  H   H1165     1.0  0.42805  0.22511  0.97346  1.0000
  C   C1476     1.0  0.03665  0.47952  0.97466  1.0000
  C   C1477     1.0  0.06340  0.26888  0.85065  1.0000
  H   H1166     1.0  0.10720  0.22898  0.81285  1.0000
  H   H1167     1.0  0.47060  0.26955  0.79607  1.0000
  C   C1478     1.0  0.48980  0.29930  0.90934  1.0000
  C   C1479     1.0  0.32956  0.01271  0.87765  1.0000
  S   S193      1.0  0.49172  0.18557  0.88668  1.0000
  C   C1480     1.0  0.23677  0.41275  0.79075  1.0000
  S   S194      1.0  0.49287  0.27722  0.85362  1.0000
  H   H1168     1.0  0.47225  0.61121  0.10978  1.0000
  C   C1481     1.0  0.48270  0.78757  0.12157  1.0000
  S   S195      1.0  0.47010  0.68206  0.14662  1.0000
  H   H1169     1.0  0.34807  0.74354  0.16214  1.0000
  H   H1170     1.0  0.01753  0.95271  0.98783  1.0000
  S   S196      1.0  0.02505  0.71326  0.12531  1.0000
  H   H1171     1.0  0.25114  0.96837  0.15090  1.0000
  C   C1482     1.0  0.30533  0.98164  0.03488  1.0000
  C   C1483     1.0  0.19251  0.53943  0.10722  1.0000
  Fe  Fe102     1.0  0.01381  0.71284  0.15245  1.0000
  S   S197      1.0  0.03272  0.70140  0.17352  1.0000
  C   C1484     1.0  0.00468  0.88412  0.00714  1.0000
  H   H1172     1.0  0.42631  0.50181  0.98665  1.0000
  S   S198      1.0  0.46280  0.89034  0.01546  1.0000
  H   H1173     1.0  0.02632  0.51365  0.03781  1.0000
  Fe  Fe103     1.0  0.46987  0.60156  0.03226  1.0000
  S   S199      1.0  0.46839  0.60965  0.05794  1.0000
  Fe  Fe104     1.0  0.45051  0.57507  0.01300  1.0000
  H   H1174     1.0  0.17553  0.93677  0.00097  1.0000
  S   S200      1.0  0.42825  0.55066  0.01708  1.0000
  Fe  Fe105     1.0  0.45688  0.62036  0.99907  1.0000
  S   S201      1.0  0.48023  0.56910  0.02473  1.0000
  S   S202      1.0  0.43916  0.60622  0.02243  1.0000
  H   H1175     1.0  0.19712  0.53034  0.13283  1.0000
  H   H1176     1.0  0.11182  0.84006  0.08790  1.0000
  Fe  Fe106     1.0  0.22125  0.96027  0.12063  1.0000
  S   S203      1.0  0.19535  0.98652  0.12726  1.0000
  S   S204      1.0  0.23710  0.93385  0.13815  1.0000
  H   H1177     1.0  0.11326  0.87846  0.08127  1.0000
  C   C1485     1.0  0.49280  0.94977  0.99226  1.0000
  Fe  Fe107     1.0  0.18185  0.97997  0.10558  1.0000
  S   S205      1.0  0.14690  0.97976  0.10695  1.0000
  H   H1178     1.0  0.39483  0.93052  0.00394  1.0000
  S   S206      1.0  0.20655  0.95240  0.10016  1.0000
  H   H1179     1.0  0.03849  0.88890  0.11960  1.0000
  C   C1486     1.0  0.13184  0.78637  0.14425  1.0000
  C   C1487     1.0  0.04832  0.90551  0.98774  1.0000
  C   C1488     1.0  0.24631  0.99388  0.99104  1.0000
  H   H1180     1.0  0.30760  0.71723  0.17214  1.0000
  C   C1489     1.0  0.03076  0.97647  0.02398  1.0000
  C   C1490     1.0  0.36562  0.64003  0.16941  1.0000
  C   C1491     1.0  0.48964  0.77708  0.01426  1.0000
  H   H1181     1.0  0.03465  0.98291  0.03412  1.0000
  Fe  Fe108     1.0  0.06110  0.87626  0.07783  1.0000
  S   S207      1.0  0.08347  0.88388  0.05468  1.0000
  S   S208      1.0  0.06498  0.84409  0.09394  1.0000
  Fe  Fe109     1.0  0.03989  0.92233  0.07704  1.0000
  S   S209      1.0  0.06073  0.93357  0.05426  1.0000
  C   C1492     1.0  0.27041  0.51590  0.07852  1.0000
  Fe  Fe110     1.0  0.05557  0.90447  0.04494  1.0000
  S   S210      1.0  0.04695  0.91288  0.01918  1.0000
  Fe  Fe111     1.0  0.08702  0.91240  0.06565  1.0000
  S   S211      1.0  0.12010  0.92004  0.06295  1.0000
  S   S212      1.0  0.03275  0.89448  0.06712  1.0000
  S   S213      1.0  0.06672  0.90360  0.08937  1.0000
  C   C1493     1.0  0.05504  0.89746  0.00300  1.0000
  C   C1494     1.0  0.06727  0.87748  0.00495  1.0000
  H   H1182     1.0  0.46775  0.91273  0.04048  1.0000
  H   H1183     1.0  0.07248  0.87107  0.01670  1.0000
  C   C1495     1.0  0.43200  0.78833  0.99934  1.0000
  H   H1184     1.0  0.20626  0.90452  0.14051  1.0000
  C   C1496     1.0  0.19464  0.89700  0.10366  1.0000
  H   H1185     1.0  0.08038  0.95862  0.13626  1.0000
  H   H1186     1.0  0.46806  0.76932  0.14307  1.0000
  H   H1187     1.0  0.47933  0.94730  0.98713  1.0000
  C   C1497     1.0  0.26296  0.52389  0.15356  1.0000
  H   H1188     1.0  0.00188  0.96798  0.03743  1.0000
  H   H1189     1.0  0.27271  0.97989  0.07164  1.0000
  Fe  Fe112     1.0  0.49284  0.69701  0.12628  1.0000
  H   H1190     1.0  0.25343  0.93862  0.01487  1.0000
  C   C1498     1.0  0.44112  0.98654  0.00547  1.0000
  H   H1191     1.0  0.25029  0.50335  0.02710  1.0000
  C   C1499     1.0  0.13945  0.96307  0.09476  1.0000
  C   C1500     1.0  0.11813  0.96143  0.09542  1.0000
  C   C1501     1.0  0.11193  0.94801  0.08597  1.0000
  C   C1502     1.0  0.12703  0.93649  0.07553  1.0000
  C   C1503     1.0  0.14829  0.93825  0.07478  1.0000
  C   C1504     1.0  0.15448  0.95142  0.08437  1.0000
  H   H1192     1.0  0.10637  0.97054  0.10328  1.0000
  H   H1193     1.0  0.09550  0.94679  0.08661  1.0000
  H   H1194     1.0  0.16004  0.92943  0.06671  1.0000
  H   H1195     1.0  0.17088  0.95272  0.08356  1.0000
  H   H1196     1.0  0.11509  0.88760  0.01738  1.0000
  H   H1197     1.0  0.37384  0.58750  0.99537  1.0000
  C   C1505     1.0  0.12433  0.83690  0.11079  1.0000
  H   H1198     1.0  0.40492  0.81994  0.05289  1.0000
  C   C1506     1.0  0.10213  0.94188  0.99067  1.0000
  H   H1199     1.0  0.42436  0.85051  0.04943  1.0000
  H   H1200     1.0  0.47701  0.81618  0.02227  1.0000
  C   C1507     1.0  0.00395  0.51385  0.07768  1.0000
  S   S214      1.0  0.48694  0.70602  0.09995  1.0000
  H   H1201     1.0  0.26056  0.97105  0.02426  1.0000
  C   C1508     1.0  0.00534  0.96870  0.08157  1.0000
  H   H1202     1.0  0.03483  0.97128  0.06607  1.0000
  C   C1509     1.0  0.18652  0.94460  0.00531  1.0000
  C   C1510     1.0  0.22880  0.92997  0.15969  1.0000
  C   C1511     1.0  0.24166  0.91591  0.16994  1.0000
  H   H1203     1.0  0.19964  0.95125  0.15902  1.0000
  H   H1204     1.0  0.25656  0.90793  0.16460  1.0000
  Fe  Fe113     1.0  0.34278  0.98500  0.99939  1.0000
  H   H1205     1.0  0.41807  0.97354  0.05988  1.0000
  C   C1512     1.0  0.42494  0.91292  0.00893  1.0000
  H   H1206     1.0  0.17024  0.94278  0.03021  1.0000
  C   C1513     1.0  0.17452  0.89155  0.10877  1.0000
  H   H1207     1.0  0.04911  0.73702  0.15276  1.0000
  C   C1514     1.0  0.41511  0.54527  0.00156  1.0000
  H   H1208     1.0  0.42395  0.79963  0.00736  1.0000
  H   H1209     1.0  0.12353  0.82013  0.11366  1.0000
  C   C1515     1.0  0.39780  0.53430  0.00614  1.0000
  C   C1516     1.0  0.02194  0.50780  0.05065  1.0000
  H   H1210     1.0  0.39278  0.52927  0.01904  1.0000
  H   H1211     1.0  0.41271  0.86167  0.01342  1.0000
  C   C1517     1.0  0.00485  0.62226  0.05075  1.0000
  C   C1518     1.0  0.01066  0.67008  0.02034  1.0000
  Fe  Fe114     1.0  0.49460  0.58637  0.00091  1.0000
  H   H1212     1.0  0.36205  0.64613  0.14349  1.0000
  H   H1213     1.0  0.45432  0.50818  0.99977  1.0000
  H   H1214     1.0  0.47108  0.52963  0.01378  1.0000
  C   C1519     1.0  0.02107  0.79360  0.10215  1.0000
  C   C1520     1.0  0.03791  0.79108  0.11113  1.0000
  C   C1521     1.0  0.05109  0.80679  0.10857  1.0000
  C   C1522     1.0  0.04746  0.82521  0.09718  1.0000
  C   C1523     1.0  0.03039  0.82790  0.08848  1.0000
  C   C1524     1.0  0.01736  0.81213  0.09091  1.0000
  H   H1215     1.0  0.31490  0.91013  0.99566  1.0000
  H   H1216     1.0  0.09950  0.63195  0.14735  1.0000
  H   H1217     1.0  0.02745  0.84194  0.07966  1.0000
  C   C1525     1.0  0.20343  0.93658  0.18390  1.0000
  H   H1218     1.0  0.22347  0.75876  0.18036  1.0000
  C   C1526     1.0  0.05155  0.71665  0.17579  1.0000
  H   H1219     1.0  0.47987  0.80167  0.06365  1.0000
  C   C1527     1.0  0.16583  0.89043  0.12546  1.0000
  S   S215      1.0  0.37775  0.98124  0.99106  1.0000
  H   H1220     1.0  0.33373  0.62451  0.14637  1.0000
  C   C1528     1.0  0.45375  0.69807  0.16032  1.0000
  H   H1221     1.0  0.05281  0.65708  0.18474  1.0000
  H   H1222     1.0  0.26356  0.99781  0.13070  1.0000
  C   C1529     1.0  0.03796  0.85231  0.15400  1.0000
  H   H1223     1.0  0.08973  0.95345  0.01383  1.0000
  C   C1530     1.0  0.45167  0.72015  0.15725  1.0000
  H   H1224     1.0  0.05989  0.65748  0.99989  1.0000
  C   C1531     1.0  0.43049  0.94079  0.06538  1.0000
  H   H1225     1.0  0.46038  0.72776  0.14635  1.0000
  C   C1532     1.0  0.08507  0.92507  0.13531  1.0000
  H   H1226     1.0  0.26009  0.50140  0.13773  1.0000
  C   C1533     1.0  0.23206  0.50701  0.15503  1.0000
  C   C1534     1.0  0.47925  0.63759  0.07527  1.0000
  H   H1227     1.0  0.05892  0.98309  0.00792  1.0000
  H   H1228     1.0  0.46562  0.63432  0.08401  1.0000
  C   C1535     1.0  0.29882  0.71694  0.18437  1.0000
  S   S216      1.0  0.01306  0.94257  0.09078  1.0000
  H   H1229     1.0  0.27130  0.70873  0.17726  1.0000
  C   C1536     1.0  0.00140  0.68284  0.00730  1.0000
  C   C1537     1.0  0.03056  0.86886  0.14235  1.0000
  C   C1538     1.0  0.00368  0.88513  0.99036  1.0000
  C   C1539     1.0  0.22728  0.84146  0.16130  1.0000
  C   C1540     1.0  0.23948  0.85749  0.15459  1.0000
  C   C1541     1.0  0.24287  0.86371  0.13757  1.0000
  C   C1542     1.0  0.23405  0.85407  0.12708  1.0000
  C   C1543     1.0  0.22156  0.83840  0.13363  1.0000
  C   C1544     1.0  0.21806  0.83219  0.15067  1.0000
  C   C1545     1.0  0.02551  0.78584  0.15971  1.0000
  C   C1546     1.0  0.06559  0.86779  0.12721  1.0000
  C   C1547     1.0  0.25342  0.53481  0.16684  1.0000
  C   C1548     1.0  0.48652  0.61376  0.11371  1.0000
  S   S217      1.0  0.00457  0.77398  0.10402  1.0000
  C   C1549     1.0  0.37252  0.68395  0.16695  1.0000
  C   C1550     1.0  0.18353  0.94796  0.02179  1.0000
  H   H1230     1.0  0.19048  0.99785  0.16267  1.0000
  H   H1231     1.0  0.45107  0.70553  0.07084  1.0000
  H   H1232     1.0  0.17266  0.50440  0.13867  1.0000
  H   H1233     1.0  0.27860  0.52627  0.14772  1.0000
  C   C1551     1.0  0.21501  0.96440  0.01672  1.0000
  H   H1234     1.0  0.20114  0.89826  0.09073  1.0000
  H   H1235     1.0  0.24609  0.86561  0.16240  1.0000
  H   H1236     1.0  0.25206  0.87634  0.13256  1.0000
  H   H1237     1.0  0.23661  0.85902  0.11389  1.0000
  H   H1238     1.0  0.21445  0.83120  0.12548  1.0000
  H   H1239     1.0  0.20793  0.82040  0.15546  1.0000
  H   H1240     1.0  0.19218  0.86856  0.16726  1.0000
  C   C1552     1.0  0.42777  0.84562  0.99286  1.0000
  C   C1553     1.0  0.03256  0.62677  0.07179  1.0000
  H   H1241     1.0  0.42833  0.63348  0.16925  1.0000
  H   H1242     1.0  0.14653  0.77752  0.13933  1.0000
  H   H1243     1.0  0.04105  0.77685  0.11972  1.0000
  H   H1244     1.0  0.44453  0.70423  0.04248  1.0000
  H   H1245     1.0  0.46043  0.84835  0.03416  1.0000
  C   C1554     1.0  0.40955  0.92198  0.99880  1.0000
  P   P52       1.0  0.43969  0.98850  0.02709  1.0000
  H   H1246     1.0  0.19567  0.96028  0.04031  1.0000
  C   C1555     1.0  0.01313  0.68632  0.99169  1.0000
  H   H1247     1.0  0.39916  0.62392  0.14562  1.0000
  Fe  Fe115     1.0  0.22429  0.97627  0.08337  1.0000
  S   S218      1.0  0.23792  0.97133  0.05696  1.0000
  H   H1248     1.0  0.07989  0.79383  0.14109  1.0000
  C   C1556     1.0  0.17495  0.51339  0.12647  1.0000
  C   C1557     1.0  0.34073  0.62575  0.15706  1.0000
  H   H1249     1.0  0.42134  0.78757  0.04078  1.0000
  H   H1250     1.0  0.18410  0.57213  0.13064  1.0000
  H   H1251     1.0  0.16169  0.51624  0.08824  1.0000
  C   C1558     1.0  0.10244  0.92050  0.01742  1.0000
  C   C1559     1.0  0.49663  0.79667  0.06115  1.0000
  P   P53       1.0  0.46201  0.77620  0.02113  1.0000
  H   H1252     1.0  0.32418  0.97738  0.10180  1.0000
  C   C1560     1.0  0.36949  0.71932  0.17427  1.0000
  C   C1561     1.0  0.35764  0.69178  0.15614  1.0000
  C   C1562     1.0  0.43798  0.73242  0.16820  1.0000
  H   H1253     1.0  0.39824  0.99123  0.01739  1.0000
  C   C1563     1.0  0.45184  0.83512  0.03551  1.0000
  C   C1564     1.0  0.46118  0.81686  0.02866  1.0000
  H   H1254     1.0  0.22586  0.97191  0.02149  1.0000
  C   C1565     1.0  0.42059  0.81912  0.04603  1.0000
  C   C1566     1.0  0.45845  0.75362  0.03669  1.0000
  C   C1567     1.0  0.04436  0.87653  0.12890  1.0000
  C   C1568     1.0  0.14206  0.84257  0.18349  1.0000
  H   H1255     1.0  0.40478  0.60296  0.99875  1.0000
  C   C1569     1.0  0.11133  0.64103  0.16750  1.0000
  H   H1256     1.0  0.30904  0.98563  0.05942  1.0000
  S   S219      1.0  0.48673  0.61824  0.00948  1.0000
  C   C1570     1.0  0.12573  0.71398  0.16431  1.0000
  S   S220      1.0  0.33102  0.98650  0.02648  1.0000
  H   H1257     1.0  0.28546  0.98515  0.10390  1.0000
  C   C1571     1.0  0.44231  0.68840  0.17449  1.0000
  H   H1258     1.0  0.29677  0.97662  0.01209  1.0000
  H   H1259     1.0  0.32067  0.60613  0.17376  1.0000
  H   H1260     1.0  0.09894  0.91910  0.03071  1.0000
  H   H1261     1.0  0.02567  0.66013  0.06410  1.0000
  C   C1572     1.0  0.03419  0.67717  0.98902  1.0000
  C   C1573     1.0  0.46038  0.76051  0.99228  1.0000
  C   C1574     1.0  0.41249  0.86000  0.00068  1.0000
  C   C1575     1.0  0.30050  0.92080  0.99378  1.0000
  H   H1262     1.0  0.28392  0.50594  0.07296  1.0000
  C   C1576     1.0  0.47883  0.52487  0.00211  1.0000
  C   C1577     1.0  0.37838  0.69798  0.17596  1.0000
  C   C1578     1.0  0.44403  0.90176  0.00236  1.0000
  C   C1579     1.0  0.04356  0.66457  0.00196  1.0000
  H   H1263     1.0  0.00228  0.62847  0.10035  1.0000
  C   C1580     1.0  0.18881  0.52824  0.12310  1.0000
  H   H1264     1.0  0.43237  0.70532  0.99792  1.0000
  S   S221      1.0  0.28449  0.50153  0.00061  1.0000
  C   C1581     1.0  0.24626  0.98459  0.15326  1.0000
  C   C1582     1.0  0.49238  0.65101  0.07854  1.0000
  H   H1265     1.0  0.00026  0.90115  0.02768  1.0000
  C   C1583     1.0  0.27788  0.97921  0.05868  1.0000
  C   C1584     1.0  0.20967  0.94038  0.16676  1.0000
  H   H1266     1.0  0.03944  0.65125  0.02744  1.0000
  C   C1585     1.0  0.03933  0.80061  0.15740  1.0000
  H   H1267     1.0  0.01406  0.87547  0.14351  1.0000
  C   C1586     1.0  0.11298  0.94507  0.13571  1.0000
  C   C1587     1.0  0.12120  0.90735  0.13413  1.0000
  H   H1268     1.0  0.28579  0.91384  0.01882  1.0000
  C   C1588     1.0  0.11244  0.81052  0.16272  1.0000
  C   C1589     1.0  0.48199  0.68936  0.00756  1.0000
  C   C1590     1.0  0.46166  0.75433  0.05288  1.0000
  H   H1269     1.0  0.48452  0.79588  0.99080  1.0000
  C   C1591     1.0  0.42162  0.63733  0.18138  1.0000
  H   H1270     1.0  0.46452  0.94714  0.02259  1.0000
  H   H1271     1.0  0.01182  0.76146  0.17650  1.0000
  H   H1272     1.0  0.02705  0.84627  0.16424  1.0000
  C   C1592     1.0  0.48219  0.77565  0.13719  1.0000
  H   H1273     1.0  0.06860  0.92450  0.13519  1.0000
  C   C1593     1.0  0.39730  0.87274  0.99192  1.0000
  C   C1594     1.0  0.43531  0.96905  0.00034  1.0000
  C   C1595     1.0  0.22257  0.51786  0.16835  1.0000
  C   C1596     1.0  0.42641  0.72273  0.18232  1.0000
  C   C1597     1.0  0.05927  0.84336  0.15223  1.0000
  H   H1274     1.0  0.22563  0.53994  0.18446  1.0000
  H   H1275     1.0  0.22165  0.90587  0.11119  1.0000
  C   C1598     1.0  0.48132  0.98965  0.03085  1.0000
  H   H1276     1.0  0.11148  0.68657  0.16482  1.0000
  C   C1599     1.0  0.40110  0.60283  0.98651  1.0000
  C   C1600     1.0  0.02170  0.77358  0.17502  1.0000
  H   H1277     1.0  0.06435  0.80453  0.11524  1.0000
  H   H1278     1.0  0.04308  0.62856  0.08011  1.0000
  H   H1279     1.0  0.05501  0.86265  0.17923  1.0000
  C   C1601     1.0  0.48396  0.62795  0.06090  1.0000
  H   H1280     1.0  0.12540  0.89735  0.10047  1.0000
  C   C1602     1.0  0.11837  0.86980  0.09256  1.0000
  C   C1603     1.0  0.09740  0.93997  0.00784  1.0000
  H   H1281     1.0  0.06208  0.64217  0.15846  1.0000
  H   H1282     1.0  0.49059  0.66241  0.02534  1.0000
  C   C1604     1.0  0.23319  0.53161  0.17429  1.0000
  C   C1605     1.0  0.16888  0.52007  0.09802  1.0000
  C   C1606     1.0  0.45023  0.77464  0.00321  1.0000
  C   C1607     1.0  0.02868  0.60663  0.07039  1.0000
  C   C1608     1.0  0.35473  0.72693  0.16352  1.0000
  C   C1609     1.0  0.07306  0.85136  0.13884  1.0000
  C   C1610     1.0  0.11773  0.84811  0.09625  1.0000
  H   H1283     1.0  0.03628  0.59275  0.07752  1.0000
  C   C1611     1.0  0.15738  0.85120  0.15509  1.0000
  H   H1284     1.0  0.14415  0.92804  0.13399  1.0000
  H   H1285     1.0  0.44408  0.67137  0.17699  1.0000
  C   C1612     1.0  0.12532  0.88042  0.10349  1.0000
  C   C1613     1.0  0.46934  0.51256  0.99406  1.0000
  H   H1286     1.0  0.11822  0.96006  0.13572  1.0000
  C   C1614     1.0  0.19749  0.90059  0.13170  1.0000
  C   C1615     1.0  0.45894  0.73709  0.06511  1.0000
  C   C1616     1.0  0.02245  0.64470  0.06279  1.0000
  Fe  Fe116     1.0  0.49506  0.87656  0.00407  1.0000
  P   P54       1.0  0.21205  0.55689  0.10236  1.0000
  C   C1617     1.0  0.21697  0.56595  0.12060  1.0000
  C   C1618     1.0  0.23520  0.54144  0.09287  1.0000
  C   C1619     1.0  0.24691  0.52561  0.10271  1.0000
  C   C1620     1.0  0.07242  0.86560  0.99165  1.0000
  C   C1621     1.0  0.42893  0.96045  0.05540  1.0000
  C   C1622     1.0  0.25844  0.53117  0.06855  1.0000
  C   C1623     1.0  0.24078  0.54382  0.07567  1.0000
  C   C1624     1.0  0.23750  0.56733  0.12288  1.0000
  C   C1625     1.0  0.24110  0.57449  0.13701  1.0000
  C   C1626     1.0  0.22429  0.58048  0.14887  1.0000
  C   C1627     1.0  0.20376  0.57970  0.14648  1.0000
  C   C1628     1.0  0.20008  0.57265  0.13233  1.0000
  C   C1629     1.0  0.20350  0.58070  0.08912  1.0000
  C   C1630     1.0  0.21826  0.59336  0.08050  1.0000
  C   C1631     1.0  0.21176  0.61212  0.07050  1.0000
  C   C1632     1.0  0.19045  0.61853  0.06924  1.0000
  C   C1633     1.0  0.17561  0.60627  0.07812  1.0000
  C   C1634     1.0  0.18206  0.58749  0.08813  1.0000
  C   C1635     1.0  0.20617  0.90136  0.11514  1.0000
  H   H1287     1.0  0.24206  0.52273  0.11588  1.0000
  H   H1288     1.0  0.18633  0.54245  0.08205  1.0000
  C   C1636     1.0  0.40125  0.64865  0.18425  1.0000
  H   H1289     1.0  0.26270  0.53285  0.05528  1.0000
  H   H1290     1.0  0.23138  0.55510  0.06771  1.0000
  H   H1291     1.0  0.25081  0.56276  0.11390  1.0000
  H   H1292     1.0  0.25701  0.57485  0.13904  1.0000
  H   H1293     1.0  0.22731  0.58541  0.16001  1.0000
  C   C1637     1.0  0.04447  0.97656  0.00920  1.0000
  C   C1638     1.0  0.99856  0.90230  0.01484  1.0000
  H   H1294     1.0  0.23480  0.58874  0.08157  1.0000
  H   H1295     1.0  0.22326  0.62174  0.06378  1.0000
  H   H1296     1.0  0.18542  0.63309  0.06151  1.0000
  H   H1297     1.0  0.15906  0.61139  0.07732  1.0000
  H   H1298     1.0  0.17029  0.57847  0.09518  1.0000
  H   H1299     1.0  0.11336  0.77446  0.12959  1.0000
  C   C1639     1.0  0.05654  0.73349  0.16381  1.0000
  C   C1640     1.0  0.26408  0.97503  0.04884  1.0000
  H   H1300     1.0  0.27323  0.50050  0.10323  1.0000
  H   H1301     1.0  0.46645  0.76817  0.05609  1.0000
  S   S222      1.0  0.49039  0.76442  0.08641  1.0000
  C   C1641     1.0  0.15813  0.83882  0.17050  1.0000
  H   H1302     1.0  0.37287  0.52244  0.99790  1.0000
  P   P55       1.0  0.24091  0.96921  0.98640  1.0000
  C   C1642     1.0  0.45512  0.94560  0.03455  1.0000
  C   C1643     1.0  0.48538  0.62459  0.12712  1.0000
  P   P56       1.0  0.38562  0.65684  0.16756  1.0000
  H   H1303     1.0  0.09439  0.89194  0.13399  1.0000
  H   H1304     1.0  0.43623  0.74950  0.16567  1.0000
  S   S223      1.0  0.24111  0.98190  0.10330  1.0000
  C   C1644     1.0  0.11319  0.78460  0.13879  1.0000
  P   P57       1.0  0.13991  0.88346  0.13254  1.0000
  H   H1305     1.0  0.17069  0.89524  0.14959  1.0000
  C   C1645     1.0  0.44125  0.96300  0.03986  1.0000
  H   H1306     1.0  0.47028  0.63068  0.13357  1.0000
  C   C1646     1.0  0.16493  0.50937  0.11396  1.0000
  C   C1647     1.0  0.14046  0.86746  0.15254  1.0000
  C   C1648     1.0  0.45291  0.71899  0.06135  1.0000
  H   H1307     1.0  0.11259  0.82056  0.17185  1.0000
  C   C1649     1.0  0.09974  0.90667  0.13451  1.0000
  Fe  Fe117     1.0  0.00246  0.74381  0.12233  1.0000
  C   C1650     1.0  0.12418  0.87089  0.16559  1.0000
  C   C1651     1.0  0.42907  0.67117  0.12761  1.0000
  C   C1652     1.0  0.43232  0.65333  0.11956  1.0000
  C   C1653     1.0  0.42134  0.63643  0.12603  1.0000
  C   C1654     1.0  0.40698  0.63745  0.14049  1.0000
  C   C1655     1.0  0.40307  0.65568  0.14832  1.0000
  C   C1656     1.0  0.41459  0.67234  0.14195  1.0000
  H   H1308     1.0  0.12369  0.89060  0.98722  1.0000
  H   H1309     1.0  0.42081  0.93887  0.07727  1.0000
  H   H1310     1.0  0.07623  0.87312  0.11653  1.0000
  H   H1311     1.0  0.43015  0.95615  0.00922  1.0000
  H   H1312     1.0  0.11088  0.88317  0.16401  1.0000
  C   C1657     1.0  0.12773  0.92674  0.13469  1.0000
  C   C1658     1.0  0.00815  0.64259  0.05245  1.0000
  H   H1313     1.0  0.00442  0.81420  0.08389  1.0000
  H   H1314     1.0  0.01199  0.58873  0.05863  1.0000
  H   H1315     1.0  0.12759  0.63725  0.16218  1.0000
  H   H1316     1.0  0.19074  0.58433  0.15570  1.0000
  H   H1317     1.0  0.43816  0.68395  0.12297  1.0000
  H   H1318     1.0  0.44365  0.65247  0.10849  1.0000
  H   H1319     1.0  0.42413  0.62244  0.11992  1.0000
  H   H1320     1.0  0.23625  0.79331  0.17251  1.0000
  H   H1321     1.0  0.41279  0.68608  0.14824  1.0000
  C   C1659     1.0  0.17740  0.89523  0.13682  1.0000
  C   C1660     1.0  0.13195  0.86930  0.11818  1.0000
  C   C1661     1.0  0.13149  0.84740  0.12172  1.0000
  H   H1322     1.0  0.48392  0.97263  0.03141  1.0000
  C   C1662     1.0  0.45208  0.73548  0.03304  1.0000
  H   H1323     1.0  0.16580  0.88855  0.09962  1.0000
  C   C1663     1.0  0.35675  0.63806  0.15552  1.0000
  C   C1664     1.0  0.20380  0.95108  0.99451  1.0000
  C   C1665     1.0  0.18279  0.53490  0.09460  1.0000
  H   H1324     1.0  0.01098  0.86938  0.01407  1.0000
  H   H1325     1.0  0.11751  0.72301  0.15450  1.0000
  H   H1326     1.0  0.17002  0.84819  0.14515  1.0000
  C   C1666     1.0  0.29499  0.99580  0.09584  1.0000
  C   C1667     1.0  0.34883  0.71316  0.15443  1.0000
  C   C1668     1.0  0.09169  0.94427  0.13593  1.0000
  C   C1669     1.0  0.04959  0.80317  0.17041  1.0000
  C   C1670     1.0  0.42993  0.80082  0.03917  1.0000
  C   C1671     1.0  0.00881  0.52127  0.06095  1.0000
  C   C1672     1.0  0.22222  0.79203  0.18139  1.0000
  C   C1673     1.0  0.06916  0.65216  0.18012  1.0000
  C   C1674     1.0  0.44449  0.92360  0.06000  1.0000
  C   C1675     1.0  0.03187  0.66104  0.01759  1.0000
  H   H1327     1.0  0.14589  0.80066  0.16050  1.0000
  C   C1676     1.0  0.47791  0.67216  0.01960  1.0000
  C   C1677     1.0  0.45759  0.66716  0.02403  1.0000
  C   C1678     1.0  0.44114  0.67927  0.01633  1.0000
  C   C1679     1.0  0.44503  0.69644  0.00427  1.0000
  C   C1680     1.0  0.46538  0.70146  0.99985  1.0000
  H   H1328     1.0  0.22669  0.97587  0.17582  1.0000
  C   C1681     1.0  0.49596  0.78837  0.99881  1.0000
  C   C1682     1.0  0.03951  0.96822  0.99612  1.0000
  H   H1329     1.0  0.33759  0.71910  0.14590  1.0000
  C   C1683     1.0  0.27106  0.97412  0.03201  1.0000
  C   C1684     1.0  0.44930  0.71825  0.04535  1.0000
  H   H1330     1.0  0.47453  0.75004  0.99499  1.0000
  C   C1685     1.0  0.45689  0.92606  0.04464  1.0000
  C   C1686     1.0  0.09548  0.63815  0.15899  1.0000
  C   C1687     1.0  0.28411  0.92288  0.00681  1.0000
  C   C1688     1.0  0.02110  0.95926  0.99800  1.0000
  C   C1689     1.0  0.43152  0.83630  0.04414  1.0000
  H   H1331     1.0  0.42205  0.91461  0.02188  1.0000
  H   H1332     1.0  0.13623  0.83842  0.13298  1.0000
  C   C1690     1.0  0.45022  0.79968  0.03026  1.0000
  C   C1691     1.0  0.13908  0.72342  0.17138  1.0000
  C   C1692     1.0  0.26451  0.51297  0.09558  1.0000
  H   H1333     1.0  0.45474  0.65349  0.03310  1.0000
  H   H1334     1.0  0.42556  0.67484  0.01926  1.0000
  C   C1693     1.0  0.07440  0.64384  0.16525  1.0000
  H   H1335     1.0  0.04236  0.80962  0.14530  1.0000
  C   C1694     1.0  0.11660  0.90462  0.99273  1.0000
  H   H1336     1.0  0.46164  0.73783  0.07753  1.0000
  C   C1695     1.0  0.23248  0.98893  0.16746  1.0000
  H   H1337     1.0  0.35313  0.68157  0.14873  1.0000
  H   H1338     1.0  0.44913  0.73452  0.02079  1.0000
  C   C1696     1.0  0.01493  0.60437  0.05980  1.0000
  H   H1339     1.0  0.44569  0.90833  0.06768  1.0000
  C   C1697     1.0  0.44771  0.89965  0.98563  1.0000
  C   C1698     1.0  0.26572  0.93703  0.00450  1.0000
  H   H1340     1.0  0.01815  0.78351  0.14948  1.0000
  C   C1699     1.0  0.11178  0.90280  0.00988  1.0000
  C   C1700     1.0  0.25244  0.50993  0.14777  1.0000
  C   C1701     1.0  0.19779  0.95784  0.02748  1.0000
  S   S224      1.0  0.09658  0.75913  0.18423  1.0000
  C   C1702     1.0  0.12508  0.85854  0.18102  1.0000
  C   C1703     1.0  0.31685  0.99142  0.09466  1.0000
  S   S225      1.0  0.26702  0.55300  0.17306  1.0000
  C   C1704     1.0  0.12228  0.69324  0.17033  1.0000
  P   P58       1.0  0.06853  0.82136  0.16685  1.0000
  H   H1341     1.0  0.08165  0.85004  0.99322  1.0000
  H   H1342     1.0  0.14122  0.73971  0.16702  1.0000
  C   C1705     1.0  0.21822  0.96107  0.00012  1.0000
  H   H1343     1.0  0.49055  0.69956  0.03609  1.0000
  H   H1344     1.0  0.46808  0.71438  0.99015  1.0000
  C   C1706     1.0  0.29844  0.98247  0.05172  1.0000
  C   C1707     1.0  0.26363  0.94929  0.98910  1.0000
  S   S226      1.0  0.46569  0.58982  0.98869  1.0000
  H   H1345     1.0  0.49403  0.92022  0.00848  1.0000
  C   C1708     1.0  0.19047  0.87019  0.18015  1.0000
  H   H1346     1.0  0.00477  0.92687  0.04449  1.0000
  C   C1709     1.0  0.09413  0.79557  0.14542  1.0000
  H   H1347     1.0  0.99971  0.74048  0.04402  1.0000
  C   C1710     1.0  0.33346  0.61525  0.17244  1.0000
  C   C1711     1.0  0.01227  0.96766  0.02587  1.0000
  C   C1712     1.0  0.26700  0.99829  0.98864  1.0000
  C   C1713     1.0  0.01919  0.97920  0.06970  1.0000
  H   H1348     1.0  0.37437  0.73005  0.18113  1.0000
  C   C1714     1.0  0.29158  0.97739  0.02505  1.0000
  C   C1715     1.0  0.08012  0.74202  0.18078  1.0000
  C   C1716     1.0  0.38655  0.53031  0.99417  1.0000
  C   C1717     1.0  0.00771  0.95819  0.01306  1.0000
  H   H1349     1.0  0.20685  0.51563  0.17411  1.0000
  H   H1350     1.0  0.43978  0.83604  0.99956  1.0000
  H   H1351     1.0  0.07436  0.75934  0.15714  1.0000
  C   C1718     1.0  0.07087  0.74611  0.16629  1.0000
  H   H1352     1.0  0.08945  0.84462  0.13706  1.0000
  C   C1719     1.0  0.13148  0.79943  0.15614  1.0000
  H   H1353     1.0  0.38573  0.88426  0.99787  1.0000
  S   S227      1.0  0.00166  0.66684  0.11332  1.0000
  C   C1720     1.0  0.09350  0.80819  0.15776  1.0000
  H   H1354     1.0  0.17120  0.82634  0.17247  1.0000
  H   H1355     1.0  0.46903  0.79029  0.11524  1.0000
  H   H1356     1.0  0.48913  0.65773  0.08995  1.0000
  H   H1357     1.0  0.39011  0.69271  0.18403  1.0000
  P   P59       1.0  0.22157  0.83468  0.18343  1.0000
  S   S228      1.0  0.99946  0.54749  0.05269  1.0000
  H   H1358     1.0  0.16789  0.89872  0.17762  1.0000
  H   H1359     1.0  0.00182  0.71020  0.02908  1.0000
  H   H1360     1.0  0.03868  0.92073  0.98618  1.0000
  H   H1361     1.0  0.20342  0.62985  0.18413  1.0000
  C   C1721     1.0  0.14894  0.71215  0.18453  1.0000
  C   C1722     1.0  0.13212  0.68178  0.18359  1.0000
  C   C1723     1.0  0.10619  0.64938  0.18248  1.0000
  C   C1724     1.0  0.35821  0.62932  0.18482  1.0000
  C   C1725     1.0  0.42879  0.70065  0.18552  1.0000
  C   C1726     1.0  0.45468  0.68429  0.23635  1.0000
  S   S229      1.0  0.02301  0.77873  0.31318  1.0000
  H   H1362     1.0  0.18652  0.72700  0.27296  1.0000
  H   H1363     1.0  0.01935  0.72063  0.21730  1.0000
  S   S230      1.0  0.01313  0.76444  0.36180  1.0000
  Fe  Fe118     1.0  0.15022  0.73117  0.22321  1.0000
  S   S231      1.0  0.14257  0.76109  0.20604  1.0000
  S   S232      1.0  0.18271  0.71258  0.21807  1.0000
  Fe  Fe119     1.0  0.10806  0.73818  0.24470  1.0000
  S   S233      1.0  0.09693  0.76856  0.22930  1.0000
  S   S234      1.0  0.08866  0.72229  0.26685  1.0000
  Fe  Fe120     1.0  0.11092  0.75153  0.20776  1.0000
  C   C1727     1.0  0.19048  0.98736  0.21433  1.0000
  Fe  Fe121     1.0  0.12948  0.77597  0.22873  1.0000
  S   S235      1.0  0.13488  0.80956  0.22868  1.0000
  S   S236      1.0  0.11950  0.72027  0.22307  1.0000
  S   S237      1.0  0.13963  0.74692  0.24590  1.0000
  Fe  Fe122     1.0  0.38931  0.72454  0.21840  1.0000
  S   S238      1.0  0.39935  0.69423  0.23439  1.0000
  Fe  Fe123     1.0  0.34830  0.73497  0.24077  1.0000
  S   S239      1.0  0.35556  0.70571  0.25867  1.0000
  S   S240      1.0  0.31560  0.75334  0.24588  1.0000
  Fe  Fe124     1.0  0.38830  0.71322  0.25531  1.0000
  S   S241      1.0  0.40480  0.70499  0.27794  1.0000
  Fe  Fe125     1.0  0.36579  0.68894  0.23661  1.0000
  S   S242      1.0  0.35699  0.65600  0.23993  1.0000
  S   S243      1.0  0.38031  0.74413  0.23931  1.0000
  S   S244      1.0  0.35655  0.71762  0.21869  1.0000
  Fe  Fe126     1.0  0.47643  0.75163  0.32120  1.0000
  S   S245      1.0  0.46156  0.76394  0.29803  1.0000
  C   C1728     1.0  0.00500  0.72264  0.24246  1.0000
  C   C1729     1.0  0.35501  0.50417  0.37174  1.0000
  S   S246      1.0  0.45982  0.75673  0.34634  1.0000
  Fe  Fe127     1.0  0.22372  0.89534  0.23529  1.0000
  S   S247      1.0  0.20297  0.89052  0.25966  1.0000
  S   S248      1.0  0.20740  0.91788  0.21555  1.0000
  Fe  Fe128     1.0  0.26111  0.86760  0.24948  1.0000
  S   S249      1.0  0.24329  0.86163  0.27494  1.0000
  S   S250      1.0  0.29524  0.85331  0.24312  1.0000
  Fe  Fe129     1.0  0.21773  0.85647  0.26145  1.0000
  S   S251      1.0  0.20182  0.82723  0.27019  1.0000
  Fe  Fe130     1.0  0.23010  0.89638  0.27110  1.0000
  S   S252      1.0  0.22049  0.92115  0.28883  1.0000
  S   S253      1.0  0.23633  0.86059  0.23621  1.0000
  S   S254      1.0  0.25007  0.90292  0.24654  1.0000
  Fe  Fe131     1.0  0.22878  0.59550  0.22041  1.0000
  C   C1730     1.0  0.25648  0.81386  0.19859  1.0000
  S   S255      1.0  0.19587  0.61192  0.22807  1.0000
  Fe  Fe132     1.0  0.26599  0.56483  0.23185  1.0000
  S   S256      1.0  0.28644  0.57257  0.20776  1.0000
  S   S257      1.0  0.28252  0.53973  0.24970  1.0000
  Fe  Fe133     1.0  0.27236  0.60637  0.20937  1.0000
  S   S258      1.0  0.28807  0.63574  0.20166  1.0000
  Fe  Fe134     1.0  0.25859  0.56978  0.19594  1.0000
  S   S259      1.0  0.25430  0.59895  0.23444  1.0000
  S   S260      1.0  0.23879  0.56029  0.21998  1.0000
  H   H1364     1.0  0.44558  0.78529  0.22606  1.0000
  S   S261      1.0  0.26183  0.94688  0.34583  1.0000
  C   C1731     1.0  0.01028  0.68423  0.32100  1.0000
  H   H1365     1.0  0.16693  0.69903  0.26902  1.0000
  S   S262      1.0  0.25979  0.52030  0.32746  1.0000
  C   C1732     1.0  0.03152  0.77619  0.18811  1.0000
  C   C1733     1.0  0.28373  0.51459  0.29744  1.0000
  C   C1734     1.0  0.31078  0.59357  0.27669  1.0000
  H   H1366     1.0  0.18857  0.94461  0.18928  1.0000
  C   C1735     1.0  0.21159  0.80974  0.18868  1.0000
  H   H1367     1.0  0.45401  0.80546  0.24648  1.0000
  H   H1368     1.0  0.36135  0.58876  0.24953  1.0000
  Fe  Fe135     1.0  0.47510  0.72359  0.35452  1.0000
  C   C1736     1.0  0.46229  0.78967  0.24526  1.0000
  C   C1737     1.0  0.49651  0.82930  0.37572  1.0000
  C   C1738     1.0  0.34505  0.53156  0.32021  1.0000
  C   C1739     1.0  0.27037  0.85152  0.20113  1.0000
  C   C1740     1.0  0.27580  0.53508  0.27128  1.0000
  C   C1741     1.0  0.25840  0.54672  0.27964  1.0000
  C   C1742     1.0  0.25373  0.54226  0.29691  1.0000
  C   C1743     1.0  0.26630  0.52605  0.30586  1.0000
  C   C1744     1.0  0.17258  0.97735  0.36332  1.0000
  C   C1745     1.0  0.28849  0.51914  0.28027  1.0000
  H   H1369     1.0  0.24853  0.55905  0.27280  1.0000
  H   H1370     1.0  0.24021  0.55121  0.30333  1.0000
  H   H1371     1.0  0.08290  0.72151  0.20360  1.0000
  H   H1372     1.0  0.09194  0.83442  0.25937  1.0000
  C   C1746     1.0  0.30796  0.72119  0.19732  1.0000
  H   H1373     1.0  0.05077  0.73567  0.22032  1.0000
  H   H1374     1.0  0.14273  0.83307  0.19549  1.0000
  C   C1747     1.0  0.01748  0.70011  0.29255  1.0000
  H   H1375     1.0  0.18536  0.82067  0.20655  1.0000
  C   C1748     1.0  0.23361  0.92883  0.30355  1.0000
  C   C1749     1.0  0.22514  0.94758  0.31028  1.0000
  C   C1750     1.0  0.23409  0.95375  0.32275  1.0000
  C   C1751     1.0  0.25143  0.94098  0.32889  1.0000
  C   C1752     1.0  0.25997  0.92225  0.32214  1.0000
  C   C1753     1.0  0.25129  0.91631  0.30940  1.0000
  H   H1376     1.0  0.21142  0.95732  0.30591  1.0000
  H   H1377     1.0  0.22723  0.96809  0.32789  1.0000
  H   H1378     1.0  0.27331  0.91220  0.32687  1.0000
  H   H1379     1.0  0.25789  0.90179  0.30443  1.0000
  H   H1380     1.0  0.18537  0.79690  0.33354  1.0000
  C   C1754     1.0  0.46542  0.66405  0.36101  1.0000
  C   C1755     1.0  0.46370  0.64255  0.36152  1.0000
  H   H1381     1.0  0.23747  0.50381  0.28790  1.0000
  H   H1382     1.0  0.37748  0.66170  0.20287  1.0000
  H   H1383     1.0  0.33643  0.52244  0.22782  1.0000
  C   C1756     1.0  0.31069  0.78108  0.24556  1.0000
  C   C1757     1.0  0.32645  0.79372  0.24001  1.0000
  C   C1758     1.0  0.32162  0.81585  0.23946  1.0000
  C   C1759     1.0  0.30105  0.82545  0.24450  1.0000
  C   C1760     1.0  0.28539  0.81274  0.25027  1.0000
  C   C1761     1.0  0.29024  0.79066  0.25085  1.0000
  H   H1384     1.0  0.34228  0.78649  0.23600  1.0000
  H   H1385     1.0  0.33382  0.82559  0.23500  1.0000
  H   H1386     1.0  0.26952  0.81995  0.25424  1.0000
  H   H1387     1.0  0.27807  0.78096  0.25549  1.0000
  C   C1762     1.0  0.30614  0.64182  0.21312  1.0000
  C   C1763     1.0  0.31506  0.66045  0.20793  1.0000
  C   C1764     1.0  0.33034  0.66523  0.21626  1.0000
  C   C1765     1.0  0.33698  0.65124  0.22972  1.0000
  C   C1766     1.0  0.32793  0.63272  0.23500  1.0000
  C   C1767     1.0  0.31237  0.62812  0.22685  1.0000
  C   C1768     1.0  0.17660  0.88725  0.18594  1.0000
  H   H1388     1.0  0.33722  0.67953  0.21206  1.0000
  H   H1389     1.0  0.33297  0.62190  0.24543  1.0000
  H   H1390     1.0  0.30539  0.61386  0.23100  1.0000
  C   C1769     1.0  0.41943  0.72245  0.28359  1.0000
  C   C1770     1.0  0.42242  0.74177  0.27393  1.0000
  C   C1771     1.0  0.43478  0.75483  0.27874  1.0000
  C   C1772     1.0  0.44439  0.74852  0.29306  1.0000
  C   C1773     1.0  0.44079  0.72956  0.30294  1.0000
  C   C1774     1.0  0.42845  0.71658  0.29816  1.0000
  H   H1391     1.0  0.41543  0.74654  0.26271  1.0000
  H   H1392     1.0  0.43706  0.76974  0.27128  1.0000
  H   H1393     1.0  0.44773  0.72475  0.31417  1.0000
  H   H1394     1.0  0.42591  0.70194  0.30586  1.0000
  C   C1775     1.0  0.18580  0.68464  0.22068  1.0000
  C   C1776     1.0  0.17033  0.67350  0.23008  1.0000
  C   C1777     1.0  0.17354  0.65122  0.23220  1.0000
  C   C1778     1.0  0.19209  0.63992  0.22489  1.0000
  C   C1779     1.0  0.20741  0.65109  0.21534  1.0000
  C   C1780     1.0  0.20432  0.67335  0.21333  1.0000
  H   H1395     1.0  0.15600  0.68202  0.23585  1.0000
  H   H1396     1.0  0.16179  0.64267  0.23977  1.0000
  H   H1397     1.0  0.22182  0.64261  0.20970  1.0000
  H   H1398     1.0  0.21643  0.68180  0.20614  1.0000
  C   C1781     1.0  0.15325  0.81412  0.24059  1.0000
  C   C1782     1.0  0.16292  0.79782  0.25134  1.0000
  C   C1783     1.0  0.17772  0.80198  0.26046  1.0000
  C   C1784     1.0  0.18301  0.82240  0.25883  1.0000
  C   C1785     1.0  0.17313  0.83867  0.24828  1.0000
  C   C1786     1.0  0.15834  0.83457  0.23914  1.0000
  H   H1399     1.0  0.15900  0.78206  0.25267  1.0000
  H   H1400     1.0  0.18535  0.78931  0.26862  1.0000
  H   H1401     1.0  0.17664  0.85450  0.24750  1.0000
  H   H1402     1.0  0.15081  0.84731  0.23097  1.0000
  H   H1403     1.0  0.29605  0.83169  0.21179  1.0000
  H   H1404     1.0  0.36426  0.63071  0.19587  1.0000
  H   H1405     1.0  0.20870  0.84763  0.21613  1.0000
  H   H1406     1.0  0.47981  0.70126  0.30048  1.0000
  C   C1787     1.0  0.38039  0.62558  0.37423  1.0000
  H   H1407     1.0  0.16461  0.90383  0.20681  1.0000
  C   C1788     1.0  0.04128  0.76274  0.30055  1.0000
  C   C1789     1.0  0.05181  0.77233  0.28588  1.0000
  C   C1790     1.0  0.06642  0.76008  0.27550  1.0000
  C   C1791     1.0  0.07071  0.73816  0.27977  1.0000
  C   C1792     1.0  0.06024  0.72855  0.29446  1.0000
  C   C1793     1.0  0.04553  0.74078  0.30481  1.0000
  H   H1408     1.0  0.04864  0.78930  0.28253  1.0000
  H   H1409     1.0  0.07422  0.76759  0.26415  1.0000
  H   H1410     1.0  0.06353  0.71160  0.29785  1.0000
  H   H1411     1.0  0.03761  0.73323  0.31611  1.0000
  C   C1794     1.0  0.38484  0.71346  0.32747  1.0000
  H   H1412     1.0  0.49235  0.54335  0.37953  1.0000
  H   H1413     1.0  0.08824  0.80120  0.19593  1.0000
  C   C1795     1.0  0.41420  0.68108  0.34062  1.0000
  C   C1796     1.0  0.40029  0.67633  0.33100  1.0000
  C   C1797     1.0  0.38552  0.69269  0.32449  1.0000
  P   P60       1.0  0.40210  0.64954  0.32679  1.0000
  C   C1798     1.0  0.38662  0.64954  0.31054  1.0000
  C   C1799     1.0  0.42978  0.64045  0.32099  1.0000
  C   C1800     1.0  0.43995  0.62204  0.32959  1.0000
  C   C1801     1.0  0.46162  0.61603  0.32590  1.0000
  C   C1802     1.0  0.20508  0.91791  0.35775  1.0000
  C   C1803     1.0  0.46352  0.64687  0.30524  1.0000
  C   C1804     1.0  0.44185  0.65293  0.30893  1.0000
  C   C1805     1.0  0.36543  0.64661  0.31464  1.0000
  C   C1806     1.0  0.35295  0.64757  0.30229  1.0000
  C   C1807     1.0  0.36135  0.65191  0.28574  1.0000
  C   C1808     1.0  0.38222  0.65525  0.28154  1.0000
  C   C1809     1.0  0.39486  0.65391  0.29384  1.0000
  C   C1810     1.0  0.39205  0.63254  0.34482  1.0000
  C   C1811     1.0  0.38843  0.61226  0.34318  1.0000
  C   C1812     1.0  0.44918  0.63275  0.37346  1.0000
  C   C1813     1.0  0.27835  0.71219  0.18725  1.0000
  C   C1814     1.0  0.38099  0.95759  0.38071  1.0000
  C   C1815     1.0  0.38810  0.63905  0.36049  1.0000
  Fe  Fe136     1.0  0.25913  0.97959  0.35365  1.0000
  C   C1816     1.0  0.30769  0.54390  0.32345  1.0000
  H   H1414     1.0  0.15506  0.79571  0.29185  1.0000
  H   H1415     1.0  0.42578  0.66875  0.34574  1.0000
  H   H1416     1.0  0.37489  0.68965  0.31675  1.0000
  H   H1417     1.0  0.43149  0.61256  0.33957  1.0000
  C   C1817     1.0  0.40068  0.96268  0.37307  1.0000
  C   C1818     1.0  0.38585  0.97599  0.34772  1.0000
  H   H1418     1.0  0.29593  0.56519  0.30340  1.0000
  H   H1419     1.0  0.43463  0.66759  0.30256  1.0000
  H   H1420     1.0  0.35840  0.64389  0.32739  1.0000
  H   H1421     1.0  0.33669  0.64519  0.30555  1.0000
  H   H1422     1.0  0.35174  0.65280  0.27612  1.0000
  H   H1423     1.0  0.38854  0.65916  0.26870  1.0000
  H   H1424     1.0  0.41080  0.65693  0.29014  1.0000
  H   H1425     1.0  0.39178  0.60676  0.33126  1.0000
  H   H1426     1.0  0.17860  0.96548  0.23480  1.0000
  H   H1427     1.0  0.15233  0.68336  0.20137  1.0000
  C   C1819     1.0  0.45749  0.77829  0.23382  1.0000
  H   H1428     1.0  0.39110  0.65437  0.36225  1.0000
  C   C1820     1.0  0.48760  0.71030  0.27440  1.0000
  C   C1821     1.0  0.07633  0.84563  0.21448  1.0000
  C   C1822     1.0  0.08434  0.82481  0.21199  1.0000
  C   C1823     1.0  0.08172  0.81738  0.19770  1.0000
  C   C1824     1.0  0.40308  0.97159  0.35641  1.0000
  H   H1429     1.0  0.24251  0.98886  0.20079  1.0000
  H   H1430     1.0  0.17494  0.99471  0.21184  1.0000
  C   C1825     1.0  0.18949  0.91095  0.33505  1.0000
  H   H1431     1.0  0.38762  0.98321  0.33495  1.0000
  Fe  Fe137     1.0  0.48930  0.76759  0.35052  1.0000
  H   H1432     1.0  0.12915  0.70062  0.28029  1.0000
  C   C1826     1.0  0.20847  0.99402  0.20456  1.0000
  H   H1433     1.0  0.25778  0.93824  0.38506  1.0000
  C   C1827     1.0  0.49186  0.70007  0.28990  1.0000
  C   C1828     1.0  0.45760  0.96777  0.36259  1.0000
  C   C1829     1.0  0.49620  0.57619  0.37542  1.0000
  C   C1830     1.0  0.47341  0.62840  0.31372  1.0000
  H   H1434     1.0  0.33641  0.60898  0.19821  1.0000
  H   H1435     1.0  0.27551  0.86608  0.20254  1.0000
  H   H1436     1.0  0.19910  0.59214  0.18726  1.0000
  C   C1831     1.0  0.17782  0.96755  0.37881  1.0000
  H   H1437     1.0  0.34843  0.95894  0.37807  1.0000
  H   H1438     1.0  0.35268  0.97532  0.34898  1.0000
  C   C1832     1.0  0.00703  0.72822  0.25771  1.0000
  C   C1833     1.0  0.46790  0.75774  0.23248  1.0000
  C   C1834     1.0  0.24504  0.83337  0.19278  1.0000
  H   H1439     1.0  0.07854  0.85129  0.22556  1.0000
  H   H1440     1.0  0.09279  0.81450  0.22111  1.0000
  C   C1835     1.0  0.44005  0.99544  0.37863  1.0000
  C   C1836     1.0  0.23553  0.91235  0.18712  1.0000
  H   H1441     1.0  0.18123  0.80876  0.30415  1.0000
  H   H1442     1.0  0.44964  0.62277  0.19177  1.0000
  C   C1837     1.0  0.21626  0.92247  0.19414  1.0000
  C   C1838     1.0  0.11005  0.80838  0.29444  1.0000
  H   H1443     1.0  0.24300  0.86735  0.19068  1.0000
  C   C1839     1.0  0.17455  0.89009  0.20243  1.0000
  H   H1444     1.0  0.09752  0.79784  0.25283  1.0000
  C   C1840     1.0  0.20232  0.85579  0.19093  1.0000
  Fe  Fe138     1.0  0.00526  0.73135  0.36772  1.0000
  H   H1445     1.0  0.05350  0.79199  0.19595  1.0000
  H   H1446     1.0  0.02906  0.76616  0.19980  1.0000
  C   C1841     1.0  0.48775  0.75989  0.25421  1.0000
  H   H1447     1.0  0.32379  0.72497  0.19510  1.0000
  C   C1842     1.0  0.37549  0.50704  0.37302  1.0000
  C   C1843     1.0  0.16804  0.99940  0.35999  1.0000
  H   H1448     1.0  0.32627  0.61854  0.28148  1.0000
  C   C1844     1.0  0.47011  0.69687  0.20875  1.0000
  C   C1845     1.0  0.21232  0.96112  0.23096  1.0000
  H   H1449     1.0  0.38694  0.60304  0.29899  1.0000
  S   S263      1.0  0.48975  0.71774  0.32893  1.0000
  H   H1450     1.0  0.11144  0.76799  0.27244  1.0000
  C   C1846     1.0  0.99788  0.78586  0.23277  1.0000
  H   H1451     1.0  0.21379  0.94810  0.24094  1.0000
  H   H1452     1.0  0.05352  0.77031  0.33604  1.0000
  C   C1847     1.0  0.18657  0.78798  0.20467  1.0000
  C   C1848     1.0  0.33992  0.52222  0.25318  1.0000
  C   C1849     1.0  0.24447  0.65634  0.23674  1.0000
  C   C1850     1.0  0.22680  0.65615  0.24876  1.0000
  C   C1851     1.0  0.21966  0.67362  0.25715  1.0000
  C   C1852     1.0  0.23007  0.69133  0.25338  1.0000
  C   C1853     1.0  0.24730  0.69191  0.24081  1.0000
  C   C1854     1.0  0.25483  0.67396  0.23293  1.0000
  P   P61       1.0  0.26173  0.71399  0.23664  1.0000
  C   C1855     1.0  0.24546  0.73949  0.23685  1.0000
  C   C1856     1.0  0.27918  0.70846  0.25198  1.0000
  C   C1857     1.0  0.29561  0.69140  0.25114  1.0000
  C   C1858     1.0  0.30862  0.68603  0.26339  1.0000
  C   C1859     1.0  0.30519  0.69746  0.27670  1.0000
  C   C1860     1.0  0.28873  0.71437  0.27772  1.0000
  C   C1861     1.0  0.27566  0.71980  0.26545  1.0000
  C   C1862     1.0  0.22387  0.74193  0.23592  1.0000
  C   C1863     1.0  0.21165  0.76190  0.23597  1.0000
  C   C1864     1.0  0.22101  0.77968  0.23618  1.0000
  C   C1865     1.0  0.24257  0.77748  0.23656  1.0000
  C   C1866     1.0  0.25480  0.75747  0.23682  1.0000
  C   C1867     1.0  0.27635  0.71518  0.21624  1.0000
  C   C1868     1.0  0.26704  0.71157  0.20308  1.0000
  H   H1453     1.0  0.35855  0.52177  0.32500  1.0000
  C   C1869     1.0  0.46701  0.69559  0.24285  1.0000
  H   H1454     1.0  0.47268  0.65674  0.29602  1.0000
  C   C1870     1.0  0.29675  0.72041  0.21321  1.0000
  H   H1455     1.0  0.25000  0.64304  0.23003  1.0000
  H   H1456     1.0  0.21853  0.64256  0.25137  1.0000
  H   H1457     1.0  0.20596  0.67344  0.26646  1.0000
  H   H1458     1.0  0.22466  0.70456  0.26022  1.0000
  H   H1459     1.0  0.26873  0.67339  0.22379  1.0000
  H   H1460     1.0  0.29834  0.68222  0.24099  1.0000
  H   H1461     1.0  0.32149  0.67309  0.26243  1.0000
  H   H1462     1.0  0.31546  0.69336  0.28609  1.0000
  H   H1463     1.0  0.28620  0.72344  0.28790  1.0000
  H   H1464     1.0  0.26289  0.73280  0.26654  1.0000
  H   H1465     1.0  0.21642  0.72859  0.23492  1.0000
  H   H1466     1.0  0.19492  0.76359  0.23567  1.0000
  H   H1467     1.0  0.21161  0.79522  0.23597  1.0000
  H   H1468     1.0  0.24976  0.79131  0.23675  1.0000
  H   H1469     1.0  0.27157  0.75601  0.23699  1.0000
  H   H1470     1.0  0.25114  0.70792  0.20513  1.0000
  C   C1871     1.0  0.02469  0.73710  0.25911  1.0000
  H   H1471     1.0  0.19133  0.90527  0.32322  1.0000
  H   H1472     1.0  0.36280  0.54351  0.29754  1.0000
  H   H1473     1.0  0.30403  0.72390  0.22308  1.0000
  C   C1872     1.0  0.37664  0.60552  0.37246  1.0000
  H   H1474     1.0  0.12381  0.72680  0.32770  1.0000
  H   H1475     1.0  0.49271  0.71781  0.20677  1.0000
  H   H1476     1.0  0.47222  0.71939  0.27322  1.0000
  P   P62       1.0  0.12674  0.65546  0.19229  1.0000
  C   C1873     1.0  0.36380  0.96213  0.37200  1.0000
  H   H1477     1.0  0.49295  0.57861  0.36282  1.0000
  C   C1874     1.0  0.19978  0.85851  0.20757  1.0000
  C   C1875     1.0  0.18612  0.87575  0.21321  1.0000
  H   H1478     1.0  0.37646  0.85458  0.23284  1.0000
  C   C1876     1.0  0.41344  0.70184  0.34357  1.0000
  H   H1479     1.0  0.43532  0.63140  0.21984  1.0000
  C   C1877     1.0  0.40552  0.64701  0.21298  1.0000
  H   H1480     1.0  0.29314  0.51430  0.22159  1.0000
  C   C1878     1.0  0.48242  0.70824  0.21520  1.0000
  P   P63       1.0  0.49722  0.72220  0.24059  1.0000
  H   H1481     1.0  0.29342  0.50202  0.30410  1.0000
  H   H1482     1.0  0.12394  0.62623  0.25152  1.0000
  C   C1879     1.0  0.31203  0.61444  0.27863  1.0000
  H   H1483     1.0  0.24564  0.95961  0.22386  1.0000
  C   C1880     1.0  0.30957  0.85175  0.28540  1.0000
  C   C1881     1.0  0.30876  0.85830  0.30071  1.0000
  C   C1882     1.0  0.32374  0.84875  0.31092  1.0000
  C   C1883     1.0  0.33954  0.83262  0.30585  1.0000
  C   C1884     1.0  0.34051  0.82599  0.29042  1.0000
  C   C1885     1.0  0.32534  0.83570  0.28028  1.0000
  P   P64       1.0  0.36063  0.80493  0.28368  1.0000
  C   C1886     1.0  0.37092  0.81177  0.26226  1.0000
  C   C1887     1.0  0.38185  0.80037  0.29593  1.0000
  C   C1888     1.0  0.40118  0.80721  0.28946  1.0000
  C   C1889     1.0  0.41769  0.80287  0.29887  1.0000
  C   C1890     1.0  0.41504  0.79176  0.31478  1.0000
  C   C1891     1.0  0.39583  0.78502  0.32135  1.0000
  C   C1892     1.0  0.37928  0.78928  0.31197  1.0000
  C   C1893     1.0  0.38024  0.79579  0.25267  1.0000
  C   C1894     1.0  0.38790  0.80095  0.23602  1.0000
  H   H1484     1.0  0.29596  0.64653  0.27778  1.0000
  C   C1895     1.0  0.37764  0.83816  0.23840  1.0000
  C   C1896     1.0  0.37006  0.83304  0.25508  1.0000
  C   C1897     1.0  0.34988  0.78056  0.28577  1.0000
  C   C1898     1.0  0.36292  0.76096  0.28832  1.0000
  C   C1899     1.0  0.35489  0.74208  0.28933  1.0000
  C   C1900     1.0  0.33387  0.74259  0.28768  1.0000
  C   C1901     1.0  0.32084  0.76195  0.28509  1.0000
  C   C1902     1.0  0.32878  0.78088  0.28406  1.0000
  H   H1485     1.0  0.29796  0.85913  0.27742  1.0000
  H   H1486     1.0  0.29652  0.87081  0.30460  1.0000
  H   H1487     1.0  0.32311  0.85390  0.32279  1.0000
  H   H1488     1.0  0.35095  0.82558  0.31397  1.0000
  H   H1489     1.0  0.32571  0.83095  0.26834  1.0000
  H   H1490     1.0  0.40372  0.81560  0.27710  1.0000
  H   H1491     1.0  0.43283  0.80757  0.29374  1.0000
  H   H1492     1.0  0.42809  0.78803  0.32187  1.0000
  H   H1493     1.0  0.39392  0.77630  0.33365  1.0000
  H   H1494     1.0  0.36452  0.78378  0.31716  1.0000
  H   H1495     1.0  0.38151  0.77932  0.25799  1.0000
  H   H1496     1.0  0.39473  0.78849  0.22862  1.0000
  H   H1497     1.0  0.39210  0.82607  0.21588  1.0000
  H   H1498     1.0  0.47108  0.69764  0.19551  1.0000
  H   H1499     1.0  0.36338  0.84572  0.26226  1.0000
  H   H1500     1.0  0.37944  0.76016  0.28915  1.0000
  H   H1501     1.0  0.36511  0.72706  0.29098  1.0000
  H   H1502     1.0  0.32784  0.72800  0.28795  1.0000
  H   H1503     1.0  0.30474  0.76235  0.28319  1.0000
  H   H1504     1.0  0.31848  0.79561  0.28151  1.0000
  H   H1505     1.0  0.32722  0.58327  0.24394  1.0000
  H   H1506     1.0  0.17273  0.65743  0.18566  1.0000
  H   H1507     1.0  0.25136  0.79904  0.19808  1.0000
  H   H1508     1.0  0.09961  0.84123  0.28615  1.0000
  C   C1903     1.0  0.16529  0.59866  0.18988  1.0000
  S   S264      1.0  0.45451  0.70286  0.37283  1.0000
  H   H1509     1.0  0.35552  0.58560  0.30239  1.0000
  C   C1904     1.0  0.19244  0.97094  0.22746  1.0000
  C   C1905     1.0  0.39180  0.60560  0.27253  1.0000
  H   H1510     1.0  0.29227  0.54363  0.33063  1.0000
  C   C1906     1.0  0.19376  0.80751  0.20046  1.0000
  C   C1907     1.0  0.06134  0.71210  0.19004  1.0000
  C   C1908     1.0  0.39883  0.71803  0.33697  1.0000
  C   C1909     1.0  0.23028  0.96758  0.22126  1.0000
  C   C1910     1.0  0.33219  0.55399  0.23408  1.0000
  C   C1911     1.0  0.36373  0.58950  0.29012  1.0000
  C   C1912     1.0  0.48123  0.70743  0.23234  1.0000
  C   C1913     1.0  0.45633  0.68480  0.21932  1.0000
  C   C1914     1.0  0.03855  0.73359  0.23067  1.0000
  C   C1915     1.0  0.34735  0.54389  0.30471  1.0000
  C   C1916     1.0  0.27481  0.81328  0.20544  1.0000
  H   H1511     1.0  0.48475  0.97515  0.34545  1.0000
  H   H1512     1.0  0.05367  0.75823  0.37979  1.0000
  C   C1917     1.0  0.49558  0.55637  0.38492  1.0000
  C   C1918     1.0  0.43384  0.63116  0.19417  1.0000
  C   C1919     1.0  0.08495  0.65490  0.18873  1.0000
  C   C1920     1.0  0.36619  0.97142  0.35555  1.0000
  C   C1921     1.0  0.16764  0.92767  0.35726  1.0000
  C   C1922     1.0  0.17021  0.64124  0.18665  1.0000
  C   C1923     1.0  0.18535  0.92715  0.36502  1.0000
  C   C1924     1.0  0.27637  0.62566  0.27262  1.0000
  H   H1513     1.0  0.08113  0.78402  0.31544  1.0000
  H   H1514     1.0  0.32349  0.52207  0.34159  1.0000
  H   H1515     1.0  0.09924  0.68649  0.21083  1.0000
  H   H1516     1.0  0.46396  0.74923  0.22351  1.0000
  H   H1517     1.0  0.02634  0.74200  0.27065  1.0000
  H   H1518     1.0  0.21915  0.91709  0.36322  1.0000
  C   C1925     1.0  0.39323  0.65326  0.20023  1.0000
  S   S265      1.0  0.44801  0.60550  0.37401  1.0000
  H   H1519     1.0  0.06032  0.73479  0.35231  1.0000
  H   H1520     1.0  0.09552  0.71316  0.34813  1.0000
  C   C1926     1.0  0.33478  0.55665  0.26253  1.0000
  H   H1521     1.0  0.44360  0.67540  0.24456  1.0000
  C   C1927     1.0  0.06567  0.85910  0.20264  1.0000
  H   H1522     1.0  0.37381  0.72610  0.32208  1.0000
  H   H1523     1.0  0.13577  0.62507  0.22205  1.0000
  C   C1928     1.0  0.38436  0.60172  0.25866  1.0000
  C   C1929     1.0  0.11832  0.63927  0.24260  1.0000
  C   C1930     1.0  0.10493  0.65686  0.24794  1.0000
  C   C1931     1.0  0.09799  0.67378  0.23643  1.0000
  C   C1932     1.0  0.10458  0.67319  0.21960  1.0000
  C   C1933     1.0  0.11824  0.65572  0.21412  1.0000
  C   C1934     1.0  0.28186  0.83210  0.20652  1.0000
  H   H1524     1.0  0.26050  0.60106  0.26818  1.0000
  H   H1525     1.0  0.39863  0.73415  0.33902  1.0000
  C   C1935     1.0  0.10214  0.82521  0.28323  1.0000
  C   C1936     1.0  0.30988  0.55619  0.30795  1.0000
  C   C1937     1.0  0.06312  0.85179  0.18826  1.0000
  P   P65       1.0  0.42249  0.95793  0.38474  1.0000
  C   C1938     1.0  0.35660  0.58481  0.27626  1.0000
  H   H1526     1.0  0.41809  0.97545  0.35014  1.0000
  C   C1939     1.0  0.20705  0.90979  0.34290  1.0000
  H   H1527     1.0  0.22460  0.95027  0.37364  1.0000
  H   H1528     1.0  0.40529  0.61374  0.27108  1.0000
  C   C1940     1.0  0.32979  0.55654  0.29854  1.0000
  C   C1941     1.0  0.29489  0.63042  0.27651  1.0000
  C   C1942     1.0  0.38646  0.82212  0.22885  1.0000
  C   C1943     1.0  0.18784  0.62555  0.18564  1.0000
  H   H1529     1.0  0.24574  0.90193  0.19496  1.0000
  H   H1530     1.0  0.10008  0.65751  0.26098  1.0000
  H   H1531     1.0  0.08779  0.68754  0.24060  1.0000
  S   S266      1.0  0.48463  0.79857  0.36149  1.0000
  H   H1532     1.0  0.16344  0.58212  0.19152  1.0000
  H   H1533     1.0  0.11335  0.81161  0.30605  1.0000
  H   H1534     1.0  0.15616  0.92060  0.33615  1.0000
  H   H1535     1.0  0.13696  0.75825  0.33837  1.0000
  H   H1536     1.0  0.32890  0.56151  0.22196  1.0000
  H   H1537     1.0  0.44669  0.67614  0.21429  1.0000
  C   C1944     1.0  0.38146  0.59954  0.28826  1.0000
  C   C1945     1.0  0.33912  0.53447  0.26573  1.0000
  H   H1538     1.0  0.34130  0.52647  0.27793  1.0000
  H   H1539     1.0  0.47388  0.63341  0.35276  1.0000
  H   H1540     1.0  0.31032  0.67105  0.19727  1.0000
  C   C1946     1.0  0.33118  0.56627  0.24661  1.0000
  H   H1541     1.0  0.39190  0.60710  0.24643  1.0000
  H   H1542     1.0  0.19184  0.75520  0.20098  1.0000
  H   H1543     1.0  0.18521  0.87869  0.22577  1.0000
  H   H1544     1.0  0.11263  0.86133  0.19113  1.0000
  H   H1545     1.0  0.05432  0.74595  0.24696  1.0000
  C   C1947     1.0  0.32525  0.53168  0.32961  1.0000
  C   C1948     1.0  0.12498  0.63866  0.22577  1.0000
  H   H1546     1.0  0.48064  0.78894  0.26475  1.0000
  C   C1949     1.0  0.38074  0.59884  0.35696  1.0000
  H   H1547     1.0  0.17229  0.96821  0.35362  1.0000
  H   H1548     1.0  0.02866  0.70210  0.28148  1.0000
  H   H1549     1.0  0.05947  0.87527  0.20456  1.0000
  C   C1950     1.0  0.19723  0.77044  0.19740  1.0000
  C   C1951     1.0  0.45263  0.67594  0.37249  1.0000
  S   S267      1.0  0.26649  0.98098  0.37907  1.0000
  P   P66       1.0  0.33300  0.57285  0.27865  1.0000
  H   H1550     1.0  0.05756  0.69901  0.19931  1.0000
  H   H1551     1.0  0.16878  0.75605  0.28827  1.0000
  H   H1552     1.0  0.22235  0.90304  0.33723  1.0000
  C   C1952     1.0  0.33648  0.53196  0.23738  1.0000
  H   H1553     1.0  0.26316  0.63806  0.27083  1.0000
  C   C1953     1.0  0.42582  0.63606  0.20996  1.0000
  H   H1554     1.0  0.04066  0.68031  0.30621  1.0000
  H   H1555     1.0  0.01565  0.67468  0.33191  1.0000
  H   H1556     1.0  0.28354  0.79827  0.21007  1.0000
  H   H1557     1.0  0.49025  0.62388  0.31107  1.0000
  H   H1558     1.0  0.34253  0.50516  0.25585  1.0000
  C   C1954     1.0  0.27492  0.60487  0.27098  1.0000
  C   C1955     1.0  0.36689  0.59131  0.26049  1.0000
  H   H1559     1.0  0.16311  0.77168  0.35056  1.0000
  C   C1956     1.0  0.04050  0.73952  0.24569  1.0000
  H   H1560     1.0  0.42015  0.69304  0.19645  1.0000
  H   H1561     1.0  0.39927  0.65068  0.22525  1.0000
  H   H1562     1.0  0.37816  0.58311  0.35572  1.0000
  C   C1957     1.0  0.44152  0.97487  0.37480  1.0000
  H   H1563     1.0  0.11100  0.72967  0.29544  1.0000
  H   H1564     1.0  0.42438  0.70545  0.35082  1.0000
  C   C1958     1.0  0.02436  0.68749  0.30655  1.0000
  C   C1959     1.0  0.29210  0.58894  0.27283  1.0000
  H   H1565     1.0  0.29085  0.57300  0.27119  1.0000
  C   C1960     1.0  0.07565  0.72476  0.19250  1.0000
  C   C1961     1.0  0.02083  0.72516  0.22903  1.0000
  C   C1962     1.0  0.13794  0.71239  0.28249  1.0000
  C   C1963     1.0  0.15921  0.71153  0.27613  1.0000
  C   C1964     1.0  0.17020  0.72732  0.27831  1.0000
  C   C1965     1.0  0.16000  0.74385  0.28700  1.0000
  C   C1966     1.0  0.13871  0.74462  0.29370  1.0000
  C   C1967     1.0  0.12767  0.72896  0.29109  1.0000
  P   P67       1.0  0.12522  0.76614  0.30468  1.0000
  C   C1968     1.0  0.10478  0.75658  0.32016  1.0000
  C   C1969     1.0  0.14404  0.77589  0.31413  1.0000
  C   C1970     1.0  0.14646  0.76923  0.33075  1.0000
  C   C1971     1.0  0.16130  0.77682  0.33773  1.0000
  C   C1972     1.0  0.17384  0.79104  0.32818  1.0000
  C   C1973     1.0  0.17150  0.79774  0.31164  1.0000
  C   C1974     1.0  0.15665  0.79026  0.30467  1.0000
  C   C1975     1.0  0.08480  0.76872  0.32266  1.0000
  C   C1976     1.0  0.06898  0.76095  0.33437  1.0000
  C   C1977     1.0  0.07281  0.74094  0.34352  1.0000
  C   C1978     1.0  0.09264  0.72876  0.34112  1.0000
  C   C1979     1.0  0.10859  0.73653  0.32953  1.0000
  C   C1980     1.0  0.11391  0.78761  0.29054  1.0000
  C   C1981     1.0  0.10904  0.78387  0.27558  1.0000
  C   C1982     1.0  0.10095  0.80073  0.26448  1.0000
  C   C1983     1.0  0.09773  0.82139  0.26820  1.0000
  H   H1566     1.0  0.15227  0.93470  0.36260  1.0000
  C   C1984     1.0  0.47218  0.98088  0.35462  1.0000
  H   H1567     1.0  0.45893  0.95209  0.35922  1.0000
  H   H1568     1.0  0.47681  0.67135  0.35189  1.0000
  H   H1569     1.0  0.46511  0.69518  0.25605  1.0000
  C   C1985     1.0  0.33794  0.51638  0.37996  1.0000
  S   S268      1.0  0.40896  0.73869  0.19550  1.0000
  C   C1986     1.0  0.16975  0.91972  0.34230  1.0000
  H   H1570     1.0  0.17294  0.78632  0.21388  1.0000
  H   H1571     1.0  0.46929  0.60206  0.33290  1.0000
  C   C1987     1.0  0.14519  0.69157  0.19079  1.0000
  S   S269      1.0  0.24622  0.60452  0.19537  1.0000
  C   C1988     1.0  0.25197  0.85216  0.19441  1.0000
  H   H1572     1.0  0.15910  0.71951  0.19016  1.0000
  H   H1573     1.0  0.39481  0.52393  0.38339  1.0000
  C   C1989     1.0  0.14761  0.61430  0.19087  1.0000
  C   C1990     1.0  0.37896  0.52189  0.38251  1.0000
  H   H1574     1.0  0.01242  0.77683  0.23628  1.0000
  P   P68       1.0  0.18243  0.93898  0.38377  1.0000
  S   S270      1.0  0.00054  0.72972  0.34184  1.0000
  Fe  Fe139     1.0  0.00508  0.76374  0.33661  1.0000
  H   H1575     1.0  0.48071  0.83736  0.37482  1.0000
  H   H1576     1.0  0.30191  0.51001  0.27393  1.0000
  C   C1991     1.0  0.14989  0.63574  0.18940  1.0000
  C   C1992     1.0  0.22840  0.98400  0.20813  1.0000
  C   C1993     1.0  0.47737  0.78044  0.25547  1.0000
  C   C1994     1.0  0.48313  0.74840  0.24267  1.0000
  H   H1577     1.0  0.08042  0.66185  0.19998  1.0000
  C   C1995     1.0  0.22460  0.93976  0.38524  1.0000
  H   H1578     1.0  0.32209  0.51432  0.37907  1.0000
  H   H1579     1.0  0.07255  0.78762  0.38191  1.0000
  C   C1996     1.0  0.42498  0.91503  0.38174  1.0000
  C   C1997     1.0  0.18540  0.60428  0.18740  1.0000
  H   H1580     1.0  0.37081  0.59501  0.38314  1.0000
  H   H1581     1.0  0.40945  0.91892  0.37812  1.0000
  H   H1582     1.0  0.13214  0.60961  0.19331  1.0000
  H   H1583     1.0  0.42740  0.88204  0.37918  1.0000
  C   C1998     1.0  0.43510  0.89407  0.38233  1.0000
  C   C1999     1.0  0.43788  0.66622  0.38424  1.0000
  C   C2000     1.0  0.43605  0.64479  0.38466  1.0000
  S   S271      1.0  0.02637  0.70586  0.38203  1.0000
  H   H1584     1.0  0.00980  0.80303  0.37736  1.0000
  C   C2001     1.0  0.34234  0.61688  0.18626  1.0000
  C   C2002     1.0  0.21507  0.77247  0.18578  1.0000
  H   H1585     1.0  0.49343  0.68814  0.38540  1.0000
  H   H1586     1.0  0.99999  0.81218  0.24492  1.0000
  C   C2003     1.0  0.07119  0.83084  0.18563  1.0000
  C   C2004     1.0  0.04546  0.79089  0.18583  1.0000
  C   C2005     1.0  0.40249  0.96143  0.51869  1.0000
  Fe  Fe140     1.0  0.01992  0.85841  0.44043  1.0000
  S   S272      1.0  0.02832  0.83831  0.41957  1.0000
  Fe  Fe141     1.0  0.04102  0.88169  0.46129  1.0000
  H   H1587     1.0  0.39059  0.99169  0.39659  1.0000
  S   S273      1.0  0.07286  0.89151  0.46127  1.0000
  H   H1588     1.0  0.37878  0.95053  0.39350  1.0000
  C   C2006     1.0  0.41238  0.96452  0.40518  1.0000
  S   S274      1.0  0.17306  0.98929  0.49827  1.0000
  S   S275      1.0  0.03535  0.84786  0.46331  1.0000
  S   S276      1.0  0.02793  0.89138  0.43737  1.0000
  Fe  Fe142     1.0  0.02351  0.59575  0.47434  1.0000
  S   S277      1.0  0.04704  0.57149  0.46196  1.0000
  C   C2007     1.0  0.10630  0.99425  0.43000  1.0000
  S   S278      1.0  0.02859  0.62945  0.47268  1.0000
  C   C2008     1.0  0.05283  0.76374  0.39155  1.0000
  S   S279      1.0  0.03463  0.73268  0.56557  1.0000
  H   H1589     1.0  0.03755  0.68074  0.48633  1.0000
  Fe  Fe143     1.0  0.02122  0.76541  0.57109  1.0000
  S   S280      1.0  0.03429  0.79312  0.55514  1.0000
  Fe  Fe144     1.0  0.16615  0.96627  0.52119  1.0000
  S   S281      1.0  0.18905  0.95484  0.54004  1.0000
  Fe  Fe145     1.0  0.12766  0.95493  0.50865  1.0000
  C   C2009     1.0  0.23072  0.97766  0.48219  1.0000
  S   S282      1.0  0.09866  0.93841  0.51486  1.0000
  C   C2010     1.0  0.23794  0.96623  0.51020  1.0000
  C   C2011     1.0  0.00800  0.53546  0.50234  1.0000
  S   S283      1.0  0.16168  0.94065  0.50721  1.0000
  C   C2012     1.0  0.26013  0.98850  0.49131  1.0000
  H   H1590     1.0  0.01978  0.96496  0.54420  1.0000
  C   C2013     1.0  0.13833  0.90273  0.40861  1.0000
  H   H1591     1.0  0.45530  0.53606  0.47413  1.0000
  S   S284      1.0  0.12136  0.53287  0.50318  1.0000
  Fe  Fe146     1.0  0.43325  0.58468  0.39630  1.0000
  S   S285      1.0  0.40028  0.59201  0.40904  1.0000
  Fe  Fe147     1.0  0.44116  0.54190  0.41773  1.0000
  S   S286      1.0  0.40856  0.54602  0.43166  1.0000
  H   H1592     1.0  0.46885  0.95395  0.55526  1.0000
  Fe  Fe148     1.0  0.39755  0.55834  0.40727  1.0000
  C   C2014     1.0  0.15344  0.57410  0.58133  1.0000
  Fe  Fe149     1.0  0.41369  0.57895  0.43249  1.0000
  S   S287      1.0  0.40038  0.59210  0.45626  1.0000
  S   S288      1.0  0.44703  0.57438  0.42006  1.0000
  C   C2015     1.0  0.25861  0.96655  0.44502  1.0000
  H   H1593     1.0  0.44325  0.99450  0.43393  1.0000
  H   H1594     1.0  0.02587  0.93860  0.44950  1.0000
  H   H1595     1.0  0.37125  0.55817  0.47794  1.0000
  Fe  Fe150     1.0  0.40146  0.56926  0.56345  1.0000
  S   S289      1.0  0.41732  0.59757  0.55238  1.0000
  H   H1596     1.0  0.09860  0.87122  0.56453  1.0000
  Fe  Fe151     1.0  0.44259  0.54139  0.57002  1.0000
  S   S290      1.0  0.46194  0.56702  0.55952  1.0000
  C   C2016     1.0  0.99928  0.80489  0.53961  1.0000
  Fe  Fe152     1.0  0.43669  0.58844  0.57314  1.0000
  H   H1597     1.0  0.18121  0.62504  0.41288  1.0000
  Fe  Fe153     1.0  0.44111  0.57396  0.53961  1.0000
  S   S291      1.0  0.45674  0.57946  0.51332  1.0000
  S   S292      1.0  0.42379  0.54627  0.54900  1.0000
  H   H1598     1.0  0.17739  0.99811  0.54848  1.0000
  H   H1599     1.0  0.47719  0.51325  0.39421  1.0000
  C   C2017     1.0  0.46285  0.63722  0.56776  1.0000
  C   C2018     1.0  0.00036  0.54809  0.48870  1.0000
  C   C2019     1.0  0.27881  0.96126  0.41844  1.0000
  H   H1600     1.0  0.45967  0.88715  0.44728  1.0000
  H   H1601     1.0  0.11714  0.83418  0.56523  1.0000
  S   S293      1.0  0.46163  0.51318  0.42917  1.0000
  C   C2020     1.0  0.45521  0.92501  0.39026  1.0000
  C   C2021     1.0  0.41613  0.58796  0.47210  1.0000
  C   C2022     1.0  0.43748  0.57983  0.46936  1.0000
  C   C2023     1.0  0.44984  0.57742  0.48208  1.0000
  C   C2024     1.0  0.44078  0.58248  0.49772  1.0000
  C   C2025     1.0  0.41934  0.59023  0.50056  1.0000
  C   C2026     1.0  0.40714  0.59327  0.48769  1.0000
  H   H1602     1.0  0.44457  0.57587  0.45733  1.0000
  H   H1603     1.0  0.46646  0.57160  0.47979  1.0000
  H   H1604     1.0  0.41228  0.59434  0.51256  1.0000
  H   H1605     1.0  0.39067  0.59981  0.48981  1.0000
  H   H1606     1.0  0.29123  0.57992  0.54295  1.0000
  C   C2027     1.0  0.13468  0.93341  0.42252  1.0000
  H   H1607     1.0  0.10588  0.98428  0.42082  1.0000
  C   C2028     1.0  0.15699  0.55280  0.52577  1.0000
  H   H1608     1.0  0.01595  0.57384  0.42611  1.0000
  C   C2029     1.0  0.43500  0.93067  0.38571  1.0000
  P   P69       1.0  0.33935  0.55007  0.50730  1.0000
  C   C2030     1.0  0.33839  0.55441  0.48526  1.0000
  C   C2031     1.0  0.00988  0.96684  0.48173  1.0000
  H   H1609     1.0  0.45480  0.95579  0.43976  1.0000
  C   C2032     1.0  0.31118  0.53751  0.53476  1.0000
  C   C2033     1.0  0.28258  0.58275  0.55485  1.0000
  C   C2034     1.0  0.31921  0.55566  0.47925  1.0000
  H   H1610     1.0  0.01126  0.87936  0.51825  1.0000
  H   H1611     1.0  0.21268  0.95758  0.50033  1.0000
  C   C2035     1.0  0.43580  0.71820  0.57340  1.0000
  C   C2036     1.0  0.46267  0.96494  0.42926  1.0000
  H   H1612     1.0  0.38684  0.98484  0.54707  1.0000
  Fe  Fe154     1.0  0.01419  0.62630  0.49933  1.0000
  H   H1613     1.0  0.09403  0.50089  0.51810  1.0000
  C   C2037     1.0  0.32065  0.59241  0.50658  1.0000
  H   H1614     1.0  0.49020  0.99771  0.39132  1.0000
  H   H1615     1.0  0.12733  0.94205  0.43262  1.0000
  C   C2038     1.0  0.47981  0.97489  0.53361  1.0000
  C   C2039     1.0  0.06356  0.78017  0.39277  1.0000
  H   H1616     1.0  0.45921  0.62903  0.55849  1.0000
  C   C2040     1.0  0.42155  0.99107  0.51537  1.0000
  S   S294      1.0  0.17800  0.51028  0.48435  1.0000
  H   H1617     1.0  0.22572  0.90204  0.42657  1.0000
  C   C2041     1.0  0.19865  0.96919  0.55303  1.0000
  C   C2042     1.0  0.35560  0.98956  0.56015  1.0000
  H   H1618     1.0  0.16998  0.52106  0.58237  1.0000
  C   C2043     1.0  0.15454  0.91031  0.39718  1.0000
  C   C2044     1.0  0.00243  0.79973  0.46367  1.0000
  H   H1619     1.0  0.38058  0.56389  0.50210  1.0000
  H   H1620     1.0  0.33535  0.56754  0.43810  1.0000
  H   H1621     1.0  0.25849  0.91457  0.41168  1.0000
  C   C2045     1.0  0.33203  0.55293  0.57931  1.0000
  C   C2046     1.0  0.06682  0.55965  0.47400  1.0000
  C   C2047     1.0  0.08261  0.54405  0.46813  1.0000
  C   C2048     1.0  0.09939  0.53559  0.47704  1.0000
  C   C2049     1.0  0.10005  0.54223  0.49210  1.0000
  C   C2050     1.0  0.08369  0.55707  0.49833  1.0000
  C   C2051     1.0  0.06735  0.56609  0.48915  1.0000
  H   H1622     1.0  0.08212  0.53888  0.45649  1.0000
  H   H1623     1.0  0.11193  0.52425  0.47209  1.0000
  H   H1624     1.0  0.08387  0.56202  0.51011  1.0000
  H   H1625     1.0  0.05539  0.57826  0.49373  1.0000
  H   H1626     1.0  0.28504  0.95118  0.40903  1.0000
  C   C2052     1.0  0.00623  0.68819  0.47989  1.0000
  H   H1627     1.0  0.19275  0.91241  0.41473  1.0000
  C   C2053     1.0  0.03015  0.51193  0.48442  1.0000
  C   C2054     1.0  0.03013  0.66764  0.53672  1.0000
  H   H1628     1.0  0.02884  0.69103  0.55283  1.0000
  H   H1629     1.0  0.04707  0.66396  0.53520  1.0000
  C   C2055     1.0  0.07951  0.90443  0.47648  1.0000
  C   C2056     1.0  0.06581  0.90803  0.49092  1.0000
  C   C2057     1.0  0.07189  0.91834  0.50267  1.0000
  C   C2058     1.0  0.09150  0.92546  0.49992  1.0000
  C   C2059     1.0  0.10503  0.92209  0.48540  1.0000
  C   C2060     1.0  0.09911  0.91150  0.47381  1.0000
  H   H1630     1.0  0.05059  0.90290  0.49302  1.0000
  H   H1631     1.0  0.06130  0.92102  0.51383  1.0000
  H   H1632     1.0  0.12018  0.92745  0.48319  1.0000
  H   H1633     1.0  0.10980  0.90878  0.46270  1.0000
  H   H1634     1.0  0.31122  0.67915  0.56017  1.0000
  C   C2061     1.0  0.02020  0.82860  0.51260  1.0000
  C   C2062     1.0  0.03102  0.81786  0.52549  1.0000
  C   C2063     1.0  0.02061  0.80584  0.53894  1.0000
  H   H1635     1.0  0.27735  0.50145  0.54301  1.0000
  C   C2064     1.0  0.31816  0.56009  0.46232  1.0000
  H   H1636     1.0  0.02829  0.83771  0.50219  1.0000
  H   H1637     1.0  0.04751  0.81867  0.52496  1.0000
  H   H1638     1.0  0.47567  0.53807  0.51153  1.0000
  H   H1639     1.0  0.26001  0.52357  0.38785  1.0000
  S   S295      1.0  0.01133  0.59186  0.50135  1.0000
  C   C2065     1.0  0.01754  0.81860  0.39612  1.0000
  C   C2066     1.0  0.00573  0.76846  0.48402  1.0000
  H   H1640     1.0  0.06079  0.94162  0.45623  1.0000
  C   C2067     1.0  0.44772  0.62468  0.44569  1.0000
  H   H1641     1.0  0.49593  0.89533  0.54570  1.0000
  H   H1642     1.0  0.35592  0.50254  0.55945  1.0000
  H   H1643     1.0  0.24179  0.86780  0.56545  1.0000
  H   H1644     1.0  0.01076  0.79470  0.43838  1.0000
  C   C2068     1.0  0.47913  0.95478  0.41888  1.0000
  H   H1645     1.0  0.00235  0.53967  0.51452  1.0000
  C   C2069     1.0  0.19255  0.54190  0.51317  1.0000
  H   H1646     1.0  0.04288  0.67764  0.40889  1.0000
  C   C2070     1.0  0.47125  0.88858  0.45482  1.0000
  H   H1647     1.0  0.30498  0.60032  0.56006  1.0000
  C   C2071     1.0  0.12665  0.58988  0.54713  1.0000
  S   S296      1.0  0.18999  0.50055  0.43990  1.0000
  S   S297      1.0  0.45541  0.50951  0.58275  1.0000
  H   H1648     1.0  0.47331  0.97938  0.47054  1.0000
  H   H1649     1.0  0.39350  0.99194  0.50476  1.0000
  C   C2072     1.0  0.22546  0.91240  0.41494  1.0000
  H   H1650     1.0  0.40653  0.94975  0.48164  1.0000
  H   H1651     1.0  0.21528  0.53077  0.52990  1.0000
  H   H1652     1.0  0.16621  0.55243  0.49974  1.0000
  H   H1653     1.0  0.05065  0.63739  0.40933  1.0000
  H   H1654     1.0  0.34665  0.60167  0.54296  1.0000
  H   H1655     1.0  0.14496  0.58760  0.57453  1.0000
  H   H1656     1.0  0.46778  0.82530  0.54586  1.0000
  H   H1657     1.0  0.43219  0.93888  0.41806  1.0000
  H   H1658     1.0  0.14264  0.59250  0.54250  1.0000
  C   C2073     1.0  0.17918  0.98030  0.39062  1.0000
  C   C2074     1.0  0.37660  0.98020  0.55819  1.0000
  H   H1659     1.0  0.42967  0.74897  0.55927  1.0000
  Fe  Fe155     1.0  0.14475  0.50587  0.49405  1.0000
  C   C2075     1.0  0.34931  0.51654  0.56509  1.0000
  C   C2076     1.0  0.02595  0.67896  0.41127  1.0000
  C   C2077     1.0  0.37115  0.95931  0.58526  1.0000
  C   C2078     1.0  0.46477  0.62303  0.41769  1.0000
  C   C2079     1.0  0.44262  0.99479  0.58217  1.0000
  C   C2080     1.0  0.01614  0.66924  0.42630  1.0000
  C   C2081     1.0  0.21512  0.95899  0.56183  1.0000
  C   C2082     1.0  0.22595  0.96622  0.49777  1.0000
  C   C2083     1.0  0.45613  0.98688  0.42600  1.0000
  C   C2084     1.0  0.00450  0.97006  0.52246  1.0000
  H   H1660     1.0  0.42463  0.63752  0.39377  1.0000
  H   H1661     1.0  0.04352  0.64635  0.56702  1.0000
  H   H1662     1.0  0.32523  0.56696  0.58484  1.0000
  H   H1663     1.0  0.48079  0.89986  0.39459  1.0000
  H   H1664     1.0  0.43348  0.62719  0.45437  1.0000
  C   C2085     1.0  0.00068  0.74290  0.43327  1.0000
  H   H1665     1.0  0.00326  0.51611  0.55694  1.0000
  C   C2086     1.0  0.33608  0.56389  0.45124  1.0000
  H   H1666     1.0  0.32812  0.54067  0.39572  1.0000
  H   H1667     1.0  0.08264  0.77301  0.56142  1.0000
  C   C2087     1.0  0.48277  0.98863  0.40210  1.0000
  C   C2088     1.0  0.00810  0.97505  0.53742  1.0000
  C   C2089     1.0  0.47854  0.66540  0.57505  1.0000
  H   H1668     1.0  0.12251  0.89764  0.56199  1.0000
  H   H1669     1.0  0.01325  0.95588  0.51794  1.0000
  H   H1670     1.0  0.31325  0.59021  0.49640  1.0000
  H   H1671     1.0  0.11336  0.62161  0.53790  1.0000
  P   P70       1.0  0.48384  0.93308  0.48038  1.0000
  C   C2090     1.0  0.45898  0.97250  0.47334  1.0000
  C   C2091     1.0  0.49348  0.90317  0.53345  1.0000
  C   C2092     1.0  0.41973  0.95217  0.41918  1.0000
  C   C2093     1.0  0.33933  0.59912  0.53283  1.0000
  H   H1672     1.0  0.37761  0.63057  0.38633  1.0000
  C   C2094     1.0  0.21798  0.97811  0.41931  1.0000
  C   C2095     1.0  0.03796  0.89274  0.55491  1.0000
  C   C2096     1.0  0.26665  0.95353  0.43288  1.0000
  H   H1673     1.0  0.20364  0.53860  0.50235  1.0000
  C   C2097     1.0  0.12137  0.89038  0.55138  1.0000
  H   H1674     1.0  0.18999  0.53615  0.55472  1.0000
  H   H1675     1.0  0.00422  0.76124  0.49680  1.0000
  H   H1676     1.0  0.03363  0.81884  0.39042  1.0000
  C   C2098     1.0  0.47316  0.91063  0.52971  1.0000
  H   H1677     1.0  0.41839  0.51138  0.52643  1.0000
  H   H1678     1.0  0.31695  0.54824  0.54105  1.0000
  C   C2099     1.0  0.44650  0.62673  0.42888  1.0000
  H   H1679     1.0  0.41494  0.93328  0.53373  1.0000
  C   C2100     1.0  0.47009  0.92052  0.51381  1.0000
  C   C2101     1.0  0.31598  0.66258  0.56452  1.0000
  C   C2102     1.0  0.45916  0.95069  0.47868  1.0000
  H   H1680     1.0  0.13950  0.51761  0.53891  1.0000
  H   H1681     1.0  0.44400  0.94896  0.54000  1.0000
  C   C2103     1.0  0.18463  0.54060  0.54281  1.0000
  Fe  Fe156     1.0  0.00371  0.85936  0.47670  1.0000
  C   C2104     1.0  0.00080  0.58384  0.42616  1.0000
  C   C2105     1.0  0.46523  0.90406  0.39092  1.0000
  C   C2106     1.0  0.12710  0.51602  0.58062  1.0000
  C   C2107     1.0  0.24387  0.91959  0.40665  1.0000
  C   C2108     1.0  0.14412  0.65858  0.57771  1.0000
  H   H1682     1.0  0.46364  0.62418  0.40473  1.0000
  C   C2109     1.0  0.44000  0.94269  0.48194  1.0000
  H   H1683     1.0  0.35872  0.62419  0.56250  1.0000
  H   H1684     1.0  0.45189  0.71499  0.56749  1.0000
  H   H1685     1.0  0.13362  0.88773  0.40780  1.0000
  C   C2110     1.0  0.38798  0.98677  0.42294  1.0000
  H   H1686     1.0  0.01637  0.73895  0.47466  1.0000
  H   H1687     1.0  0.10789  0.76969  0.58131  1.0000
  H   H1688     1.0  0.45979  0.90844  0.53909  1.0000
  C   C2111     1.0  0.38640  0.50731  0.52638  1.0000
  C   C2112     1.0  0.41852  0.50686  0.46973  1.0000
  H   H1689     1.0  0.01024  0.91548  0.52500  1.0000
  H   H1690     1.0  0.45429  0.92570  0.51106  1.0000
  H   H1691     1.0  0.38886  0.97831  0.44896  1.0000
  C   C2113     1.0  0.27446  0.99530  0.42800  1.0000
  H   H1692     1.0  0.35380  0.50803  0.52513  1.0000
  C   C2114     1.0  0.21410  0.99022  0.57495  1.0000
  C   C2115     1.0  0.19007  0.99007  0.55512  1.0000
  H   H1693     1.0  0.23004  0.97284  0.40965  1.0000
  H   H1694     1.0  0.41484  0.54694  0.51017  1.0000
  C   C2116     1.0  0.10169  0.56717  0.56159  1.0000
  H   H1695     1.0  0.99850  0.81674  0.46067  1.0000
  H   H1696     1.0  0.43964  0.92599  0.48603  1.0000
  C   C2117     1.0  0.39647  0.98189  0.40720  1.0000
  H   H1697     1.0  0.07656  0.61610  0.54835  1.0000
  H   H1698     1.0  0.41710  0.94758  0.44563  1.0000
  C   C2118     1.0  0.24793  0.98885  0.47879  1.0000
  H   H1699     1.0  0.45817  0.92037  0.45817  1.0000
  C   C2119     1.0  0.49649  0.81959  0.52932  1.0000
  H   H1700     1.0  0.41724  0.53961  0.47259  1.0000
  H   H1701     1.0  0.49194  0.59324  0.56691  1.0000
  H   H1702     1.0  0.99900  0.71541  0.45169  1.0000
  C   C2120     1.0  0.09526  0.82302  0.55285  1.0000
  H   H1703     1.0  0.01663  0.90234  0.39989  1.0000
  P   P71       1.0  0.08734  0.84815  0.54069  1.0000
  C   C2121     1.0  0.06238  0.86071  0.55019  1.0000
  C   C2122     1.0  0.10614  0.86617  0.53897  1.0000
  C   C2123     1.0  0.11781  0.87250  0.52370  1.0000
  C   C2124     1.0  0.13116  0.88760  0.52237  1.0000
  C   C2125     1.0  0.34867  0.51517  0.44307  1.0000
  C   C2126     1.0  0.13418  0.51198  0.55166  1.0000
  H   H1704     1.0  0.47020  0.98873  0.56470  1.0000
  C   C2127     1.0  0.04795  0.84863  0.56015  1.0000
  C   C2128     1.0  0.22290  0.96945  0.57265  1.0000
  C   C2129     1.0  0.02968  0.96937  0.48497  1.0000
  C   C2130     1.0  0.46138  0.50300  0.47158  1.0000
  C   C2131     1.0  0.05713  0.88287  0.54749  1.0000
  C   C2132     1.0  0.08480  0.84349  0.52036  1.0000
  C   C2133     1.0  0.09893  0.82781  0.51278  1.0000
  C   C2134     1.0  0.09744  0.82465  0.49679  1.0000
  C   C2135     1.0  0.08193  0.83719  0.48825  1.0000
  C   C2136     1.0  0.06787  0.85278  0.49574  1.0000
  C   C2137     1.0  0.06930  0.85602  0.51169  1.0000
  H   H1705     1.0  0.07472  0.80652  0.54332  1.0000
  C   C2138     1.0  0.11427  0.80179  0.57422  1.0000
  H   H1706     1.0  0.16243  0.90074  0.38780  1.0000
  H   H1707     1.0  0.18416  0.97327  0.40237  1.0000
  H   H1708     1.0  0.47923  0.65933  0.55021  1.0000
  H   H1709     1.0  0.11632  0.86634  0.51268  1.0000
  H   H1710     1.0  0.13964  0.89292  0.51049  1.0000
  H   H1711     1.0  0.12122  0.68052  0.56510  1.0000
  C   C2139     1.0  0.34141  0.53125  0.38943  1.0000
  H   H1712     1.0  0.15559  0.95570  0.41256  1.0000
  H   H1713     1.0  0.05131  0.83154  0.56228  1.0000
  H   H1714     1.0  0.26116  0.56019  0.39235  1.0000
  C   C2140     1.0  0.29761  0.50748  0.51999  1.0000
  H   H1715     1.0  0.21145  0.50984  0.40728  1.0000
  H   H1716     1.0  0.06786  0.89254  0.53963  1.0000
  H   H1717     1.0  0.11121  0.81818  0.51917  1.0000
  H   H1718     1.0  0.10840  0.81262  0.49095  1.0000
  H   H1719     1.0  0.08092  0.83505  0.47575  1.0000
  H   H1720     1.0  0.05601  0.86263  0.48905  1.0000
  H   H1721     1.0  0.05842  0.86843  0.51708  1.0000
  H   H1722     1.0  0.06326  0.96148  0.47882  1.0000
  C   C2141     1.0  0.34330  0.57926  0.52752  1.0000
  C   C2142     1.0  0.32597  0.61560  0.52514  1.0000
  H   H1723     1.0  0.02798  0.52123  0.45841  1.0000
  C   C2143     1.0  0.99939  0.60563  0.42597  1.0000
  C   C2144     1.0  0.26253  0.98756  0.44275  1.0000
  H   H1724     1.0  0.32293  0.63097  0.52935  1.0000
  C   C2145     1.0  0.00772  0.54293  0.47291  1.0000
  C   C2146     1.0  0.35509  0.56309  0.45708  1.0000
  H   H1725     1.0  0.00498  0.87001  0.39464  1.0000
  C   C2147     1.0  0.31931  0.53494  0.51836  1.0000
  C   C2148     1.0  0.12257  0.57016  0.55576  1.0000
  C   C2149     1.0  0.44225  0.99751  0.55272  1.0000
  H   H1726     1.0  0.14057  0.55770  0.52441  1.0000
  C   C2150     1.0  0.06243  0.78721  0.40797  1.0000
  C   C2151     1.0  0.29584  0.52575  0.54345  1.0000
  H   H1727     1.0  0.13997  0.98695  0.42940  1.0000
  C   C2152     1.0  0.04078  0.75449  0.40547  1.0000
  C   C2153     1.0  0.03910  0.76188  0.42070  1.0000
  C   C2154     1.0  0.05046  0.77794  0.42194  1.0000
  P   P72       1.0  0.02437  0.74900  0.43869  1.0000
  H   H1728     1.0  0.06911  0.58131  0.56337  1.0000
  C   C2155     1.0  0.04182  0.72569  0.44574  1.0000
  C   C2156     1.0  0.04262  0.70671  0.43949  1.0000
  C   C2157     1.0  0.05640  0.68871  0.44472  1.0000
  C   C2158     1.0  0.06969  0.68969  0.45606  1.0000
  C   C2159     1.0  0.06938  0.70871  0.46202  1.0000
  C   C2160     1.0  0.05568  0.72673  0.45673  1.0000
  H   H1729     1.0  0.25434  0.50739  0.44366  1.0000
  H   H1730     1.0  0.00211  0.55307  0.46233  1.0000
  C   C2161     1.0  0.13450  0.52388  0.56430  1.0000
  H   H1731     1.0  0.24758  0.63396  0.58345  1.0000
  H   H1732     1.0  0.28971  0.52773  0.55615  1.0000
  C   C2162     1.0  0.38442  0.96519  0.57069  1.0000
  C   C2163     1.0  0.27814  0.55038  0.41316  1.0000
  C   C2164     1.0  0.01764  0.70209  0.50166  1.0000
  C   C2165     1.0  0.01389  0.69151  0.39974  1.0000
  C   C2166     1.0  0.44851  0.52240  0.47294  1.0000
  C   C2167     1.0  0.02255  0.52491  0.47075  1.0000
  H   H1733     1.0  0.07042  0.80022  0.40889  1.0000
  C   C2168     1.0  0.18715  0.99166  0.44470  1.0000
  C   C2169     1.0  0.01986  0.68300  0.54665  1.0000
  H   H1734     1.0  0.03270  0.74164  0.40429  1.0000
  H   H1735     1.0  0.04995  0.78356  0.43359  1.0000
  H   H1736     1.0  0.03269  0.70597  0.43046  1.0000
  H   H1737     1.0  0.05687  0.67407  0.43987  1.0000
  H   H1738     1.0  0.08037  0.67580  0.46011  1.0000
  H   H1739     1.0  0.07985  0.70957  0.47066  1.0000
  H   H1740     1.0  0.05597  0.74148  0.46117  1.0000
  H   H1741     1.0  0.47813  0.50170  0.47143  1.0000
  C   C2170     1.0  0.10792  0.87537  0.55276  1.0000
  C   C2171     1.0  0.21168  0.96369  0.43307  1.0000
  H   H1742     1.0  0.45753  0.86174  0.53183  1.0000
  C   C2172     1.0  0.08521  0.58372  0.55894  1.0000
  H   H1743     1.0  0.36885  0.56664  0.44851  1.0000
  C   C2173     1.0  0.38216  0.54781  0.50838  1.0000
  C   C2174     1.0  0.26841  0.54692  0.40027  1.0000
  H   H1744     1.0  0.30337  0.56092  0.45779  1.0000
  S   S298      1.0  0.13141  0.97838  0.52484  1.0000
  C   C2175     1.0  0.16955  0.62900  0.42323  1.0000
  C   C2176     1.0  0.17090  0.64598  0.43124  1.0000
  C   C2177     1.0  0.15577  0.65115  0.44452  1.0000
  C   C2178     1.0  0.13932  0.63930  0.44986  1.0000
  C   C2179     1.0  0.13802  0.62204  0.44202  1.0000
  C   C2180     1.0  0.15312  0.61713  0.42853  1.0000
  P   P73       1.0  0.11646  0.60711  0.44841  1.0000
  C   C2181     1.0  0.09568  0.61755  0.43606  1.0000
  C   C2182     1.0  0.12591  0.57977  0.44576  1.0000
  C   C2183     1.0  0.11420  0.56824  0.43870  1.0000
  C   C2184     1.0  0.12209  0.54742  0.43601  1.0000
  C   C2185     1.0  0.14158  0.53789  0.44047  1.0000
  C   C2186     1.0  0.15328  0.54917  0.44758  1.0000
  C   C2187     1.0  0.14554  0.57004  0.45017  1.0000
  C   C2188     1.0  0.07535  0.61291  0.44183  1.0000
  C   C2189     1.0  0.05919  0.62009  0.43227  1.0000
  C   C2190     1.0  0.06317  0.63205  0.41683  1.0000
  C   C2191     1.0  0.08331  0.63703  0.41104  1.0000
  C   C2192     1.0  0.09958  0.62976  0.42058  1.0000
  C   C2193     1.0  0.10652  0.60918  0.46982  1.0000
  C   C2194     1.0  0.11478  0.59471  0.48253  1.0000
  C   C2195     1.0  0.10693  0.59669  0.49901  1.0000
  C   C2196     1.0  0.09057  0.61285  0.50291  1.0000
  C   C2197     1.0  0.08250  0.62746  0.49037  1.0000
  C   C2198     1.0  0.09049  0.62574  0.47392  1.0000
  C   C2199     1.0  0.01858  0.65715  0.52867  1.0000
  H   H1745     1.0  0.18364  0.65517  0.42711  1.0000
  H   H1746     1.0  0.15678  0.66438  0.45067  1.0000
  H   H1747     1.0  0.12771  0.64364  0.46011  1.0000
  H   H1748     1.0  0.15218  0.60414  0.42208  1.0000
  H   H1749     1.0  0.09889  0.57507  0.43540  1.0000
  H   H1750     1.0  0.11289  0.53857  0.43070  1.0000
  H   H1751     1.0  0.14765  0.52174  0.43846  1.0000
  H   H1752     1.0  0.16841  0.54165  0.45102  1.0000
  H   H1753     1.0  0.15490  0.57857  0.45560  1.0000
  H   H1754     1.0  0.07208  0.60346  0.45370  1.0000
  H   H1755     1.0  0.04365  0.61612  0.43688  1.0000
  H   H1756     1.0  0.11511  0.63354  0.41577  1.0000
  H   H1757     1.0  0.12683  0.58154  0.47988  1.0000
  H   H1758     1.0  0.11293  0.58506  0.50872  1.0000
  H   H1759     1.0  0.08377  0.61385  0.51561  1.0000
  H   H1760     1.0  0.06968  0.63986  0.49342  1.0000
  H   H1761     1.0  0.08384  0.63713  0.46441  1.0000
  C   C2200     1.0  0.48737  0.92323  0.50158  1.0000
  C   C2201     1.0  0.13296  0.89650  0.53619  1.0000
  C   C2202     1.0  0.19642  0.97050  0.44586  1.0000
  C   C2203     1.0  0.48766  0.87203  0.45740  1.0000
  H   H1762     1.0  0.24934  0.96002  0.45604  1.0000
  C   C2204     1.0  0.33418  0.57578  0.51421  1.0000
  C   C2205     1.0  0.48581  0.90982  0.47042  1.0000
  C   C2206     1.0  0.26390  0.57448  0.56056  1.0000
  H   H1763     1.0  0.35967  0.52526  0.43614  1.0000
  C   C2207     1.0  0.02266  0.51732  0.50027  1.0000
  C   C2208     1.0  0.44013  0.98586  0.47108  1.0000
  S   S299      1.0  0.36551  0.55199  0.40362  1.0000
  C   C2209     1.0  0.04799  0.96017  0.47588  1.0000
  P   P74       1.0  0.14405  0.54911  0.55964  1.0000
  C   C2210     1.0  0.32934  0.51757  0.57453  1.0000
  H   H1764     1.0  0.36296  0.51041  0.46517  1.0000
  H   H1765     1.0  0.29222  0.98813  0.40481  1.0000
  C   C2211     1.0  0.40254  0.74136  0.57643  1.0000
  C   C2212     1.0  0.11013  0.60641  0.54455  1.0000
  H   H1766     1.0  0.46797  0.61669  0.46445  1.0000
  H   H1767     1.0  0.40679  0.98817  0.47208  1.0000
  C   C2213     1.0  0.15074  0.94115  0.41103  1.0000
  H   H1768     1.0  0.02782  0.50731  0.51106  1.0000
  C   C2214     1.0  0.16070  0.92978  0.39812  1.0000
  H   H1769     1.0  0.35349  0.56668  0.53389  1.0000
  C   C2215     1.0  0.20670  0.91845  0.40819  1.0000
  H   H1770     1.0  0.39393  0.52580  0.58181  1.0000
  C   C2216     1.0  0.31658  0.61223  0.51205  1.0000
  C   C2217     1.0  0.48204  0.95759  0.54615  1.0000
  C   C2218     1.0  0.10959  0.82102  0.56411  1.0000
  P   P75       1.0  0.45481  0.99189  0.53250  1.0000
  H   H1771     1.0  0.29439  0.53622  0.43357  1.0000
  C   C2219     1.0  0.41119  0.95708  0.43492  1.0000
  C   C2220     1.0  0.47040  0.90747  0.46116  1.0000
  H   H1772     1.0  0.01337  0.61255  0.42574  1.0000
  S   S300      1.0  0.42982  0.55144  0.39299  1.0000
  C   C2221     1.0  0.99830  0.90604  0.53117  1.0000
  C   C2222     1.0  0.02884  0.85857  0.56758  1.0000
  C   C2223     1.0  0.42706  0.52434  0.47207  1.0000
  S   S301      1.0  0.13252  0.97666  0.48491  1.0000
  C   C2224     1.0  0.00959  0.78723  0.45107  1.0000
  H   H1773     1.0  0.25814  0.56498  0.55318  1.0000
  C   C2225     1.0  0.33274  0.51052  0.43551  1.0000
  C   C2226     1.0  0.10461  0.78447  0.57325  1.0000
  C   C2227     1.0  0.36079  0.53350  0.56302  1.0000
  H   H1774     1.0  0.30626  0.62504  0.50604  1.0000
  C   C2228     1.0  0.47779  0.83184  0.53519  1.0000
  H   H1775     1.0  0.40081  0.95850  0.56892  1.0000
  H   H1776     1.0  0.38937  0.95474  0.51630  1.0000
  C   C2229     1.0  0.17151  0.54968  0.51170  1.0000
  C   C2230     1.0  0.40361  0.51821  0.52221  1.0000
  C   C2231     1.0  0.02381  0.88059  0.56497  1.0000
  H   H1777     1.0  0.34799  0.66223  0.55266  1.0000
  C   C2232     1.0  0.34276  0.63172  0.56591  1.0000
  H   H1778     1.0  0.02975  0.70281  0.50895  1.0000
  H   H1779     1.0  0.48866  0.85767  0.45204  1.0000
  C   C2233     1.0  0.29025  0.59455  0.56457  1.0000
  C   C2234     1.0  0.02204  0.68967  0.48891  1.0000
  H   H1780     1.0  0.22185  0.94283  0.56035  1.0000
  H   H1781     1.0  0.00289  0.81251  0.57974  1.0000
  H   H1782     1.0  0.04194  0.99874  0.45636  1.0000
  H   H1783     1.0  0.30491  0.55369  0.48763  1.0000
  C   C2235     1.0  0.32065  0.53590  0.58154  1.0000
  C   C2236     1.0  0.34230  0.98363  0.57446  1.0000
  S   S302      1.0  0.49258  0.68697  0.56876  1.0000
  H   H1784     1.0  0.14296  0.90854  0.53503  1.0000
  C   C2237     1.0  0.99886  0.82773  0.51334  1.0000
  H   H1785     1.0  0.23379  0.95780  0.52239  1.0000
  C   C2238     1.0  0.12550  0.99576  0.43476  1.0000
  H   H1786     1.0  0.33320  0.60338  0.58010  1.0000
  C   C2239     1.0  0.15586  0.55376  0.57675  1.0000
  H   H1787     1.0  0.17564  0.99702  0.45465  1.0000
  C   C2240     1.0  0.40155  0.53836  0.51311  1.0000
  C   C2241     1.0  0.36477  0.53694  0.51230  1.0000
  C   C2242     1.0  0.25272  0.57829  0.57589  1.0000
  H   H1788     1.0  0.08633  0.64638  0.39906  1.0000
  C   C2243     1.0  0.42120  0.95607  0.47939  1.0000
  C   C2244     1.0  0.31292  0.51930  0.51123  1.0000
  C   C2245     1.0  0.08941  0.60334  0.55046  1.0000
  H   H1789     1.0  0.21889  0.94730  0.43396  1.0000
  H   H1790     1.0  0.45535  0.92078  0.57817  1.0000
  H   H1791     1.0  0.26418  0.97743  0.51672  1.0000
  H   H1792     1.0  0.31974  0.51621  0.49892  1.0000
  S   S303      1.0  0.01065  0.89206  0.47692  1.0000
  H   H1793     1.0  0.03115  0.97829  0.49450  1.0000
  H   H1794     1.0  0.09804  0.55210  0.56815  1.0000
  H   H1795     1.0  0.27841  0.56640  0.41524  1.0000
  Fe  Fe157     1.0  0.16688  0.96438  0.48459  1.0000
  H   H1796     1.0  0.48093  0.87654  0.50752  1.0000
  C   C2246     1.0  0.23598  0.86663  0.57850  1.0000
  C   C2247     1.0  0.16343  0.54831  0.54146  1.0000
  H   H1797     1.0  0.48652  0.60707  0.53835  1.0000
  C   C2248     1.0  0.19912  0.53751  0.52871  1.0000
  S   S304      1.0  0.03199  0.63805  0.51631  1.0000
  C   C2249     1.0  0.02698  0.94730  0.45935  1.0000
  H   H1798     1.0  0.29965  0.99542  0.45279  1.0000
  C   C2250     1.0  0.35633  0.55826  0.47395  1.0000
  C   C2251     1.0  0.42326  0.73730  0.56876  1.0000
  C   C2252     1.0  0.04663  0.94907  0.46311  1.0000
  C   C2253     1.0  0.43358  0.95824  0.53184  1.0000
  C   C2254     1.0  0.41694  0.94936  0.52847  1.0000
  C   C2255     1.0  0.35227  0.55165  0.57033  1.0000
  C   C2256     1.0  0.00870  0.95633  0.46852  1.0000
  C   C2257     1.0  0.28899  0.51079  0.53608  1.0000
  H   H1799     1.0  0.26330  0.93745  0.43469  1.0000
  H   H1800     1.0  0.42785  0.67533  0.39311  1.0000
  C   C2258     1.0  0.46719  0.61875  0.45134  1.0000
  C   C2259     1.0  0.09049  0.78628  0.56200  1.0000
  C   C2260     1.0  0.42130  0.97764  0.47393  1.0000
  C   C2261     1.0  0.36705  0.51654  0.52136  1.0000
  C   C2262     1.0  0.28276  0.98212  0.41603  1.0000
  C   C2263     1.0  0.12837  0.91428  0.42126  1.0000
  H   H1801     1.0  0.37613  0.53264  0.55570  1.0000
  C   C2264     1.0  0.01289  0.75594  0.47144  1.0000
  C   C2265     1.0  0.20620  0.93201  0.39317  1.0000
  H   H1802     1.0  0.02541  0.66043  0.43551  1.0000
  C   C2266     1.0  0.48550  0.61499  0.44015  1.0000
  S   S305      1.0  0.18913  0.95224  0.46308  1.0000
  H   H1803     1.0  0.06848  0.51140  0.49837  1.0000
  C   C2267     1.0  0.25504  0.97733  0.50697  1.0000
  H   H1804     1.0  0.03414  0.90982  0.55286  1.0000
  H   H1805     1.0  0.33169  0.51725  0.42283  1.0000
  H   H1806     1.0  0.11596  0.90824  0.43022  1.0000
  C   C2268     1.0  0.43613  0.97918  0.52524  1.0000
  C   C2269     1.0  0.01038  0.82751  0.41069  1.0000
  C   C2270     1.0  0.01538  0.76530  0.45488  1.0000
  C   C2271     1.0  0.39535  0.97437  0.43680  1.0000
  C   C2272     1.0  0.08596  0.80539  0.55178  1.0000
  C   C2273     1.0  0.04378  0.64723  0.57987  1.0000
  C   C2274     1.0  0.27744  0.50907  0.40770  1.0000
  C   C2275     1.0  0.48526  0.86071  0.51370  1.0000
  C   C2276     1.0  0.45521  0.88859  0.38692  1.0000
  C   C2277     1.0  0.47210  0.85236  0.52734  1.0000
  C   C2278     1.0  0.45333  0.99321  0.56629  1.0000
  C   C2279     1.0  0.47410  0.65442  0.56311  1.0000
  H   H1807     1.0  0.48214  0.52135  0.55242  1.0000
  S   S306      1.0  0.36600  0.57341  0.56789  1.0000
  Fe  Fe158     1.0  0.00202  0.72514  0.57372  1.0000
  C   C2280     1.0  0.28741  0.53321  0.42341  1.0000
  C   C2281     1.0  0.32825  0.61991  0.57585  1.0000
  C   C2282     1.0  0.00062  0.79035  0.48013  1.0000
  C   C2283     1.0  0.45633  0.63070  0.58441  1.0000
  H   H1808     1.0  0.07977  0.98526  0.51004  1.0000
  C   C2284     1.0  0.33667  0.65308  0.56030  1.0000
  H   H1809     1.0  0.40379  0.50760  0.41222  1.0000
  S   S307      1.0  0.48512  0.92696  0.42222  1.0000
  C   C2285     1.0  0.26788  0.52628  0.39766  1.0000
  H   H1810     1.0  0.00897  0.88821  0.57075  1.0000
  H   H1811     1.0  0.43135  0.63081  0.42454  1.0000
  C   C2286     1.0  0.28748  0.51242  0.42054  1.0000
  H   H1812     1.0  0.48927  0.50796  0.49629  1.0000
  H   H1813     1.0  0.07647  0.63455  0.57905  1.0000
  C   C2287     1.0  0.40479  0.98231  0.51219  1.0000
  H   H1814     1.0  0.21201  0.89391  0.57566  1.0000
  H   H1815     1.0  0.22078  0.97797  0.47287  1.0000
  C   C2288     1.0  0.21914  0.88131  0.58424  1.0000
  H   H1816     1.0  0.39285  0.75625  0.57293  1.0000
  C   C2289     1.0  0.30745  0.62928  0.58016  1.0000
  H   H1817     1.0  0.23548  0.96135  0.57938  1.0000
  H   H1818     1.0  0.41713  0.92072  0.58022  1.0000
  C   C2290     1.0  0.27904  0.59855  0.57996  1.0000
  C   C2291     1.0  0.20866  0.99930  0.41817  1.0000
  H   H1819     1.0  0.40206  0.50882  0.46842  1.0000
  H   H1820     1.0  0.40788  0.63741  0.56900  1.0000
  H   H1821     1.0  0.46325  0.93682  0.39335  1.0000
  H   H1822     1.0  0.04522  0.99679  0.52586  1.0000
  C   C2292     1.0  0.48902  0.50612  0.55822  1.0000
  C   C2293     1.0  0.00402  0.80963  0.38866  1.0000
  C   C2294     1.0  0.99892  0.88573  0.52735  1.0000
  H   H1823     1.0  0.38160  0.61559  0.58470  1.0000
  S   S308      1.0  0.41881  0.56212  0.58526  1.0000
  H   H1824     1.0  0.00955  0.67836  0.47011  1.0000
  C   C2295     1.0  0.49240  0.53267  0.50948  1.0000
  H   H1825     1.0  0.32601  0.99089  0.57590  1.0000
  C   C2296     1.0  0.24344  0.93314  0.39177  1.0000
  C   C2297     1.0  0.48941  0.96673  0.40542  1.0000
  H   H1826     1.0  0.41416  0.66874  0.57924  1.0000
  H   H1827     1.0  0.15747  0.66493  0.57030  1.0000
  C   C2298     1.0  0.48441  0.61746  0.42318  1.0000
  H   H1828     1.0  0.01801  0.84909  0.57546  1.0000
  H   H1829     1.0  0.23833  0.57172  0.58044  1.0000
  C   C2299     1.0  0.30137  0.65073  0.57437  1.0000
  C   C2300     1.0  0.39838  0.64228  0.58009  1.0000
  C   C2301     1.0  0.06818  0.99675  0.50411  1.0000
  H   H1830     1.0  0.27335  0.99708  0.48917  1.0000
  H   H1831     1.0  0.25827  0.83923  0.58491  1.0000
  H   H1832     1.0  0.48673  0.65700  0.40556  1.0000
  H   H1833     1.0  0.00012  0.99753  0.55481  1.0000
  C   C2302     1.0  0.36192  0.53393  0.39087  1.0000
  C   C2303     1.0  0.12374  0.66726  0.57472  1.0000
  C   C2304     1.0  0.46610  0.99877  0.41233  1.0000
  H   H1834     1.0  0.00966  0.99770  0.44484  1.0000
  C   C2305     1.0  0.35056  0.50673  0.45941  1.0000
  H   H1835     1.0  0.28541  0.65837  0.57743  1.0000
  H   H1836     1.0  0.12520  0.80034  0.58299  1.0000
  H   H1837     1.0  0.46306  0.87236  0.38736  1.0000
  C   C2306     1.0  0.26022  0.59032  0.58552  1.0000
  H   H1838     1.0  0.09087  0.66769  0.58290  1.0000
  C   C2307     1.0  0.00015  0.90065  0.40260  1.0000
  C   C2308     1.0  0.10647  0.65973  0.58478  1.0000
  H   H1839     1.0  0.49652  0.99251  0.51245  1.0000
  H   H1840     1.0  0.01119  0.66105  0.58406  1.0000
  Fe  Fe159     1.0  0.13801  0.99947  0.50084  1.0000
  H   H1841     1.0  0.46807  0.50041  0.52939  1.0000
  H   H1842     1.0  0.49712  0.53838  0.40896  1.0000
  C   C2309     1.0  0.99796  0.68779  0.54866  1.0000
  C   C2310     1.0  0.49755  0.97937  0.52229  1.0000
  C   C2311     1.0  0.48563  0.49979  0.40111  1.0000
  P   P76       1.0  0.08743  0.63440  0.61177  1.0000
  H   H1843     1.0  0.36085  0.62602  0.61064  1.0000
  S   S309      1.0  0.06979  0.70601  0.59706  1.0000
  H   H1844     1.0  0.48920  0.72437  0.76467  1.0000
  Fe  Fe160     1.0  0.15401  0.69621  0.65266  1.0000
  S   S310      1.0  0.15626  0.66127  0.66097  1.0000
  S   S311      1.0  0.12241  0.71710  0.65210  1.0000
  Fe  Fe161     1.0  0.20148  0.69520  0.64825  1.0000
  S   S312      1.0  0.20738  0.66013  0.65637  1.0000
  S   S313      1.0  0.22981  0.71176  0.63810  1.0000
  Fe  Fe162     1.0  0.18332  0.65800  0.64054  1.0000
  S   S314      1.0  0.18627  0.63422  0.62262  1.0000
  Fe  Fe163     1.0  0.18006  0.66615  0.67614  1.0000
  S   S315      1.0  0.18110  0.64714  0.70148  1.0000
  S   S316      1.0  0.17914  0.69278  0.63092  1.0000
  S   S317      1.0  0.17600  0.70152  0.66939  1.0000
  S   S318      1.0  0.17110  0.69424  0.76388  1.0000
  H   H1845     1.0  0.37838  0.72999  0.59467  1.0000
  C   C2312     1.0  0.37550  0.65370  0.60961  1.0000
  H   H1846     1.0  0.32146  0.84225  0.59578  1.0000
  Fe  Fe164     1.0  0.25454  0.52193  0.61955  1.0000
  S   S319      1.0  0.25127  0.54983  0.63339  1.0000
  C   C2313     1.0  0.17221  0.50761  0.77270  1.0000
  C   C2314     1.0  0.37826  0.78629  0.74373  1.0000
  C   C2315     1.0  0.37571  0.91413  0.59852  1.0000
  C   C2316     1.0  0.18162  0.52121  0.75973  1.0000
  Fe  Fe165     1.0  0.28797  0.95962  0.61224  1.0000
  S   S320      1.0  0.30259  0.92612  0.60828  1.0000
  S   S321      1.0  0.25482  0.96801  0.62444  1.0000
  Fe  Fe166     1.0  0.29320  0.78207  0.67246  1.0000
  S   S322      1.0  0.30084  0.80031  0.69086  1.0000
  S   S323      1.0  0.26083  0.77225  0.67886  1.0000
  Fe  Fe167     1.0  0.33614  0.78345  0.65204  1.0000
  S   S324      1.0  0.34716  0.80168  0.66887  1.0000
  S   S325      1.0  0.35661  0.77433  0.62880  1.0000
  Fe  Fe168     1.0  0.33197  0.77960  0.68913  1.0000
  S   S326      1.0  0.34707  0.76416  0.71152  1.0000
  Fe  Fe169     1.0  0.31510  0.82112  0.66916  1.0000
  S   S327      1.0  0.30960  0.85619  0.67094  1.0000
  S   S328      1.0  0.32348  0.75955  0.67232  1.0000
  S   S329      1.0  0.30502  0.80466  0.65074  1.0000
  Fe  Fe170     1.0  0.47676  0.73136  0.61658  1.0000
  S   S330      1.0  0.45104  0.73684  0.63800  1.0000
  H   H1847     1.0  0.49095  0.80805  0.59891  1.0000
  C   C2317     1.0  0.38289  0.76410  0.63129  1.0000
  C   C2318     1.0  0.39787  0.76072  0.61743  1.0000
  C   C2319     1.0  0.41887  0.75234  0.61923  1.0000
  C   C2320     1.0  0.42490  0.74714  0.63497  1.0000
  C   C2321     1.0  0.40988  0.75048  0.64879  1.0000
  C   C2322     1.0  0.38901  0.75911  0.64698  1.0000
  H   H1848     1.0  0.39322  0.76468  0.60527  1.0000
  H   H1849     1.0  0.43029  0.74981  0.60848  1.0000
  H   H1850     1.0  0.41438  0.74632  0.66097  1.0000
  H   H1851     1.0  0.37759  0.76163  0.65775  1.0000
  C   C2323     1.0  0.30634  0.87529  0.65345  1.0000
  C   C2324     1.0  0.30791  0.86951  0.63774  1.0000
  C   C2325     1.0  0.30665  0.88522  0.62393  1.0000
  C   C2326     1.0  0.30319  0.90675  0.62582  1.0000
  C   C2327     1.0  0.30086  0.91250  0.64159  1.0000
  C   C2328     1.0  0.30263  0.89680  0.65533  1.0000
  H   H1852     1.0  0.31017  0.85297  0.63627  1.0000
  H   H1853     1.0  0.30820  0.88071  0.61178  1.0000
  H   H1854     1.0  0.29808  0.92906  0.64315  1.0000
  H   H1855     1.0  0.30121  0.90136  0.66747  1.0000
  C   C2329     1.0  0.31804  0.79143  0.75894  1.0000
  C   C2330     1.0  0.32827  0.77059  0.75953  1.0000
  C   C2331     1.0  0.33704  0.76238  0.74492  1.0000
  C   C2332     1.0  0.33538  0.77480  0.72960  1.0000
  C   C2333     1.0  0.32485  0.79557  0.72896  1.0000
  C   C2334     1.0  0.31621  0.80387  0.74362  1.0000
  H   H1856     1.0  0.32974  0.76085  0.77120  1.0000
  H   H1857     1.0  0.34522  0.74643  0.74550  1.0000
  H   H1858     1.0  0.32380  0.80543  0.71722  1.0000
  H   H1859     1.0  0.30835  0.82005  0.74309  1.0000
  C   C2335     1.0  0.27253  0.99237  0.75137  1.0000
  C   C2336     1.0  0.39437  0.72633  0.58878  1.0000
  C   C2337     1.0  0.23332  0.96635  0.71679  1.0000
  C   C2338     1.0  0.34032  0.69808  0.76161  1.0000
  C   C2339     1.0  0.39042  0.66613  0.60078  1.0000
  H   H1860     1.0  0.20339  0.99466  0.75089  1.0000
  C   C2340     1.0  0.26946  0.63872  0.61699  1.0000
  C   C2341     1.0  0.38362  0.62997  0.58897  1.0000
  C   C2342     1.0  0.23788  0.72913  0.64927  1.0000
  C   C2343     1.0  0.25709  0.73669  0.64368  1.0000
  C   C2344     1.0  0.26433  0.74999  0.65260  1.0000
  C   C2345     1.0  0.25222  0.75600  0.66706  1.0000
  C   C2346     1.0  0.23281  0.74885  0.67244  1.0000
  C   C2347     1.0  0.22570  0.73534  0.66364  1.0000
  H   H1861     1.0  0.26651  0.73202  0.63252  1.0000
  H   H1862     1.0  0.27925  0.75552  0.64835  1.0000
  H   H1863     1.0  0.22332  0.75359  0.68354  1.0000
  H   H1864     1.0  0.21088  0.72964  0.66802  1.0000
  C   C2348     1.0  0.17831  0.66040  0.71874  1.0000
  C   C2349     1.0  0.17659  0.68242  0.71702  1.0000
  C   C2350     1.0  0.17426  0.69259  0.73102  1.0000
  C   C2351     1.0  0.17360  0.68084  0.74678  1.0000
  C   C2352     1.0  0.17562  0.65880  0.74852  1.0000
  C   C2353     1.0  0.17795  0.64861  0.73451  1.0000
  H   H1865     1.0  0.17714  0.69160  0.70493  1.0000
  H   H1866     1.0  0.17293  0.70963  0.72962  1.0000
  H   H1867     1.0  0.17534  0.64965  0.76065  1.0000
  H   H1868     1.0  0.17944  0.63155  0.73586  1.0000
  C   C2354     1.0  0.20458  0.61088  0.62544  1.0000
  C   C2355     1.0  0.21798  0.60794  0.63737  1.0000
  C   C2356     1.0  0.23225  0.58918  0.63956  1.0000
  C   C2357     1.0  0.23305  0.57303  0.63003  1.0000
  C   C2358     1.0  0.21970  0.57588  0.61803  1.0000
  C   C2359     1.0  0.20570  0.59491  0.61560  1.0000
  H   H1869     1.0  0.21736  0.62007  0.64497  1.0000
  H   H1870     1.0  0.24258  0.58711  0.64881  1.0000
  H   H1871     1.0  0.22034  0.56351  0.61058  1.0000
  H   H1872     1.0  0.19562  0.59725  0.60618  1.0000
  H   H1873     1.0  0.46019  0.65391  0.65052  1.0000
  C   C2360     1.0  0.08481  0.71116  0.61144  1.0000
  C   C2361     1.0  0.10503  0.69967  0.61217  1.0000
  C   C2362     1.0  0.11675  0.70166  0.62442  1.0000
  C   C2363     1.0  0.10844  0.71536  0.63600  1.0000
  C   C2364     1.0  0.08847  0.72739  0.63502  1.0000
  C   C2365     1.0  0.07665  0.72528  0.62279  1.0000
  H   H1874     1.0  0.11152  0.68876  0.60352  1.0000
  H   H1875     1.0  0.13206  0.69225  0.62508  1.0000
  H   H1876     1.0  0.08197  0.73806  0.64394  1.0000
  C   C2366     1.0  0.36138  0.84490  0.64154  1.0000
  C   C2367     1.0  0.35901  0.83445  0.62871  1.0000
  C   C2368     1.0  0.37591  0.82079  0.62185  1.0000
  C   C2369     1.0  0.39509  0.81729  0.62796  1.0000
  C   C2370     1.0  0.39766  0.82777  0.64086  1.0000
  C   C2371     1.0  0.38047  0.84136  0.64777  1.0000
  P   P77       1.0  0.42198  0.82240  0.64960  1.0000
  C   C2372     1.0  0.42069  0.79958  0.66527  1.0000
  C   C2373     1.0  0.44404  0.81790  0.63360  1.0000
  C   C2374     1.0  0.45738  0.83321  0.62782  1.0000
  C   C2375     1.0  0.47426  0.82961  0.61537  1.0000
  C   C2376     1.0  0.10404  0.57213  0.60528  1.0000
  H   H1877     1.0  0.47518  0.66724  0.60102  1.0000
  C   C2377     1.0  0.44807  0.79890  0.62677  1.0000
  C   C2378     1.0  0.40201  0.79764  0.67611  1.0000
  C   C2379     1.0  0.40076  0.78013  0.68833  1.0000
  C   C2380     1.0  0.41821  0.76447  0.68993  1.0000
  C   C2381     1.0  0.43699  0.76643  0.67937  1.0000
  C   C2382     1.0  0.43831  0.78398  0.66716  1.0000
  C   C2383     1.0  0.42435  0.84507  0.65891  1.0000
  C   C2384     1.0  0.41920  0.86564  0.65071  1.0000
  C   C2385     1.0  0.42078  0.88324  0.65792  1.0000
  C   C2386     1.0  0.42764  0.88043  0.67331  1.0000
  C   C2387     1.0  0.43299  0.86003  0.68146  1.0000
  C   C2388     1.0  0.43140  0.84238  0.67430  1.0000
  H   H1878     1.0  0.34820  0.85518  0.64712  1.0000
  H   H1879     1.0  0.34395  0.83654  0.62434  1.0000
  H   H1880     1.0  0.37391  0.81220  0.61221  1.0000
  H   H1881     1.0  0.40753  0.80596  0.62281  1.0000
  H   H1882     1.0  0.38147  0.84886  0.65827  1.0000
  H   H1883     1.0  0.45499  0.84791  0.63288  1.0000
  C   C2389     1.0  0.27466  0.75445  0.78273  1.0000
  C   C2390     1.0  0.36011  0.71153  0.77874  1.0000
  H   H1884     1.0  0.43837  0.78662  0.63121  1.0000
  H   H1885     1.0  0.38832  0.80959  0.67511  1.0000
  H   H1886     1.0  0.38610  0.77856  0.69640  1.0000
  H   H1887     1.0  0.41702  0.75068  0.69917  1.0000
  H   H1888     1.0  0.45042  0.75408  0.68032  1.0000
  H   H1889     1.0  0.45303  0.78509  0.65914  1.0000
  H   H1890     1.0  0.41386  0.86804  0.63877  1.0000
  H   H1891     1.0  0.41658  0.89907  0.65163  1.0000
  H   H1892     1.0  0.42878  0.89408  0.67894  1.0000
  H   H1893     1.0  0.43830  0.85787  0.69340  1.0000
  H   H1894     1.0  0.43560  0.82671  0.68081  1.0000
  H   H1895     1.0  0.06107  0.73417  0.62240  1.0000
  C   C2391     1.0  0.33789  0.72135  0.63902  1.0000
  H   H1896     1.0  0.39399  0.86145  0.60711  1.0000
  H   H1897     1.0  0.48539  0.59345  0.60147  1.0000
  H   H1898     1.0  0.48969  0.96988  0.60096  1.0000
  C   C2392     1.0  0.10947  0.64317  0.59777  1.0000
  C   C2393     1.0  0.38395  0.87573  0.60279  1.0000
  H   H1899     1.0  0.16301  0.63614  0.59351  1.0000
  H   H1900     1.0  0.27681  0.94878  0.77186  1.0000
  C   C2394     1.0  0.08859  0.64457  0.63058  1.0000
  C   C2395     1.0  0.07720  0.66424  0.63381  1.0000
  C   C2396     1.0  0.07969  0.67289  0.64759  1.0000
  C   C2397     1.0  0.09407  0.66233  0.65799  1.0000
  C   C2398     1.0  0.10562  0.64281  0.65484  1.0000
  C   C2399     1.0  0.10289  0.63394  0.64122  1.0000
  C   C2400     1.0  0.35738  0.91246  0.59237  1.0000
  C   C2401     1.0  0.23913  0.82002  0.77963  1.0000
  C   C2402     1.0  0.09587  0.56154  0.62037  1.0000
  C   C2403     1.0  0.23994  0.50821  0.75839  1.0000
  C   C2404     1.0  0.43477  0.64716  0.63961  1.0000
  H   H1901     1.0  0.07124  0.68837  0.64970  1.0000
  H   H1902     1.0  0.09675  0.66963  0.66815  1.0000
  H   H1903     1.0  0.11719  0.63490  0.66266  1.0000
  H   H1904     1.0  0.11253  0.61915  0.63874  1.0000
  C   C2405     1.0  0.35751  0.71955  0.64418  1.0000
  H   H1905     1.0  0.21558  0.81681  0.64643  1.0000
  H   H1906     1.0  0.13277  0.62244  0.61106  1.0000
  C   C2406     1.0  0.48335  0.71679  0.77677  1.0000
  Fe  Fe171     1.0  0.03845  0.72562  0.59241  1.0000
  H   H1907     1.0  0.22391  0.67321  0.62113  1.0000
  C   C2407     1.0  0.23533  0.80709  0.62448  1.0000
  C   C2408     1.0  0.23524  0.94435  0.72044  1.0000
  C   C2409     1.0  0.23997  0.93433  0.73589  1.0000
  C   C2410     1.0  0.21928  0.80527  0.63792  1.0000
  C   C2411     1.0  0.24133  0.96840  0.74404  1.0000
  C   C2412     1.0  0.42293  0.92880  0.58857  1.0000
  C   C2413     1.0  0.44314  0.69317  0.73824  1.0000
  H   H1908     1.0  0.39047  0.70858  0.63936  1.0000
  H   H1909     1.0  0.33667  0.92476  0.65537  1.0000
  H   H1910     1.0  0.45581  0.69184  0.63881  1.0000
  C   C2414     1.0  0.37204  0.63579  0.60365  1.0000
  S   S331      1.0  0.02699  0.75892  0.59744  1.0000
  C   C2415     1.0  0.33609  0.71272  0.62507  1.0000
  C   C2416     1.0  0.40379  0.50438  0.60263  1.0000
  H   H1911     1.0  0.35897  0.72679  0.65472  1.0000
  H   H1912     1.0  0.32415  0.72978  0.64568  1.0000
  C   C2417     1.0  0.10272  0.70425  0.70312  1.0000
  C   C2418     1.0  0.36590  0.87427  0.59630  1.0000
  C   C2419     1.0  0.30499  0.56202  0.62638  1.0000
  C   C2420     1.0  0.35393  0.70231  0.61624  1.0000
  C   C2421     1.0  0.24306  0.94627  0.74765  1.0000
  C   C2422     1.0  0.23618  0.97834  0.72856  1.0000
  Fe  Fe172     1.0  0.49569  0.70826  0.58702  1.0000
  H   H1913     1.0  0.36701  0.65745  0.62136  1.0000
  C   C2423     1.0  0.30150  0.59569  0.60842  1.0000
  H   H1914     1.0  0.48458  0.84138  0.61096  1.0000
  H   H1915     1.0  0.23322  0.93507  0.71124  1.0000
  C   C2424     1.0  0.46478  0.79549  0.61418  1.0000
  S   S332      1.0  0.49603  0.69946  0.61418  1.0000
  C   C2425     1.0  0.37586  0.71491  0.76532  1.0000
  C   C2426     1.0  0.10162  0.59425  0.60265  1.0000
  C   C2427     1.0  0.05693  0.68774  0.77012  1.0000
  C   C2428     1.0  0.29509  0.57590  0.61429  1.0000
  P   P78       1.0  0.39683  0.68754  0.60964  1.0000
  H   H1916     1.0  0.27893  0.99434  0.77583  1.0000
  Fe  Fe173     1.0  0.25141  0.99310  0.60243  1.0000
  H   H1917     1.0  0.21408  0.64148  0.76800  1.0000
  C   C2429     1.0  0.12015  0.70432  0.71084  1.0000
  H   H1918     1.0  0.11225  0.56319  0.59564  1.0000
  C   C2430     1.0  0.02564  0.65612  0.60620  1.0000
  H   H1919     1.0  0.26288  0.52336  0.76602  1.0000
  H   H1920     1.0  0.46450  0.69847  0.76746  1.0000
  C   C2431     1.0  0.26747  0.63135  0.60242  1.0000
  H   H1921     1.0  0.26621  0.71399  0.69801  1.0000
  H   H1922     1.0  0.25627  0.70055  0.78288  1.0000
  C   C2432     1.0  0.24647  0.63928  0.77123  1.0000
  C   C2433     1.0  0.47547  0.56301  0.60508  1.0000
  C   C2434     1.0  0.40693  0.70710  0.59355  1.0000
  C   C2435     1.0  0.45188  0.72860  0.73476  1.0000
  C   C2436     1.0  0.42060  0.71988  0.75310  1.0000
  C   C2437     1.0  0.36649  0.94613  0.62104  1.0000
  C   C2438     1.0  0.08498  0.57307  0.63277  1.0000
  H   H1923     1.0  0.46922  0.53120  0.60620  1.0000
  H   H1924     1.0  0.22669  0.51817  0.76424  1.0000
  C   C2439     1.0  0.34255  0.70294  0.77694  1.0000
  H   H1925     1.0  0.46914  0.93952  0.59680  1.0000
  H   H1926     1.0  0.25150  0.59301  0.59744  1.0000
  C   C2440     1.0  0.36408  0.96688  0.62473  1.0000
  H   H1927     1.0  0.30519  0.53694  0.58872  1.0000
  C   C2441     1.0  0.28035  0.99560  0.73447  1.0000
  C   C2442     1.0  0.46097  0.64153  0.59633  1.0000
  C   C2443     1.0  0.35660  0.93093  0.63227  1.0000
  H   H1928     1.0  0.42852  0.70651  0.62112  1.0000
  H   H1929     1.0  0.21454  0.86255  0.62514  1.0000
  H   H1930     1.0  0.07841  0.56489  0.64441  1.0000
  C   C2444     1.0  0.16188  0.57719  0.59503  1.0000
  C   C2445     1.0  0.26490  0.64823  0.76637  1.0000
  C   C2446     1.0  0.26148  0.71562  0.78262  1.0000
  C   C2447     1.0  0.44801  0.66028  0.64288  1.0000
  C   C2448     1.0  0.10505  0.74171  0.75422  1.0000
  C   C2449     1.0  0.06241  0.64064  0.58674  1.0000
  C   C2450     1.0  0.37538  0.70917  0.63540  1.0000
  H   H1931     1.0  0.24591  0.62566  0.78075  1.0000
  H   H1932     1.0  0.40652  0.95812  0.62014  1.0000
  H   H1933     1.0  0.32246  0.61697  0.61121  1.0000
  C   C2451     1.0  0.23882  0.79248  0.61319  1.0000
  H   H1934     1.0  0.43107  0.75052  0.74896  1.0000
  H   H1935     1.0  0.13347  0.53251  0.77579  1.0000
  C   C2452     1.0  0.38713  0.76505  0.74702  1.0000
  H   H1936     1.0  0.35747  0.91496  0.62963  1.0000
  H   H1937     1.0  0.13544  0.70509  0.70351  1.0000
  C   C2453     1.0  0.34248  0.95707  0.65056  1.0000
  C   C2454     1.0  0.43009  0.68990  0.62618  1.0000
  S   S333      1.0  0.44222  0.60928  0.59089  1.0000
  H   H1938     1.0  0.18715  0.53506  0.76213  1.0000
  S   S334      1.0  0.25761  0.99668  0.66204  1.0000
  H   H1939     1.0  0.21519  0.99815  0.65630  1.0000
  H   H1940     1.0  0.37102  0.97898  0.61602  1.0000
  C   C2455     1.0  0.48081  0.54184  0.60260  1.0000
  C   C2456     1.0  0.02549  0.65534  0.58952  1.0000
  H   H1941     1.0  0.39234  0.75600  0.73685  1.0000
  H   H1942     1.0  0.13154  0.70348  0.73377  1.0000
  H   H1943     1.0  0.45114  0.99135  0.59264  1.0000
  H   H1944     1.0  0.25051  0.79403  0.60238  1.0000
  C   C2457     1.0  0.37370  0.70027  0.62144  1.0000
  C   C2458     1.0  0.35226  0.97226  0.63950  1.0000
  H   H1945     1.0  0.29981  0.54680  0.63080  1.0000
  C   C2459     1.0  0.45630  0.70797  0.73084  1.0000
  C   C2460     1.0  0.12136  0.66080  0.75925  1.0000
  C   C2461     1.0  0.32754  0.58763  0.62727  1.0000
  H   H1946     1.0  0.25532  0.65963  0.63487  1.0000
  H   H1947     1.0  0.06538  0.70117  0.73676  1.0000
  H   H1948     1.0  0.34009  0.59214  0.63235  1.0000
  C   C2462     1.0  0.37089  0.78839  0.77296  1.0000
  H   H1949     1.0  0.33921  0.96420  0.59793  1.0000
  H   H1950     1.0  0.11176  0.77370  0.74976  1.0000
  C   C2463     1.0  0.11463  0.75826  0.75699  1.0000
  C   C2464     1.0  0.34995  0.96860  0.58698  1.0000
  H   H1951     1.0  0.24690  0.93810  0.75943  1.0000
  H   H1952     1.0  0.19059  0.73404  0.76909  1.0000
  H   H1953     1.0  0.28249  0.57094  0.60964  1.0000
  H   H1954     1.0  0.20382  0.75975  0.63210  1.0000
  H   H1955     1.0  0.45967  0.56885  0.61045  1.0000
  H   H1956     1.0  0.35234  0.69615  0.60524  1.0000
  P   P79       1.0  0.25030  0.82882  0.62097  1.0000
  C   C2465     1.0  0.27757  0.82072  0.61339  1.0000
  C   C2466     1.0  0.35254  0.89262  0.59123  1.0000
  H   H1957     1.0  0.25492  0.73563  0.74465  1.0000
  H   H1958     1.0  0.12561  0.70286  0.78261  1.0000
  H   H1959     1.0  0.24152  0.91724  0.73868  1.0000
  C   C2467     1.0  0.28220  0.71628  0.78450  1.0000
  H   H1960     1.0  0.01140  0.66229  0.61369  1.0000
  C   C2468     1.0  0.28682  0.79943  0.61617  1.0000
  C   C2469     1.0  0.30829  0.79360  0.61120  1.0000
  C   C2470     1.0  0.03672  0.68897  0.77905  1.0000
  H   H1961     1.0  0.33807  0.89159  0.58682  1.0000
  S   S335      1.0  0.28371  0.98328  0.58953  1.0000
  C   C2471     1.0  0.25149  0.83895  0.63972  1.0000
  C   C2472     1.0  0.25373  0.86023  0.63930  1.0000
  C   C2473     1.0  0.25622  0.86766  0.65363  1.0000
  C   C2474     1.0  0.25691  0.85385  0.66838  1.0000
  C   C2475     1.0  0.25501  0.83261  0.66884  1.0000
  C   C2476     1.0  0.25250  0.82515  0.65454  1.0000
  H   H1962     1.0  0.29333  0.50073  0.75247  1.0000
  H   H1963     1.0  0.43675  0.63053  0.64460  1.0000
  H   H1964     1.0  0.23076  0.76371  0.60762  1.0000
  C   C2477     1.0  0.37005  0.79792  0.75669  1.0000
  C   C2478     1.0  0.35578  0.70164  0.74810  1.0000
  C   C2479     1.0  0.43417  0.73452  0.74595  1.0000
  H   H1965     1.0  0.04379  0.64966  0.62616  1.0000
  H   H1966     1.0  0.06710  0.67348  0.62532  1.0000
  H   H1967     1.0  0.28315  0.63305  0.62312  1.0000
  H   H1968     1.0  0.28698  0.75133  0.74373  1.0000
  H   H1969     1.0  0.27775  0.78740  0.62277  1.0000
  H   H1970     1.0  0.31550  0.77725  0.61375  1.0000
  C   C2480     1.0  0.25374  0.75390  0.78110  1.0000
  C   C2481     1.0  0.37346  0.71013  0.74991  1.0000
  H   H1971     1.0  0.19616  0.78642  0.65137  1.0000
  H   H1972     1.0  0.25417  0.87100  0.62786  1.0000
  H   H1973     1.0  0.25844  0.88396  0.65316  1.0000
  H   H1974     1.0  0.25970  0.85945  0.67931  1.0000
  H   H1975     1.0  0.25612  0.82173  0.68015  1.0000
  H   H1976     1.0  0.25199  0.80845  0.65496  1.0000
  C   C2482     1.0  0.23646  0.78115  0.72734  1.0000
  C   C2483     1.0  0.25382  0.79120  0.72066  1.0000
  C   C2484     1.0  0.26551  0.79773  0.73102  1.0000
  C   C2485     1.0  0.25978  0.79432  0.74809  1.0000
  C   C2486     1.0  0.24190  0.78489  0.75490  1.0000
  C   C2487     1.0  0.23059  0.77787  0.74441  1.0000
  C   C2488     1.0  0.10806  0.67497  0.76889  1.0000
  C   C2489     1.0  0.22073  0.86362  0.61216  1.0000
  C   C2490     1.0  0.44456  0.92886  0.58731  1.0000
  C   C2491     1.0  0.04420  0.64930  0.61316  1.0000
  C   C2492     1.0  0.29026  0.83612  0.60609  1.0000
  H   H1977     1.0  0.18492  0.52679  0.60628  1.0000
  H   H1978     1.0  0.35382  0.69839  0.73612  1.0000
  H   H1979     1.0  0.33279  0.96143  0.66176  1.0000
  C   C2493     1.0  0.17297  0.56012  0.60414  1.0000
  H   H1980     1.0  0.19658  0.79941  0.76567  1.0000
  C   C2494     1.0  0.18374  0.51724  0.74345  1.0000
  C   C2495     1.0  0.38820  0.75539  0.76334  1.0000
  C   C2496     1.0  0.25379  0.65380  0.62368  1.0000
  P   P80       1.0  0.24705  0.98403  0.75850  1.0000
  H   H1981     1.0  0.35015  0.98836  0.64219  1.0000
  H   H1982     1.0  0.22788  0.77557  0.71922  1.0000
  H   H1983     1.0  0.25841  0.79354  0.70744  1.0000
  H   H1984     1.0  0.27928  0.80507  0.72584  1.0000
  H   H1985     1.0  0.26956  0.79872  0.75596  1.0000
  H   H1986     1.0  0.21760  0.76943  0.74941  1.0000
  C   C2497     1.0  0.17200  0.78515  0.78173  1.0000
  H   H1987     1.0  0.27877  0.64141  0.77206  1.0000
  H   H1988     1.0  0.32645  0.69187  0.76014  1.0000
  H   H1989     1.0  0.22368  0.65959  0.69286  1.0000
  C   C2498     1.0  0.12985  0.64085  0.76660  1.0000
  H   H1990     1.0  0.40235  0.89639  0.60969  1.0000
  S   S336      1.0  0.30186  0.98117  0.62477  1.0000
  P   P81       1.0  0.39774  0.72743  0.76749  1.0000
  C   C2499     1.0  0.44561  0.68163  0.63622  1.0000
  C   C2500     1.0  0.08077  0.70190  0.72975  1.0000
  H   H1991     1.0  0.23497  0.82418  0.76731  1.0000
  C   C2501     1.0  0.10873  0.72159  0.76347  1.0000
  C   C2502     1.0  0.23371  0.65396  0.60166  1.0000
  H   H1992     1.0  0.15992  0.59284  0.59862  1.0000
  H   H1993     1.0  0.28012  0.76937  0.78251  1.0000
  H   H1994     1.0  0.23484  0.99539  0.72542  1.0000
  C   C2503     1.0  0.19297  0.78758  0.77611  1.0000
  C   C2504     1.0  0.31758  0.60160  0.61523  1.0000
  P   P82       1.0  0.28874  0.61369  0.59277  1.0000
  C   C2505     1.0  0.21224  0.77324  0.62978  1.0000
  H   H1995     1.0  0.24383  0.67737  0.66805  1.0000
  C   C2506     1.0  0.28465  0.99615  0.76277  1.0000
  H   H1996     1.0  0.06991  0.73332  0.77848  1.0000
  H   H1997     1.0  0.33749  0.80439  0.60040  1.0000
  H   H1998     1.0  0.36200  0.85892  0.59550  1.0000
  C   C2507     1.0  0.34468  0.93642  0.64696  1.0000
  P   P83       1.0  0.09609  0.70052  0.75971  1.0000
  S   S337      1.0  0.25667  0.52217  0.59224  1.0000
  H   H1999     1.0  0.09785  0.54440  0.62242  1.0000
  H   H2000     1.0  0.24209  0.85211  0.78162  1.0000
  H   H2001     1.0  0.45616  0.63638  0.60921  1.0000
  C   C2508     1.0  0.24947  0.63914  0.59478  1.0000
  H   H2002     1.0  0.17358  0.75685  0.74652  1.0000
  C   C2509     1.0  0.32127  0.56782  0.63281  1.0000
  H   H2003     1.0  0.07375  0.60395  0.63981  1.0000
  C   C2510     1.0  0.41922  0.65537  0.62957  1.0000
  C   C2511     1.0  0.42542  0.69905  0.74943  1.0000
  C   C2512     1.0  0.21145  0.87972  0.60105  1.0000
  C   C2513     1.0  0.49019  0.57691  0.60001  1.0000
  H   H2004     1.0  0.40945  0.64478  0.62699  1.0000
  C   C2514     1.0  0.43850  0.94974  0.60971  1.0000
  H   H2005     1.0  0.10781  0.56503  0.77794  1.0000
  C   C2515     1.0  0.08248  0.59519  0.63017  1.0000
  C   C2516     1.0  0.20801  0.78822  0.64067  1.0000
  H   H2006     1.0  0.06954  0.70315  0.70651  1.0000
  H   H2007     1.0  0.06333  0.67398  0.76403  1.0000
  H   H2008     1.0  0.22997  0.97412  0.70470  1.0000
  H   H2009     1.0  0.17946  0.56246  0.61480  1.0000
  C   C2517     1.0  0.23599  0.66147  0.61598  1.0000
  H   H2010     1.0  0.43772  0.68863  0.58935  1.0000
  C   C2518     1.0  0.06297  0.64237  0.60330  1.0000
  H   H2011     1.0  0.44662  0.67715  0.73524  1.0000
  H   H2012     1.0  0.10452  0.70516  0.68980  1.0000
  H   H2013     1.0  0.36224  0.81405  0.75418  1.0000
  C   C2519     1.0  0.23803  0.84920  0.60653  1.0000
  H   H2014     1.0  0.32089  0.71436  0.62099  1.0000
  H   H2015     1.0  0.46214  0.74004  0.72908  1.0000
  H   H2016     1.0  0.27161  0.99310  0.72522  1.0000
  C   C2520     1.0  0.47789  0.81080  0.60853  1.0000
  H   H2017     1.0  0.37671  0.79341  0.73115  1.0000
  H   H2018     1.0  0.26554  0.70395  0.67093  1.0000
  C   C2521     1.0  0.09124  0.60590  0.61525  1.0000
  H   H2019     1.0  0.32086  0.73519  0.72952  1.0000
  C   C2522     1.0  0.08303  0.70308  0.71257  1.0000
  C   C2523     1.0  0.41685  0.94979  0.61096  1.0000
  H   H2020     1.0  0.46756  0.78091  0.60882  1.0000
  C   C2524     1.0  0.06910  0.70380  0.76953  1.0000
  S   S338      1.0  0.30785  0.80243  0.77711  1.0000
  H   H2021     1.0  0.36384  0.79717  0.78305  1.0000
  C   C2525     1.0  0.13001  0.63459  0.60071  1.0000
  C   C2526     1.0  0.22752  0.77545  0.61599  1.0000
  C   C2527     1.0  0.09826  0.70192  0.73758  1.0000
  C   C2528     1.0  0.13168  0.73487  0.77827  1.0000
  H   H2022     1.0  0.09476  0.74457  0.74484  1.0000
  C   C2529     1.0  0.40885  0.93933  0.60038  1.0000
  C   C2530     1.0  0.26467  0.95296  0.78185  1.0000
  Fe  Fe174     1.0  0.26835  0.99152  0.63536  1.0000
  H   H2023     1.0  0.32890  0.55697  0.64216  1.0000
  C   C2531     1.0  0.26036  0.51113  0.75941  1.0000
  H   H2024     1.0  0.22521  0.66816  0.72020  1.0000
  H   H2025     1.0  0.41542  0.68738  0.75515  1.0000
  C   C2532     1.0  0.41677  0.67682  0.62274  1.0000
  C   C2533     1.0  0.11790  0.70332  0.72796  1.0000
  C   C2534     1.0  0.37989  0.76722  0.77629  1.0000
  C   C2535     1.0  0.19671  0.74492  0.72726  1.0000
  C   C2536     1.0  0.18797  0.74621  0.74366  1.0000
  C   C2537     1.0  0.19763  0.73345  0.75638  1.0000
  C   C2538     1.0  0.21561  0.71886  0.75272  1.0000
  C   C2539     1.0  0.22414  0.71706  0.73627  1.0000
  C   C2540     1.0  0.21483  0.73053  0.72357  1.0000
  P   P84       1.0  0.24740  0.69829  0.73154  1.0000
  C   C2541     1.0  0.27063  0.71006  0.73113  1.0000
  C   C2542     1.0  0.24733  0.67509  0.74703  1.0000
  C   C2543     1.0  0.26540  0.66601  0.75427  1.0000
  C   C2544     1.0  0.17590  0.53999  0.59943  1.0000
  C   C2545     1.0  0.12524  0.63493  0.78357  1.0000
  C   C2546     1.0  0.22850  0.64819  0.76407  1.0000
  C   C2547     1.0  0.22885  0.66619  0.75226  1.0000
  C   C2548     1.0  0.29005  0.70086  0.72339  1.0000
  C   C2549     1.0  0.30809  0.70997  0.72280  1.0000
  C   C2550     1.0  0.30692  0.72809  0.73015  1.0000
  C   C2551     1.0  0.28776  0.73719  0.73810  1.0000
  C   C2552     1.0  0.26962  0.72825  0.73857  1.0000
  C   C2553     1.0  0.24675  0.69101  0.71150  1.0000
  C   C2554     1.0  0.25762  0.70137  0.69729  1.0000
  C   C2555     1.0  0.25706  0.69595  0.68179  1.0000
  C   C2556     1.0  0.24485  0.68093  0.68017  1.0000
  C   C2557     1.0  0.23351  0.67097  0.69413  1.0000
  C   C2558     1.0  0.23447  0.67591  0.70973  1.0000
  H   H2026     1.0  0.18924  0.75476  0.71736  1.0000
  H   H2027     1.0  0.23143  0.73357  0.77916  1.0000
  C   C2559     1.0  0.46949  0.70216  0.77833  1.0000
  H   H2028     1.0  0.22239  0.70853  0.76272  1.0000
  H   H2029     1.0  0.22128  0.72966  0.71079  1.0000
  H   H2030     1.0  0.27983  0.67263  0.75079  1.0000
  H   H2031     1.0  0.12542  0.66500  0.74612  1.0000
  H   H2032     1.0  0.38478  0.71363  0.73915  1.0000
  H   H2033     1.0  0.10781  0.60224  0.59083  1.0000
  H   H2034     1.0  0.21463  0.67334  0.74729  1.0000
  H   H2035     1.0  0.29117  0.68678  0.71764  1.0000
  H   H2036     1.0  0.32294  0.70321  0.71642  1.0000
  H   H2037     1.0  0.44456  0.95799  0.61782  1.0000
  H   H2038     1.0  0.12697  0.52492  0.59059  1.0000
  P   P85       1.0  0.23619  0.77820  0.77693  1.0000
  P   P86       1.0  0.38081  0.93968  0.60148  1.0000
  H   H2039     1.0  0.46994  0.70344  0.72207  1.0000
  H   H2040     1.0  0.14039  0.63017  0.75911  1.0000
  C   C2560     1.0  0.45235  0.93937  0.59785  1.0000
  C   C2561     1.0  0.14725  0.64228  0.59073  1.0000
  C   C2562     1.0  0.31175  0.83025  0.60122  1.0000
  C   C2563     1.0  0.24732  0.73437  0.78081  1.0000
  H   H2041     1.0  0.39929  0.51614  0.61095  1.0000
  C   C2564     1.0  0.12209  0.71829  0.77555  1.0000
  C   C2565     1.0  0.32075  0.80899  0.60376  1.0000
  H   H2042     1.0  0.13549  0.76758  0.77108  1.0000
  C   C2566     1.0  0.12795  0.75483  0.76901  1.0000
  C   C2567     1.0  0.24786  0.96920  0.77891  1.0000
  S   S339      1.0  0.47392  0.73875  0.58971  1.0000
  H   H2043     1.0  0.28363  0.85274  0.60451  1.0000
  H   H2044     1.0  0.19104  0.52782  0.73352  1.0000
  C   C2568     1.0  0.38873  0.89557  0.60409  1.0000
  C   C2569     1.0  0.28878  0.73567  0.78454  1.0000
  S   S340      1.0  0.00663  0.71525  0.60024  1.0000
  H   H2045     1.0  0.34638  0.92637  0.58887  1.0000
  C   C2570     1.0  0.06074  0.72106  0.77809  1.0000
  H   H2046     1.0  0.19833  0.89106  0.60546  1.0000
  H   H2047     1.0  0.21957  0.65957  0.59603  1.0000
  C   C2571     1.0  0.20913  0.77491  0.78401  1.0000
  C   C2572     1.0  0.47189  0.65892  0.59170  1.0000
  H   H2048     1.0  0.15960  0.79496  0.77557  1.0000
  H   H2049     1.0  0.19998  0.99193  0.63240  1.0000
  C   C2573     1.0  0.24534  0.85054  0.58959  1.0000
  C   C2574     1.0  0.16742  0.53681  0.58581  1.0000
  H   H2050     1.0  0.02759  0.67632  0.77973  1.0000
  C   C2575     1.0  0.40082  0.50984  0.58613  1.0000
  C   C2576     1.0  0.13432  0.54243  0.78488  1.0000
  C   C2577     1.0  0.40193  0.66016  0.58601  1.0000
  C   C2578     1.0  0.42772  0.70324  0.58581  1.0000
  C   C2579     1.0  0.47933  0.50599  0.97905  1.0000
  S   S341      1.0  0.46258  0.73528  0.91737  1.0000
  Fe  Fe175     1.0  0.45914  0.74328  0.89070  1.0000
  S   S342      1.0  0.42587  0.73995  0.88814  1.0000
  C   C2580     1.0  0.49159  0.57785  0.95058  1.0000
  S   S343      1.0  0.32180  0.51740  0.96118  1.0000
  C   C2581     1.0  0.24296  0.83596  0.78775  1.0000
  H   H2051     1.0  0.27908  0.92978  0.80009  1.0000
  S   S344      1.0  0.37798  0.53420  0.96208  1.0000
  H   H2052     1.0  0.09339  0.67954  0.79369  1.0000
  P   P87       1.0  0.16909  0.51347  0.79363  1.0000
  C   C2582     1.0  0.00380  0.80290  0.88614  1.0000
  C   C2583     1.0  0.43481  0.50256  0.95024  1.0000
  C   C2584     1.0  0.47174  0.68878  0.94779  1.0000
  H   H2053     1.0  0.16176  0.54579  0.81563  1.0000
  Fe  Fe176     1.0  0.22209  0.93031  0.88414  1.0000
  S   S345      1.0  0.22398  0.93695  0.85660  1.0000
  S   S346      1.0  0.19666  0.91636  0.90258  1.0000
  Fe  Fe177     1.0  0.26631  0.94056  0.88391  1.0000
  S   S347      1.0  0.27162  0.94809  0.85627  1.0000
  S   S348      1.0  0.29326  0.93585  0.89900  1.0000
  Fe  Fe178     1.0  0.23867  0.96529  0.85855  1.0000
  Fe  Fe179     1.0  0.25681  0.91940  0.85620  1.0000
  S   S349      1.0  0.27113  0.89829  0.83696  1.0000
  S   S350      1.0  0.23416  0.96002  0.88653  1.0000
  S   S351      1.0  0.25397  0.91047  0.88349  1.0000
  Fe  Fe180     1.0  0.03146  0.90681  0.91748  1.0000
  S   S352      1.0  0.04985  0.90334  0.89259  1.0000
  C   C2585     1.0  0.19403  0.51903  0.79739  1.0000
  Fe  Fe181     1.0  0.06278  0.87516  0.93526  1.0000
  S   S353      1.0  0.08395  0.86876  0.91174  1.0000
  S   S354      1.0  0.07117  0.85850  0.96002  1.0000
  Fe  Fe182     1.0  0.07828  0.90399  0.90449  1.0000
  S   S355      1.0  0.10184  0.92488  0.89046  1.0000
  Fe  Fe183     1.0  0.05406  0.86842  0.90155  1.0000
  S   S356      1.0  0.05354  0.84636  0.88294  1.0000
  S   S357      1.0  0.05932  0.91045  0.92871  1.0000
  S   S358      1.0  0.03343  0.87175  0.92571  1.0000
  H   H2054     1.0  0.02055  0.60092  0.87711  1.0000
  S   S359      1.0  0.17055  0.52951  0.85050  1.0000
  C   C2586     1.0  0.49241  0.82039  0.95877  1.0000
  H   H2055     1.0  0.02890  0.99303  0.90003  1.0000
  Fe  Fe184     1.0  0.19402  0.63935  0.81216  1.0000
  S   S360      1.0  0.18031  0.65452  0.83477  1.0000
  S   S361      1.0  0.21464  0.60746  0.81348  1.0000
  Fe  Fe185     1.0  0.15123  0.66392  0.82237  1.0000
  S   S362      1.0  0.11895  0.66015  0.83627  1.0000
  Fe  Fe186     1.0  0.19109  0.68396  0.81999  1.0000
  S   S363      1.0  0.20436  0.70864  0.82982  1.0000
  C   C2587     1.0  0.08192  0.80825  0.83592  1.0000
  H   H2056     1.0  0.25235  0.93995  0.82327  1.0000
  H   H2057     1.0  0.23813  0.94313  0.93412  1.0000
  S   S364      1.0  0.30480  0.99477  0.94996  1.0000
  Fe  Fe187     1.0  0.37139  0.95911  0.97505  1.0000
  Fe  Fe188     1.0  0.01372  0.73593  0.84482  1.0000
  S   S365      1.0  0.04386  0.73567  0.82694  1.0000
  S   S366      1.0  0.01122  0.73181  0.87237  1.0000
  Fe  Fe189     1.0  0.34789  0.76538  0.82414  1.0000
  S   S367      1.0  0.32736  0.79664  0.81961  1.0000
  S   S368      1.0  0.38247  0.76699  0.82350  1.0000
  Fe  Fe190     1.0  0.31210  0.74065  0.82339  1.0000
  S   S369      1.0  0.28921  0.77016  0.81888  1.0000
  S   S370      1.0  0.30275  0.70864  0.82308  1.0000
  C   C2588     1.0  0.08298  0.95748  0.92574  1.0000
  Fe  Fe191     1.0  0.30316  0.78171  0.83791  1.0000
  S   S371      1.0  0.28227  0.79899  0.85741  1.0000
  S   S372      1.0  0.33744  0.75212  0.80399  1.0000
  S   S373      1.0  0.32451  0.75113  0.84401  1.0000
  C   C2589     1.0  0.09809  0.68114  0.83345  1.0000
  C   C2590     1.0  0.10042  0.69841  0.82113  1.0000
  C   C2591     1.0  0.08366  0.71502  0.81922  1.0000
  C   C2592     1.0  0.06452  0.71456  0.82972  1.0000
  C   C2593     1.0  0.06220  0.69738  0.84211  1.0000
  C   C2594     1.0  0.07893  0.68067  0.84391  1.0000
  H   H2058     1.0  0.11508  0.69892  0.81303  1.0000
  H   H2059     1.0  0.08555  0.72828  0.80962  1.0000
  H   H2060     1.0  0.04749  0.69691  0.85026  1.0000
  H   H2061     1.0  0.07705  0.66740  0.85350  1.0000
  C   C2595     1.0  0.23177  0.70785  0.82806  1.0000
  C   C2596     1.0  0.23935  0.72489  0.83231  1.0000
  C   C2597     1.0  0.26102  0.72505  0.83106  1.0000
  C   C2598     1.0  0.27537  0.70816  0.82553  1.0000
  C   C2599     1.0  0.26779  0.69081  0.82164  1.0000
  C   C2600     1.0  0.24602  0.69072  0.82277  1.0000
  H   H2062     1.0  0.22838  0.73797  0.83666  1.0000
  H   H2063     1.0  0.26658  0.73806  0.83471  1.0000
  H   H2064     1.0  0.27876  0.67758  0.81751  1.0000
  H   H2065     1.0  0.24031  0.67741  0.81963  1.0000
  C   C2601     1.0  0.18331  0.55123  0.84107  1.0000
  C   C2602     1.0  0.20501  0.54884  0.83611  1.0000
  C   C2603     1.0  0.21455  0.56625  0.82791  1.0000
  C   C2604     1.0  0.20244  0.58615  0.82457  1.0000
  C   C2605     1.0  0.18082  0.58871  0.82993  1.0000
  C   C2606     1.0  0.17131  0.57129  0.83815  1.0000
  H   H2066     1.0  0.21443  0.53353  0.83834  1.0000
  H   H2067     1.0  0.23131  0.56420  0.82397  1.0000
  H   H2068     1.0  0.17139  0.60407  0.82762  1.0000
  H   H2069     1.0  0.15458  0.57335  0.84224  1.0000
  C   C2607     1.0  0.03397  0.83001  0.88444  1.0000
  C   C2608     1.0  0.03414  0.81841  0.87152  1.0000
  C   C2609     1.0  0.01914  0.80491  0.87234  1.0000
  C   C2610     1.0  0.28510  0.98402  0.92650  1.0000
  C   C2611     1.0  0.00389  0.54650  0.87637  1.0000
  C   C2612     1.0  0.01860  0.82803  0.89823  1.0000
  H   H2070     1.0  0.04593  0.81990  0.86080  1.0000
  C   C2613     1.0  0.40540  0.71987  0.78782  1.0000
  H   H2071     1.0  0.26952  0.97591  0.90783  1.0000
  H   H2072     1.0  0.01837  0.83678  0.90830  1.0000
  C   C2614     1.0  0.27348  0.87076  0.84295  1.0000
  C   C2615     1.0  0.28087  0.85737  0.83094  1.0000
  C   C2616     1.0  0.28327  0.83534  0.83530  1.0000
  C   C2617     1.0  0.27833  0.82656  0.85171  1.0000
  C   C2618     1.0  0.27043  0.83991  0.86369  1.0000
  C   C2619     1.0  0.26807  0.86200  0.85933  1.0000
  H   H2073     1.0  0.28488  0.86405  0.81823  1.0000
  H   H2074     1.0  0.28888  0.82518  0.82591  1.0000
  H   H2075     1.0  0.26645  0.83318  0.87639  1.0000
  H   H2076     1.0  0.26225  0.87218  0.86865  1.0000
  C   C2620     1.0  0.17097  0.91752  0.89801  1.0000
  C   C2621     1.0  0.16319  0.93225  0.88536  1.0000
  C   C2622     1.0  0.14202  0.93414  0.88309  1.0000
  C   C2623     1.0  0.12853  0.92124  0.89332  1.0000
  C   C2624     1.0  0.13647  0.90608  0.90565  1.0000
  C   C2625     1.0  0.15763  0.90424  0.90796  1.0000
  H   H2077     1.0  0.17331  0.94257  0.87762  1.0000
  H   H2078     1.0  0.13598  0.94585  0.87348  1.0000
  H   H2079     1.0  0.12626  0.89595  0.91345  1.0000
  H   H2080     1.0  0.16363  0.89269  0.91764  1.0000
  H   H2081     1.0  0.42675  0.54135  0.91808  1.0000
  C   C2626     1.0  0.06538  0.87370  0.97643  1.0000
  C   C2627     1.0  0.05342  0.89374  0.97454  1.0000
  C   C2628     1.0  0.00966  0.54671  0.93684  1.0000
  H   H2082     1.0  0.04749  0.89996  0.96307  1.0000
  C   C2629     1.0  0.30189  0.97833  0.93575  1.0000
  H   H2083     1.0  0.01658  0.56069  0.93700  1.0000
  C   C2630     1.0  0.28227  0.97124  0.91510  1.0000
  C   C2631     1.0  0.29608  0.95252  0.91307  1.0000
  C   C2632     1.0  0.31289  0.94686  0.92230  1.0000
  C   C2633     1.0  0.31586  0.95973  0.93356  1.0000
  H   H2084     1.0  0.14232  0.73203  0.78737  1.0000
  H   H2085     1.0  0.35761  0.83688  0.80842  1.0000
  H   H2086     1.0  0.32361  0.93237  0.92078  1.0000
  H   H2087     1.0  0.32885  0.95522  0.94062  1.0000
  H   H2088     1.0  0.49601  0.97905  0.97665  1.0000
  H   H2089     1.0  0.40310  0.68036  0.82042  1.0000
  C   C2634     1.0  0.15315  0.94172  0.93918  1.0000
  C   C2635     1.0  0.02330  0.51467  0.84875  1.0000
  H   H2090     1.0  0.32702  0.96717  0.88159  1.0000
  C   C2636     1.0  0.26953  0.52066  0.84092  1.0000
  C   C2637     1.0  0.41381  0.74875  0.87027  1.0000
  C   C2638     1.0  0.42443  0.75850  0.85582  1.0000
  C   C2639     1.0  0.41443  0.76446  0.84165  1.0000
  C   C2640     1.0  0.39382  0.76076  0.84186  1.0000
  C   C2641     1.0  0.38302  0.75158  0.85646  1.0000
  C   C2642     1.0  0.39302  0.74553  0.87059  1.0000
  H   H2091     1.0  0.44040  0.76115  0.85552  1.0000
  H   H2092     1.0  0.42271  0.77181  0.83044  1.0000
  H   H2093     1.0  0.36708  0.74879  0.85679  1.0000
  H   H2094     1.0  0.38465  0.73816  0.88180  1.0000
  Fe  Fe192     1.0  0.33223  0.98784  0.96471  1.0000
  H   H2095     1.0  0.45387  0.79124  0.80906  1.0000
  H   H2096     1.0  0.41517  0.55245  0.95998  1.0000
  H   H2097     1.0  0.40894  0.51377  0.93648  1.0000
  C   C2643     1.0  0.46187  0.66027  0.96882  1.0000
  C   C2644     1.0  0.45830  0.68136  0.96161  1.0000
  C   C2645     1.0  0.01660  0.96376  0.90920  1.0000
  H   H2098     1.0  0.29289  0.88854  0.90420  1.0000
  C   C2646     1.0  0.05967  0.95097  0.95122  1.0000
  H   H2099     1.0  0.07402  0.93433  0.97192  1.0000
  H   H2100     1.0  0.02792  0.71763  0.91291  1.0000
  H   H2101     1.0  0.48772  0.87228  0.94310  1.0000
  H   H2102     1.0  0.12644  0.54192  0.84307  1.0000
  H   H2103     1.0  0.27225  0.98539  0.82894  1.0000
  C   C2647     1.0  0.14213  0.86092  0.94541  1.0000
  C   C2648     1.0  0.32877  0.79021  0.87737  1.0000
  H   H2104     1.0  0.26842  0.50423  0.84059  1.0000
  C   C2649     1.0  0.46524  0.52044  0.94177  1.0000
  H   H2105     1.0  0.31705  0.82240  0.90600  1.0000
  H   H2106     1.0  0.34004  0.99803  0.91724  1.0000
  S   S374      1.0  0.16073  0.69471  0.80971  1.0000
  H   H2107     1.0  0.09802  0.89725  0.94922  1.0000
  H   H2108     1.0  0.13629  0.57854  0.81737  1.0000
  Fe  Fe193     1.0  0.35519  0.51030  0.96661  1.0000
  H   H2109     1.0  0.31018  0.76604  0.87677  1.0000
  C   C2650     1.0  0.48227  0.77598  0.84091  1.0000
  C   C2651     1.0  0.40375  0.83691  0.89383  1.0000
  C   C2652     1.0  0.47964  0.64688  0.96273  1.0000
  H   H2110     1.0  0.27433  0.99845  0.92808  1.0000
  H   H2111     1.0  0.32373  0.79953  0.86626  1.0000
  H   H2112     1.0  0.37298  0.85282  0.89009  1.0000
  C   C2653     1.0  0.16701  0.77023  0.79539  1.0000
  C   C2654     1.0  0.34257  0.79718  0.88585  1.0000
  C   C2655     1.0  0.46967  0.85504  0.91233  1.0000
  H   H2113     1.0  0.24791  0.53131  0.80447  1.0000
  C   C2656     1.0  0.28134  0.53188  0.82795  1.0000
  C   C2657     1.0  0.06557  0.80260  0.82943  1.0000
  Fe  Fe194     1.0  0.47997  0.76274  0.91411  1.0000
  H   H2114     1.0  0.38828  0.78836  0.87956  1.0000
  C   C2658     1.0  0.05748  0.78400  0.83626  1.0000
  H   H2115     1.0  0.23183  0.50476  0.95515  1.0000
  C   C2659     1.0  0.06040  0.71440  0.90183  1.0000
  H   H2116     1.0  0.31142  0.93171  0.96840  1.0000
  H   H2117     1.0  0.04884  0.77446  0.88647  1.0000
  H   H2118     1.0  0.44739  0.72263  0.84072  1.0000
  H   H2119     1.0  0.46540  0.80423  0.96263  1.0000
  C   C2660     1.0  0.02859  0.70616  0.78757  1.0000
  H   H2120     1.0  0.46279  0.68891  0.81989  1.0000
  C   C2661     1.0  0.35384  0.82683  0.85622  1.0000
  H   H2121     1.0  0.42331  0.78623  0.88751  1.0000
  H   H2122     1.0  0.43353  0.81711  0.89660  1.0000
  C   C2662     1.0  0.23634  0.97234  0.96517  1.0000
  C   C2663     1.0  0.04039  0.72569  0.90576  1.0000
  H   H2123     1.0  0.45155  0.68074  0.79510  1.0000
  C   C2664     1.0  0.39233  0.80203  0.88360  1.0000
  C   C2665     1.0  0.46996  0.78921  0.83001  1.0000
  C   C2666     1.0  0.06553  0.77113  0.84969  1.0000
  C   C2667     1.0  0.37171  0.81795  0.84634  1.0000
  C   C2668     1.0  0.16385  0.96533  0.96098  1.0000
  C   C2669     1.0  0.41041  0.54737  0.97288  1.0000
  C   C2670     1.0  0.32985  0.94557  0.86429  1.0000
  H   H2124     1.0  0.42756  0.73877  0.81568  1.0000
  H   H2125     1.0  0.18390  0.92256  0.83545  1.0000
  C   C2671     1.0  0.03638  0.74737  0.90030  1.0000
  H   H2126     1.0  0.21964  0.98726  0.79048  1.0000
  C   C2672     1.0  0.28315  0.55290  0.82859  1.0000
  C   C2673     1.0  0.23312  0.52780  0.80216  1.0000
  C   C2674     1.0  0.07298  0.54692  0.84998  1.0000
  C   C2675     1.0  0.25927  0.53052  0.85443  1.0000
  C   C2676     1.0  0.26053  0.55179  0.85499  1.0000
  C   C2677     1.0  0.27302  0.56275  0.84215  1.0000
  P   P88       1.0  0.24785  0.56410  0.87282  1.0000
  C   C2678     1.0  0.22252  0.55537  0.87929  1.0000
  C   C2679     1.0  0.26340  0.55539  0.88945  1.0000
  C   C2680     1.0  0.25415  0.55716  0.90578  1.0000
  C   C2681     1.0  0.26572  0.54938  0.91882  1.0000
  C   C2682     1.0  0.28659  0.53988  0.91565  1.0000
  C   C2683     1.0  0.29597  0.53829  0.89945  1.0000
  C   C2684     1.0  0.28446  0.54599  0.88637  1.0000
  C   C2685     1.0  0.20419  0.56747  0.87401  1.0000
  C   C2686     1.0  0.18482  0.56028  0.87892  1.0000
  C   C2687     1.0  0.18357  0.54094  0.88900  1.0000
  C   C2688     1.0  0.20165  0.52890  0.89442  1.0000
  C   C2689     1.0  0.22105  0.53599  0.88956  1.0000
  C   C2690     1.0  0.24445  0.59266  0.86764  1.0000
  C   C2691     1.0  0.23713  0.60226  0.85281  1.0000
  H   H2127     1.0  0.05936  0.55650  0.84527  1.0000
  C   C2692     1.0  0.48262  0.74638  0.82626  1.0000
  C   C2693     1.0  0.24662  0.62754  0.87393  1.0000
  C   C2694     1.0  0.24922  0.60550  0.87818  1.0000
  H   H2128     1.0  0.29252  0.56155  0.81864  1.0000
  H   H2129     1.0  0.48268  0.63065  0.96849  1.0000
  S   S375      1.0  0.46914  0.78137  0.93542  1.0000
  H   H2130     1.0  0.25054  0.52143  0.86449  1.0000
  H   H2131     1.0  0.27505  0.57887  0.84256  1.0000
  H   H2132     1.0  0.23789  0.56421  0.90843  1.0000
  H   H2133     1.0  0.25844  0.55035  0.93141  1.0000
  H   H2134     1.0  0.29544  0.53331  0.92576  1.0000
  H   H2135     1.0  0.31202  0.53041  0.89715  1.0000
  H   H2136     1.0  0.29196  0.54417  0.87397  1.0000
  H   H2137     1.0  0.20464  0.58223  0.86586  1.0000
  H   H2138     1.0  0.17084  0.56941  0.87445  1.0000
  C   C2695     1.0  0.12041  0.57389  0.79776  1.0000
  H   H2139     1.0  0.15079  0.76827  0.79977  1.0000
  H   H2140     1.0  0.23490  0.52609  0.89367  1.0000
  C   C2696     1.0  0.01596  0.58572  0.87673  1.0000
  C   C2697     1.0  0.11085  0.53863  0.84849  1.0000
  H   H2141     1.0  0.25031  0.63739  0.88209  1.0000
  H   H2142     1.0  0.25497  0.59863  0.88965  1.0000
  C   C2698     1.0  0.24828  0.83103  0.80369  1.0000
  H   H2143     1.0  0.35870  0.79010  0.90737  1.0000
  H   H2144     1.0  0.21599  0.75103  0.80481  1.0000
  H   H2145     1.0  0.43516  0.90679  0.96263  1.0000
  C   C2699     1.0  0.07686  0.94130  0.95918  1.0000
  P   P89       1.0  0.11957  0.92724  0.96085  1.0000
  H   H2146     1.0  0.13633  0.51198  0.82282  1.0000
  C   C2700     1.0  0.24560  0.79421  0.80352  1.0000
  C   C2701     1.0  0.47975  0.80711  0.95467  1.0000
  H   H2147     1.0  0.34581  0.75600  0.91718  1.0000
  C   C2702     1.0  0.02533  0.54828  0.87407  1.0000
  H   H2148     1.0  0.08568  0.82296  0.90206  1.0000
  C   C2703     1.0  0.48831  0.75460  0.83920  1.0000
  H   H2149     1.0  0.32149  0.74387  0.90193  1.0000
  H   H2150     1.0  0.39500  0.68917  0.79194  1.0000
  C   C2704     1.0  0.47678  0.86738  0.93648  1.0000
  H   H2151     1.0  0.32257  0.84498  0.85583  1.0000
  H   H2152     1.0  0.38665  0.81425  0.82167  1.0000
  C   C2705     1.0  0.46372  0.78104  0.81734  1.0000
  C   C2706     1.0  0.05540  0.52213  0.90358  1.0000
  C   C2707     1.0  0.32110  0.77114  0.88327  1.0000
  C   C2708     1.0  0.43480  0.53116  0.92750  1.0000
  P   P90       1.0  0.35204  0.82209  0.87843  1.0000
  H   H2153     1.0  0.07647  0.80296  0.88225  1.0000
  S   S376      1.0  0.39368  0.92967  0.96925  1.0000
  H   H2154     1.0  0.42808  0.61670  0.97432  1.0000
  S   S377      1.0  0.47418  0.77261  0.88785  1.0000
  H   H2155     1.0  0.28929  0.52418  0.81752  1.0000
  H   H2156     1.0  0.04765  0.56960  0.87377  1.0000
  H   H2157     1.0  0.46880  0.70502  0.94249  1.0000
  C   C2709     1.0  0.12132  0.87034  0.94483  1.0000
  C   C2710     1.0  0.09307  0.55108  0.84280  1.0000
  C   C2711     1.0  0.11968  0.56084  0.78609  1.0000
  H   H2158     1.0  0.20074  0.51382  0.90216  1.0000
  C   C2712     1.0  0.48968  0.68863  0.85307  1.0000
  C   C2713     1.0  0.46222  0.69215  0.79390  1.0000
  S   S378      1.0  0.16420  0.64631  0.80087  1.0000
  H   H2159     1.0  0.04938  0.96632  0.92828  1.0000
  H   H2160     1.0  0.22876  0.63146  0.83717  1.0000
  C   C2714     1.0  0.09734  0.93999  0.95056  1.0000
  C   C2715     1.0  0.22774  0.50760  0.80736  1.0000
  C   C2716     1.0  0.10860  0.52176  0.86114  1.0000
  C   C2717     1.0  0.43455  0.77378  0.97388  1.0000
  H   H2161     1.0  0.48766  0.82810  0.96967  1.0000
  H   H2162     1.0  0.23338  0.59273  0.84446  1.0000
  H   H2163     1.0  0.47329  0.55264  0.95945  1.0000
  C   C2718     1.0  0.23927  0.63691  0.85916  1.0000
  C   C2719     1.0  0.23453  0.62425  0.84862  1.0000
  C   C2720     1.0  0.22826  0.79254  0.86308  1.0000
  C   C2721     1.0  0.22393  0.78629  0.84885  1.0000
  C   C2722     1.0  0.20933  0.79922  0.83962  1.0000
  C   C2723     1.0  0.19916  0.81846  0.84458  1.0000
  C   C2724     1.0  0.20282  0.82447  0.85924  1.0000
  C   C2725     1.0  0.21775  0.81151  0.86831  1.0000
  P   P91       1.0  0.18957  0.84943  0.86548  1.0000
  C   C2726     1.0  0.19806  0.87044  0.84990  1.0000
  C   C2727     1.0  0.16124  0.85052  0.86894  1.0000
  C   C2728     1.0  0.15166  0.83421  0.86543  1.0000
  C   C2729     1.0  0.12978  0.83539  0.86826  1.0000
  C   C2730     1.0  0.11727  0.85275  0.87463  1.0000
  C   C2731     1.0  0.12667  0.86865  0.87865  1.0000
  C   C2732     1.0  0.14852  0.86735  0.87614  1.0000
  C   C2733     1.0  0.21779  0.86709  0.84015  1.0000
  C   C2734     1.0  0.22494  0.88346  0.82860  1.0000
  C   C2735     1.0  0.21275  0.90341  0.82688  1.0000
  C   C2736     1.0  0.19321  0.90696  0.83656  1.0000
  C   C2737     1.0  0.18586  0.89058  0.84799  1.0000
  C   C2738     1.0  0.19719  0.85247  0.88477  1.0000
  C   C2739     1.0  0.18692  0.84310  0.89967  1.0000
  C   C2740     1.0  0.19285  0.84520  0.91468  1.0000
  C   C2741     1.0  0.20913  0.85654  0.91490  1.0000
  C   C2742     1.0  0.21965  0.86556  0.90011  1.0000
  C   C2743     1.0  0.21370  0.86363  0.88508  1.0000
  H   H2164     1.0  0.24015  0.78287  0.86990  1.0000
  H   H2165     1.0  0.23231  0.77167  0.84479  1.0000
  H   H2166     1.0  0.20626  0.79453  0.82841  1.0000
  H   H2167     1.0  0.18838  0.82866  0.83704  1.0000
  H   H2168     1.0  0.22171  0.81610  0.87923  1.0000
  H   H2169     1.0  0.16085  0.82039  0.86078  1.0000
  H   H2170     1.0  0.12245  0.82283  0.86557  1.0000
  H   H2171     1.0  0.10029  0.85380  0.87663  1.0000
  H   H2172     1.0  0.11699  0.88202  0.88376  1.0000
  H   H2173     1.0  0.15543  0.87950  0.87995  1.0000
  H   H2174     1.0  0.22801  0.85204  0.84173  1.0000
  H   H2175     1.0  0.24031  0.88091  0.82136  1.0000
  Fe  Fe195     1.0  0.17576  0.67654  0.78898  1.0000
  C   C2744     1.0  0.42067  0.72787  0.81040  1.0000
  H   H2176     1.0  0.17087  0.89403  0.85543  1.0000
  H   H2177     1.0  0.17429  0.83424  0.89971  1.0000
  H   H2178     1.0  0.18477  0.83812  0.92613  1.0000
  H   H2179     1.0  0.21350  0.85855  0.92649  1.0000
  H   H2180     1.0  0.23204  0.87461  0.90031  1.0000
  H   H2181     1.0  0.22191  0.87104  0.87381  1.0000
  H   H2182     1.0  0.25370  0.80647  0.82395  1.0000
  H   H2183     1.0  0.46097  0.74969  0.96897  1.0000
  C   C2745     1.0  0.46992  0.75968  0.81549  1.0000
  H   H2184     1.0  0.16215  0.70576  0.84543  1.0000
  H   H2185     1.0  0.33015  0.92706  0.84491  1.0000
  C   C2746     1.0  0.39249  0.60097  0.95494  1.0000
  H   H2186     1.0  0.10278  0.79986  0.85416  1.0000
  H   H2187     1.0  0.12628  0.69748  0.84741  1.0000
  C   C2747     1.0  0.43222  0.90846  0.97555  1.0000
  C   C2748     1.0  0.21914  0.54363  0.79446  1.0000
  C   C2749     1.0  0.31889  0.96002  0.83782  1.0000
  C   C2750     1.0  0.32685  0.94273  0.84858  1.0000
  C   C2751     1.0  0.18297  0.75797  0.80357  1.0000
  H   H2188     1.0  0.29295  0.70170  0.78646  1.0000
  H   H2189     1.0  0.02069  0.98431  0.96501  1.0000
  H   H2190     1.0  0.05919  0.75662  0.85462  1.0000
  C   C2752     1.0  0.08161  0.77696  0.85652  1.0000
  C   C2753     1.0  0.15612  0.87162  0.95063  1.0000
  C   C2754     1.0  0.23260  0.97461  0.79219  1.0000
  H   H2191     1.0  0.38577  0.63255  0.89372  1.0000
  C   C2755     1.0  0.44101  0.98528  0.97186  1.0000
  H   H2192     1.0  0.09181  0.71577  0.88968  1.0000
  H   H2193     1.0  0.09487  0.56397  0.83285  1.0000
  C   C2756     1.0  0.23422  0.96402  0.80811  1.0000
  H   H2194     1.0  0.24651  0.77812  0.80982  1.0000
  C   C2757     1.0  0.38370  0.83818  0.88947  1.0000
  C   C2758     1.0  0.37308  0.82168  0.82918  1.0000
  H   H2195     1.0  0.04391  0.95122  0.95780  1.0000
  H   H2196     1.0  0.46451  0.75367  0.80581  1.0000
  C   C2759     1.0  0.14683  0.95414  0.96576  1.0000
  C   C2760     1.0  0.45647  0.70993  0.84790  1.0000
  H   H2197     1.0  0.31603  0.95777  0.82579  1.0000
  C   C2761     1.0  0.41434  0.61046  0.97265  1.0000
  C   C2762     1.0  0.11436  0.89046  0.94947  1.0000
  H   H2198     1.0  0.24272  0.93875  0.96348  1.0000
  H   H2199     1.0  0.36620  0.58579  0.96743  1.0000
  C   C2763     1.0  0.05622  0.51319  0.91997  1.0000
  H   H2200     1.0  0.43071  0.95508  0.97961  1.0000
  C   C2764     1.0  0.10020  0.94783  0.93368  1.0000
  C   C2765     1.0  0.19973  0.53928  0.79203  1.0000
  H   H2201     1.0  0.11336  0.80706  0.91939  1.0000
  H   H2202     1.0  0.06349  0.69760  0.90611  1.0000
  H   H2203     1.0  0.04326  0.67984  0.97691  1.0000
  C   C2766     1.0  0.08855  0.51759  0.86837  1.0000
  H   H2204     1.0  0.17933  0.95209  0.92236  1.0000
  C   C2767     1.0  0.49119  0.59902  0.94354  1.0000
  C   C2768     1.0  0.37929  0.59330  0.96884  1.0000
  C   C2769     1.0  0.47324  0.56875  0.95337  1.0000
  C   C2770     1.0  0.45447  0.58086  0.94932  1.0000
  C   C2771     1.0  0.45371  0.60231  0.94275  1.0000
  C   C2772     1.0  0.47231  0.61125  0.93964  1.0000
  P   P92       1.0  0.42863  0.61777  0.93910  1.0000
  C   C2773     1.0  0.42095  0.61231  0.92051  1.0000
  C   C2774     1.0  0.20392  0.76048  0.79807  1.0000
  C   C2775     1.0  0.99791  0.51401  0.95101  1.0000
  C   C2776     1.0  0.22857  0.99490  0.93983  1.0000
  C   C2777     1.0  0.09005  0.79538  0.84933  1.0000
  C   C2778     1.0  0.28031  0.94725  0.97614  1.0000
  H   H2205     1.0  0.08814  0.82271  0.83067  1.0000
  C   C2779     1.0  0.40494  0.62620  0.91325  1.0000
  C   C2780     1.0  0.39828  0.62187  0.89916  1.0000
  C   C2781     1.0  0.40753  0.60363  0.89225  1.0000
  C   C2782     1.0  0.42350  0.58974  0.89939  1.0000
  C   C2783     1.0  0.43019  0.59403  0.91349  1.0000
  C   C2784     1.0  0.42905  0.64599  0.93674  1.0000
  C   C2785     1.0  0.44086  0.65584  0.92280  1.0000
  C   C2786     1.0  0.44029  0.67782  0.92029  1.0000
  C   C2787     1.0  0.42745  0.69019  0.93137  1.0000
  C   C2788     1.0  0.41557  0.68057  0.94519  1.0000
  C   C2789     1.0  0.41641  0.65858  0.94793  1.0000
  H   H2206     1.0  0.23721  0.65399  0.85587  1.0000
  H   H2207     1.0  0.33537  0.93211  0.87288  1.0000
  H   H2208     1.0  0.14963  0.93230  0.93066  1.0000
  H   H2209     1.0  0.44035  0.57366  0.95180  1.0000
  H   H2210     1.0  0.47225  0.62776  0.93478  1.0000
  H   H2211     1.0  0.08716  0.50419  0.87796  1.0000
  C   C2790     1.0  0.31381  0.98010  0.84279  1.0000
  C   C2791     1.0  0.33367  0.84314  0.88707  1.0000
  H   H2212     1.0  0.17227  0.86434  0.95110  1.0000
  H   H2213     1.0  0.01606  0.53106  0.84717  1.0000
  H   H2214     1.0  0.39738  0.64024  0.91862  1.0000
  S   S379      1.0  0.99980  0.92708  0.92188  1.0000
  H   H2215     1.0  0.40219  0.60016  0.88144  1.0000
  H   H2216     1.0  0.43054  0.57552  0.89409  1.0000
  H   H2217     1.0  0.44240  0.58297  0.91890  1.0000
  H   H2218     1.0  0.45056  0.64651  0.91391  1.0000
  H   H2219     1.0  0.44991  0.68538  0.90986  1.0000
  H   H2220     1.0  0.42702  0.70721  0.92935  1.0000
  H   H2221     1.0  0.40599  0.69010  0.95401  1.0000
  H   H2222     1.0  0.40714  0.65163  0.95881  1.0000
  H   H2223     1.0  0.10892  0.64463  0.80651  1.0000
  C   C2792     1.0  0.06274  0.95930  0.93455  1.0000
  H   H2224     1.0  0.05915  0.81259  0.81911  1.0000
  C   C2793     1.0  0.07056  0.53058  0.86319  1.0000
  S   S380      1.0  0.48908  0.72203  0.88298  1.0000
  H   H2225     1.0  0.40826  0.85048  0.89763  1.0000
  C   C2794     1.0  0.04054  0.72223  0.78699  1.0000
  H   H2226     1.0  0.36121  0.71571  0.79062  1.0000
  H   H2227     1.0  0.48103  0.52230  0.94289  1.0000
  H   H2228     1.0  0.32568  0.85212  0.82566  1.0000
  H   H2229     1.0  0.31988  0.89691  0.88064  1.0000
  H   H2230     1.0  0.34594  0.86825  0.86957  1.0000
  C   C2795     1.0  0.34099  0.76561  0.90611  1.0000
  H   H2231     1.0  0.28005  0.98709  0.98400  1.0000
  C   C2796     1.0  0.23591  0.95690  0.94045  1.0000
  H   H2232     1.0  0.38445  0.80776  0.85177  1.0000
  C   C2797     1.0  0.41308  0.91958  0.98210  1.0000
  C   C2798     1.0  0.23095  0.97709  0.93184  1.0000
  H   H2233     1.0  0.29148  0.85126  0.91681  1.0000
  C   C2799     1.0  0.41574  0.70906  0.81991  1.0000
  C   C2800     1.0  0.39265  0.53712  0.97748  1.0000
  C   C2801     1.0  0.13566  0.56844  0.80832  1.0000
  C   C2802     1.0  0.31817  0.83855  0.90045  1.0000
  C   C2803     1.0  0.32497  0.96567  0.86924  1.0000
  H   H2234     1.0  0.31612  0.99270  0.89884  1.0000
  C   C2804     1.0  0.37777  0.82068  0.88441  1.0000
  H   H2235     1.0  0.01323  0.70684  0.79495  1.0000
  C   C2805     1.0  0.41228  0.80077  0.88806  1.0000
  H   H2236     1.0  0.00627  0.50634  0.83122  1.0000
  H   H2237     1.0  0.18907  0.55190  0.78622  1.0000
  C   C2806     1.0  0.35669  0.83432  0.82172  1.0000
  C   C2807     1.0  0.40195  0.70024  0.79699  1.0000
  C   C2808     1.0  0.32734  0.75874  0.89752  1.0000
  C   C2809     1.0  0.33867  0.84285  0.83143  1.0000
  C   C2810     1.0  0.30358  0.85488  0.90664  1.0000
  H   H2238     1.0  0.09569  0.72142  0.85882  1.0000
  H   H2239     1.0  0.46310  0.54530  0.92120  1.0000
  H   H2240     1.0  0.03165  0.95383  0.90711  1.0000
  C   C2811     1.0  0.41801  0.81819  0.89317  1.0000
  H   H2241     1.0  0.16031  0.89981  0.95926  1.0000
  H   H2242     1.0  0.39023  0.93303  0.93164  1.0000
  C   C2812     1.0  0.48875  0.67517  0.94095  1.0000
  C   C2813     1.0  0.25097  0.94792  0.81090  1.0000
  H   H2243     1.0  0.01945  0.79607  0.86231  1.0000
  C   C2814     1.0  0.48978  0.72157  0.79081  1.0000
  H   H2244     1.0  0.13752  0.76254  0.86667  1.0000
  C   C2815     1.0  0.33707  0.83888  0.84860  1.0000
  H   H2245     1.0  0.42887  0.77367  0.96238  1.0000
  C   C2816     1.0  0.03127  0.56795  0.87467  1.0000
  H   H2246     1.0  0.33058  0.70036  0.78748  1.0000
  C   C2817     1.0  0.34840  0.78488  0.90041  1.0000
  C   C2818     1.0  0.24946  0.81021  0.81160  1.0000
  C   C2819     1.0  0.31967  0.88060  0.88624  1.0000
  C   C2820     1.0  0.33433  0.86433  0.88004  1.0000
  H   H2247     1.0  0.37968  0.76004  0.78900  1.0000
  C   C2821     1.0  0.14117  0.94237  0.95482  1.0000
  H   H2248     1.0  0.06236  0.53632  0.89886  1.0000
  H   H2249     1.0  0.13165  0.77047  0.91705  1.0000
  Fe  Fe196     1.0  0.31521  0.78244  0.80094  1.0000
  C   C2822     1.0  0.45514  0.53345  0.92935  1.0000
  Fe  Fe197     1.0  0.49347  0.71632  0.90968  1.0000
  C   C2823     1.0  0.43543  0.96841  0.98357  1.0000
  P   P93       1.0  0.04470  0.52487  0.87228  1.0000
  C   C2824     1.0  0.23856  0.95451  0.95705  1.0000
  H   H2250     1.0  0.45005  0.67499  0.88294  1.0000
  H   H2251     1.0  0.06383  0.52036  0.92782  1.0000
  C   C2825     1.0  0.03784  0.50734  0.85989  1.0000
  C   C2826     1.0  0.99866  0.95454  0.91594  1.0000
  H   H2252     1.0  0.11047  0.86196  0.94088  1.0000
  C   C2827     1.0  0.00523  0.98988  0.96168  1.0000
  H   H2253     1.0  0.16778  0.73853  0.85460  1.0000
  H   H2254     1.0  0.21866  0.91622  0.81828  1.0000
  S   S381      1.0  0.36606  0.98437  0.95354  1.0000
  C   C2828     1.0  0.31704  0.98320  0.85850  1.0000
  C   C2829     1.0  0.14929  0.89180  0.95517  1.0000
  C   C2830     1.0  0.07635  0.72473  0.89227  1.0000
  H   H2255     1.0  0.25163  0.84327  0.80990  1.0000
  H   H2256     1.0  0.41920  0.74810  0.78735  1.0000
  H   H2257     1.0  0.00915  0.87116  0.98431  1.0000
  H   H2258     1.0  0.18857  0.97343  0.94161  1.0000
  H   H2259     1.0  0.11556  0.94604  0.92641  1.0000
  H   H2260     1.0  0.12241  0.75004  0.89738  1.0000
  C   C2831     1.0  0.26611  0.94228  0.79778  1.0000
  C   C2832     1.0  0.15019  0.54997  0.80722  1.0000
  H   H2261     1.0  0.46517  0.80574  0.83147  1.0000
  H   H2262     1.0  0.44016  0.83319  0.97024  1.0000
  H   H2263     1.0  0.04494  0.77945  0.83116  1.0000
  H   H2264     1.0  0.14728  0.84527  0.94191  1.0000
  C   C2833     1.0  0.37922  0.81073  0.94701  1.0000
  C   C2834     1.0  0.39311  0.79498  0.93951  1.0000
  C   C2835     1.0  0.41407  0.79757  0.93436  1.0000
  C   C2836     1.0  0.42115  0.81598  0.93651  1.0000
  C   C2837     1.0  0.40711  0.83230  0.94332  1.0000
  C   C2838     1.0  0.38622  0.82925  0.94902  1.0000
  P   P94       1.0  0.41540  0.85689  0.94527  1.0000
  C   C2839     1.0  0.39910  0.87916  0.93525  1.0000
  C   C2840     1.0  0.41342  0.85760  0.96713  1.0000
  C   C2841     1.0  0.12838  0.90144  0.95449  1.0000
  C   C2842     1.0  0.48215  0.71195  0.80653  1.0000
  C   C2843     1.0  0.38427  0.87634  0.92559  1.0000
  C   C2844     1.0  0.37151  0.89388  0.91834  1.0000
  C   C2845     1.0  0.37362  0.91431  0.92051  1.0000
  C   C2846     1.0  0.38868  0.91723  0.92973  1.0000
  C   C2847     1.0  0.40150  0.89975  0.93691  1.0000
  C   C2848     1.0  0.44207  0.85904  0.93563  1.0000
  C   C2849     1.0  0.44885  0.85420  0.91956  1.0000
  C   C2850     1.0  0.00358  0.81454  0.89905  1.0000
  C   C2851     1.0  0.42161  0.55147  0.98484  1.0000
  H   H2265     1.0  0.47507  0.85045  0.90020  1.0000
  C   C2852     1.0  0.45607  0.86631  0.94382  1.0000
  H   H2266     1.0  0.36302  0.80860  0.95123  1.0000
  H   H2267     1.0  0.38775  0.78064  0.93785  1.0000
  H   H2268     1.0  0.42502  0.78516  0.92887  1.0000
  H   H2269     1.0  0.43760  0.81723  0.93295  1.0000
  H   H2270     1.0  0.37529  0.84139  0.95480  1.0000
  C   C2853     1.0  0.17544  0.96477  0.94531  1.0000
  H   H2271     1.0  0.38622  0.88217  0.96858  1.0000
  H   H2272     1.0  0.38240  0.86075  0.92362  1.0000
  H   H2273     1.0  0.35982  0.89166  0.91116  1.0000
  H   H2274     1.0  0.36357  0.92791  0.91511  1.0000
  C   C2854     1.0  0.30433  0.87588  0.89953  1.0000
  H   H2275     1.0  0.41300  0.90233  0.94408  1.0000
  H   H2276     1.0  0.43820  0.84931  0.91277  1.0000
  C   C2855     1.0  0.48559  0.79753  0.94030  1.0000
  C   C2856     1.0  0.17016  0.95288  0.93445  1.0000
  H   H2277     1.0  0.44485  0.69188  0.96654  1.0000
  H   H2278     1.0  0.45125  0.87106  0.95592  1.0000
  C   C2857     1.0  0.12859  0.71164  0.85174  1.0000
  C   C2858     1.0  0.14887  0.71635  0.85058  1.0000
  C   C2859     1.0  0.15199  0.73478  0.85589  1.0000
  C   C2860     1.0  0.13482  0.74818  0.86285  1.0000
  C   C2861     1.0  0.11444  0.74295  0.86483  1.0000
  C   C2862     1.0  0.11135  0.72510  0.85848  1.0000
  P   P95       1.0  0.09221  0.76026  0.87370  1.0000
  C   C2863     1.0  0.07217  0.74635  0.88620  1.0000
  C   C2864     1.0  0.09962  0.77543  0.88763  1.0000
  C   C2865     1.0  0.11479  0.76620  0.89790  1.0000
  C   C2866     1.0  0.11995  0.77767  0.90916  1.0000
  C   C2867     1.0  0.10966  0.79824  0.91051  1.0000
  C   C2868     1.0  0.09411  0.80725  0.90069  1.0000
  C   C2869     1.0  0.08900  0.79588  0.88937  1.0000
  C   C2870     1.0  0.05221  0.75766  0.89059  1.0000
  H   H2279     1.0  0.44044  0.98500  0.95894  1.0000
  C   C2871     1.0  0.00742  0.53186  0.95103  1.0000
  C   C2872     1.0  0.44639  0.69920  0.86216  1.0000
  S   S382      1.0  0.20697  0.66829  0.79825  1.0000
  H   H2280     1.0  0.02086  0.75619  0.90328  1.0000
  C   C2873     1.0  0.20833  0.50315  0.80496  1.0000
  C   C2874     1.0  0.39774  0.87160  0.97519  1.0000
  H   H2281     1.0  0.20586  0.94811  0.98188  1.0000
  H   H2282     1.0  0.17915  0.74646  0.81423  1.0000
  H   H2283     1.0  0.38914  0.59943  0.94291  1.0000
  H   H2284     1.0  0.22274  0.96863  0.81839  1.0000
  C   C2875     1.0  0.04568  0.51280  0.89333  1.0000
  C   C2876     1.0  0.41013  0.60967  0.95675  1.0000
  H   H2285     1.0  0.25238  0.50542  0.97765  1.0000
  C   C2877     1.0  0.45788  0.68309  0.87181  1.0000
  C   C2878     1.0  0.48367  0.86143  0.92086  1.0000
  H   H2286     1.0  0.42974  0.70378  0.86599  1.0000
  H   H2287     1.0  0.13843  0.95459  0.97804  1.0000
  H   H2288     1.0  0.01303  0.53439  0.96200  1.0000
  H   H2289     1.0  0.16866  0.53509  0.89230  1.0000
  H   H2290     1.0  0.22928  0.97890  0.91890  1.0000
  C   C2879     1.0  0.47952  0.67788  0.86733  1.0000
  C   C2880     1.0  0.42476  0.51558  0.93783  1.0000
  H   H2291     1.0  0.27950  0.95713  0.96434  1.0000
  C   C2881     1.0  0.47814  0.70457  0.84312  1.0000
  C   C2882     1.0  0.23128  0.99257  0.95643  1.0000
  H   H2292     1.0  0.41872  0.70543  0.83258  1.0000
  H   H2293     1.0  0.13233  0.61972  0.78930  1.0000
  H   H2294     1.0  0.16814  0.97435  0.96947  1.0000
  C   C2883     1.0  0.40677  0.69504  0.81309  1.0000
  C   C2884     1.0  0.11210  0.64895  0.79326  1.0000
  H   H2295     1.0  0.10915  0.58821  0.79864  1.0000
  C   C2885     1.0  0.46857  0.69694  0.80798  1.0000
  C   C2886     1.0  0.14984  0.53700  0.79532  1.0000
  H   H2296     1.0  0.08528  0.96283  0.91258  1.0000
  C   C2887     1.0  0.01501  0.98593  0.90519  1.0000
  H   H2297     1.0  0.48729  0.78226  0.85070  1.0000
  S   S383      1.0  0.44364  0.65095  0.98510  1.0000
  C   C2888     1.0  0.41572  0.73319  0.79436  1.0000
  C   C2889     1.0  0.00282  0.54361  0.92246  1.0000
  H   H2298     1.0  0.43505  0.55967  0.98123  1.0000
  C   C2890     1.0  0.26562  0.99952  0.82158  1.0000
  H   H2299     1.0  0.41034  0.79866  0.98160  1.0000
  C   C2891     1.0  0.45500  0.50518  0.95257  1.0000
  H   H2300     1.0  0.12249  0.51192  0.86531  1.0000
  C   C2892     1.0  0.45264  0.76013  0.97766  1.0000
  C   C2893     1.0  0.49311  0.65437  0.94879  1.0000
  H   H2301     1.0  0.03444  0.73528  0.79396  1.0000
  H   H2302     1.0  0.00587  0.69610  0.98166  1.0000
  C   C2894     1.0  0.11208  0.92427  0.98298  1.0000
  H   H2303     1.0  0.30710  0.99308  0.83438  1.0000
  H   H2304     1.0  0.09816  0.95707  0.98339  1.0000
  H   H2305     1.0  0.08014  0.99379  0.94454  1.0000
  C   C2895     1.0  0.24094  0.79892  0.78733  1.0000
  H   H2306     1.0  0.00438  0.55518  0.91151  1.0000
  S   S384      1.0  0.22834  0.99652  0.84283  1.0000
  H   H2307     1.0  0.99889  0.53130  0.87680  1.0000
  H   H2308     1.0  0.46237  0.89103  0.98048  1.0000
  C   C2896     1.0  0.42803  0.84416  0.97622  1.0000
  H   H2309     1.0  0.22305  0.55949  0.79085  1.0000
  H   H2310     1.0  0.00074  0.95885  0.95801  1.0000
  H   H2311     1.0  0.27146  0.99700  0.86000  1.0000
  P   P96       1.0  0.49049  0.71861  0.82446  1.0000
  C   C2897     1.0  0.42420  0.78786  0.98471  1.0000
  H   H2312     1.0  0.05015  0.96827  0.98467  1.0000
  C   C2898     1.0  0.29855  0.93292  0.97843  1.0000
  C   C2899     1.0  0.01786  0.50074  0.83950  1.0000
  H   H2313     1.0  0.48854  0.66591  0.87516  1.0000
  H   H2314     1.0  0.30474  0.73614  0.78630  1.0000
  S   S385      1.0  0.33701  0.96058  0.98499  1.0000
  C   C2900     1.0  0.38361  0.59420  0.98462  1.0000
  C   C2901     1.0  0.10349  0.66885  0.78596  1.0000
  C   C2902     1.0  0.99667  0.33152  0.11460  1.0000
  H   H2315     1.0  0.60410  0.16425  0.07805  1.0000
  C   C2903     1.0  0.60573  0.31064  0.01901  1.0000
  Fe  Fe198     1.0  0.53733  0.21160  0.08994  1.0000
  H   H2316     1.0  0.52565  0.16895  0.00922  1.0000
  S   S386      1.0  0.56625  0.18951  0.09762  1.0000
  Fe  Fe199     1.0  0.52737  0.25351  0.06836  1.0000
  S   S387      1.0  0.54422  0.27851  0.05235  1.0000
  C   C2904     1.0  0.53473  0.36824  0.02001  1.0000
  H   H2317     1.0  0.51807  0.17131  0.05975  1.0000
  S   S388      1.0  0.52888  0.24504  0.09536  1.0000
  S   S389      1.0  0.53788  0.22052  0.06259  1.0000
  Fe  Fe200     1.0  0.79083  0.46410  0.10544  1.0000
  S   S390      1.0  0.75676  0.46688  0.11591  1.0000
  S   S391      1.0  0.81441  0.43398  0.10608  1.0000
  H   H2318     1.0  0.73485  0.39475  0.18184  1.0000
  C   C2905     1.0  0.86120  0.47408  0.03548  1.0000
  S   S392      1.0  0.84828  0.32193  0.16836  1.0000
  Fe  Fe201     1.0  0.81165  0.28094  0.16587  1.0000
  S   S393      1.0  0.81880  0.30650  0.14493  1.0000
  S   S394      1.0  0.79587  0.25238  0.16539  1.0000
  Fe  Fe202     1.0  0.85219  0.29853  0.15041  1.0000
  S   S395      1.0  0.87849  0.29431  0.12911  1.0000
  Fe  Fe203     1.0  0.81434  0.32778  0.16452  1.0000
  S   S396      1.0  0.79409  0.36001  0.16396  1.0000
  S   S397      1.0  0.84540  0.27153  0.16992  1.0000
  H   H2319     1.0  0.74991  0.36618  0.16074  1.0000
  Fe  Fe204     1.0  0.71978  0.01898  0.10903  1.0000
  C   C2906     1.0  0.87746  0.00274  0.99078  1.0000
  Fe  Fe205     1.0  0.73665  0.03973  0.13361  1.0000
  S   S398      1.0  0.76877  0.02104  0.12907  1.0000
  S   S399      1.0  0.72912  0.06176  0.15305  1.0000
  Fe  Fe206     1.0  0.76487  0.02814  0.10241  1.0000
  S   S400      1.0  0.78882  0.04173  0.08231  1.0000
  H   H2320     1.0  0.78630  0.46810  0.01487  1.0000
  S   S401      1.0  0.73362  0.04879  0.10678  1.0000
  C   C2907     1.0  0.60037  0.43392  0.99296  1.0000
  Fe  Fe207     1.0  0.91990  0.08263  0.04519  1.0000
  S   S402      1.0  0.92561  0.04770  0.05348  1.0000
  S   S403      1.0  0.91289  0.09761  0.01970  1.0000
  Fe  Fe208     1.0  0.92824  0.09367  0.07782  1.0000
  S   S404      1.0  0.93459  0.05940  0.08848  1.0000
  S   S405      1.0  0.92844  0.11798  0.09470  1.0000
  Fe  Fe209     1.0  0.95297  0.05446  0.06384  1.0000
  Fe  Fe210     1.0  0.90644  0.05571  0.07741  1.0000
  S   S406      1.0  0.88378  0.03542  0.09346  1.0000
  S   S407      1.0  0.94871  0.08909  0.05385  1.0000
  S   S408      1.0  0.89869  0.09033  0.06839  1.0000
  H   H2321     1.0  0.95678  0.07248  0.00195  1.0000
  C   C2908     1.0  0.98559  0.29699  0.11882  1.0000
  S   S409      1.0  0.96771  0.24395  0.14330  1.0000
  H   H2322     1.0  0.96350  0.00858  0.08351  1.0000
  C   C2909     1.0  0.95576  0.46811  0.08401  1.0000
  Fe  Fe211     1.0  0.69020  0.17923  0.14355  1.0000
  S   S410      1.0  0.67579  0.21268  0.13550  1.0000
  S   S411      1.0  0.70812  0.15870  0.12498  1.0000
  P   P97       1.0  0.86862  0.00670  0.04025  1.0000
  C   C2910     1.0  0.73297  0.48813  0.04941  1.0000
  Fe  Fe212     1.0  0.64793  0.20467  0.15374  1.0000
  S   S412      1.0  0.61424  0.21708  0.14959  1.0000
  Fe  Fe213     1.0  0.68870  0.22055  0.15688  1.0000
  S   S413      1.0  0.70179  0.25143  0.15479  1.0000
  S   S414      1.0  0.66134  0.17054  0.16015  1.0000
  S   S415      1.0  0.70540  0.18762  0.16343  1.0000
  S   S416      1.0  0.64173  0.48590  0.01688  1.0000
  H   H2323     1.0  0.68983  0.05540  0.14401  1.0000
  C   C2911     1.0  0.69690  0.00540  0.04569  1.0000
  Fe  Fe214     1.0  0.63421  0.47043  0.99652  1.0000
  S   S417      1.0  0.61509  0.44342  0.00559  1.0000
  Fe  Fe215     1.0  0.67329  0.48788  0.00175  1.0000
  S   S418      1.0  0.70575  0.48362  0.00966  1.0000
  H   H2324     1.0  0.53789  0.06082  0.07786  1.0000
  H   H2325     1.0  0.85401  0.44258  0.04446  1.0000
  C   C2912     1.0  0.94817  0.13446  0.09080  1.0000
  C   C2913     1.0  0.96162  0.13591  0.07587  1.0000
  C   C2914     1.0  0.97652  0.14987  0.07282  1.0000
  C   C2915     1.0  0.97817  0.16245  0.08467  1.0000
  C   C2916     1.0  0.96501  0.16072  0.09975  1.0000
  C   C2917     1.0  0.95015  0.14668  0.10282  1.0000
  H   H2326     1.0  0.96036  0.12653  0.06655  1.0000
  C   C2918     1.0  0.85884  0.49503  0.03876  1.0000
  H   H2327     1.0  0.94018  0.14525  0.11457  1.0000
  C   C2919     1.0  0.72350  0.08874  0.14526  1.0000
  C   C2920     1.0  0.71441  0.10342  0.15603  1.0000
  C   C2921     1.0  0.70936  0.12494  0.14991  1.0000
  C   C2922     1.0  0.71363  0.13184  0.13300  1.0000
  C   C2923     1.0  0.72290  0.11720  0.12230  1.0000
  C   C2924     1.0  0.72791  0.09574  0.12841  1.0000
  H   H2328     1.0  0.71100  0.09811  0.16909  1.0000
  H   H2329     1.0  0.70221  0.13619  0.15824  1.0000
  H   H2330     1.0  0.72625  0.12248  0.10925  1.0000
  H   H2331     1.0  0.73547  0.08473  0.12009  1.0000
  C   C2925     1.0  0.81470  0.04086  0.08640  1.0000
  C   C2926     1.0  0.82325  0.02545  0.09831  1.0000
  C   C2927     1.0  0.84443  0.02404  0.10039  1.0000
  C   C2928     1.0  0.85706  0.03831  0.09087  1.0000
  C   C2929     1.0  0.84829  0.05421  0.07940  1.0000
  C   C2930     1.0  0.82728  0.05526  0.07697  1.0000
  H   H2332     1.0  0.81375  0.01419  0.10556  1.0000
  H   H2333     1.0  0.72597  0.01388  0.07392  1.0000
  H   H2334     1.0  0.85776  0.06555  0.07231  1.0000
  H   H2335     1.0  0.82077  0.06725  0.06774  1.0000
  H   H2336     1.0  0.56304  0.13307  0.06100  1.0000
  H   H2337     1.0  0.50844  0.02978  0.03183  1.0000
  H   H2338     1.0  0.91217  0.05260  0.02038  1.0000
  C   C2931     1.0  0.90306  0.27990  0.13323  1.0000
  C   C2932     1.0  0.91754  0.27233  0.12025  1.0000
  C   C2933     1.0  0.93747  0.26137  0.12310  1.0000
  C   C2934     1.0  0.94310  0.25807  0.13896  1.0000
  C   C2935     1.0  0.92870  0.26589  0.15187  1.0000
  C   C2936     1.0  0.90869  0.27661  0.14906  1.0000
  H   H2339     1.0  0.91335  0.27499  0.10796  1.0000
  H   H2340     1.0  0.94844  0.25551  0.11305  1.0000
  H   H2341     1.0  0.93297  0.26344  0.16415  1.0000
  H   H2342     1.0  0.89772  0.28251  0.15912  1.0000
  C   C2937     1.0  0.76998  0.25269  0.16151  1.0000
  C   C2938     1.0  0.76256  0.23330  0.16277  1.0000
  C   C2939     1.0  0.74189  0.23269  0.16031  1.0000
  C   C2940     1.0  0.72848  0.25150  0.15637  1.0000
  C   C2941     1.0  0.73605  0.27090  0.15471  1.0000
  C   C2942     1.0  0.75667  0.27153  0.15741  1.0000
  S   S419      1.0  0.80447  0.30273  0.18521  1.0000
  H   H2343     1.0  0.73630  0.21768  0.16156  1.0000
  H   H2344     1.0  0.72577  0.28552  0.15168  1.0000
  H   H2345     1.0  0.76225  0.28654  0.15636  1.0000
  H   H2346     1.0  0.61286  0.14913  0.02227  1.0000
  C   C2943     1.0  0.70955  0.48462  0.03014  1.0000
  C   C2944     1.0  0.71440  0.00813  0.05246  1.0000
  H   H2347     1.0  0.54555  0.08690  0.98809  1.0000
  C   C2945     1.0  0.63661  0.38714  0.00273  1.0000
  S   S420      1.0  0.61506  0.04953  0.99724  1.0000
  C   C2946     1.0  0.80883  0.41342  0.12221  1.0000
  C   C2947     1.0  0.79072  0.41593  0.13373  1.0000
  C   C2948     1.0  0.78642  0.39940  0.14637  1.0000
  C   C2949     1.0  0.80011  0.38018  0.14767  1.0000
  C   C2950     1.0  0.81820  0.37754  0.13611  1.0000
  C   C2951     1.0  0.82255  0.39415  0.12342  1.0000
  H   H2348     1.0  0.78007  0.43066  0.13300  1.0000
  H   H2349     1.0  0.77238  0.40152  0.15514  1.0000
  H   H2350     1.0  0.82885  0.36275  0.13697  1.0000
  H   H2351     1.0  0.83656  0.39203  0.11452  1.0000
  H   H2352     1.0  0.58950  0.09605  0.06972  1.0000
  H   H2353     1.0  0.60774  0.18511  0.03007  1.0000
  C   C2952     1.0  0.99350  0.44236  0.02338  1.0000
  C   C2953     1.0  0.51519  0.14628  0.04628  1.0000
  C   C2954     1.0  0.89781  0.44282  0.07760  1.0000
  C   C2955     1.0  0.57997  0.19760  0.11167  1.0000
  C   C2956     1.0  0.59991  0.18667  0.11449  1.0000
  C   C2957     1.0  0.61090  0.19270  0.12580  1.0000
  C   C2958     1.0  0.60182  0.20949  0.13457  1.0000
  C   C2959     1.0  0.58200  0.22047  0.13164  1.0000
  C   C2960     1.0  0.57118  0.21463  0.12022  1.0000
  H   H2354     1.0  0.60683  0.17343  0.10803  1.0000
  H   H2355     1.0  0.62615  0.18410  0.12800  1.0000
  H   H2356     1.0  0.57483  0.23339  0.13843  1.0000
  H   H2357     1.0  0.55576  0.22297  0.11841  1.0000
  H   H2358     1.0  0.72972  0.00689  0.04510  1.0000
  S   S421      1.0  0.99025  0.23585  0.09653  1.0000
  H   H2359     1.0  0.52744  0.32538  0.00263  1.0000
  C   C2961     1.0  0.57337  0.14394  0.05437  1.0000
  C   C2962     1.0  0.52123  0.18266  0.00045  1.0000
  C   C2963     1.0  0.55910  0.08813  0.04229  1.0000
  C   C2964     1.0  0.68390  0.06858  0.07136  1.0000
  H   H2360     1.0  0.84070  0.49732  0.01006  1.0000
  H   H2361     1.0  0.94423  0.36028  0.07395  1.0000
  C   C2965     1.0  0.83960  0.48462  0.06566  1.0000
  C   C2966     1.0  0.57254  0.41391  0.99075  1.0000
  C   C2967     1.0  0.94359  0.47030  0.09940  1.0000
  H   H2362     1.0  0.91294  0.03142  0.99803  1.0000
  H   H2363     1.0  0.57895  0.42176  0.01353  1.0000
  H   H2364     1.0  0.70311  0.48063  0.12951  1.0000
  H   H2365     1.0  0.87679  0.02666  0.00592  1.0000
  H   H2366     1.0  0.95140  0.26387  0.06147  1.0000
  C   C2968     1.0  0.52750  0.29721  0.04088  1.0000
  C   C2969     1.0  0.52198  0.32027  0.01535  1.0000
  H   H2367     1.0  0.93762  0.45681  0.10702  1.0000
  S   S422      1.0  0.98593  0.03707  0.05856  1.0000
  C   C2970     1.0  0.54583  0.07561  0.05298  1.0000
  H   H2368     1.0  0.54037  0.34303  0.05859  1.0000
  C   C2971     1.0  0.62830  0.35579  0.99440  1.0000
  H   H2369     1.0  0.52815  0.03271  0.99687  1.0000
  H   H2370     1.0  0.86371  0.41772  0.16678  1.0000
  C   C2972     1.0  0.71947  0.07666  0.06556  1.0000
  C   C2973     1.0  0.70403  0.06604  0.06235  1.0000
  H   H2371     1.0  0.73527  0.07403  0.05901  1.0000
  H   H2372     1.0  0.70785  0.05522  0.05325  1.0000
  C   C2974     1.0  0.58348  0.42314  0.00033  1.0000
  C   C2975     1.0  0.60006  0.11155  0.00069  1.0000
  C   C2976     1.0  0.96806  0.37316  0.05602  1.0000
  C   C2977     1.0  0.53427  0.30397  0.02429  1.0000
  C   C2978     1.0  0.84680  0.17153  0.12463  1.0000
  C   C2979     1.0  0.85854  0.15137  0.12425  1.0000
  C   C2980     1.0  0.88023  0.14916  0.11932  1.0000
  C   C2981     1.0  0.89015  0.16708  0.11456  1.0000
  C   C2982     1.0  0.87841  0.18738  0.11432  1.0000
  C   C2983     1.0  0.85672  0.18950  0.11986  1.0000
  P   P98       1.0  0.89145  0.21044  0.10882  1.0000
  C   C2984     1.0  0.90034  0.21411  0.12747  1.0000
  C   C2985     1.0  0.91304  0.20721  0.09235  1.0000
  C   C2986     1.0  0.91354  0.19301  0.08114  1.0000
  C   C2987     1.0  0.93059  0.19032  0.06868  1.0000
  C   C2988     1.0  0.94700  0.20209  0.06710  1.0000
  C   C2989     1.0  0.94631  0.21670  0.07787  1.0000
  C   C2990     1.0  0.92928  0.21949  0.09034  1.0000
  C   C2991     1.0  0.92093  0.20581  0.13047  1.0000
  C   C2992     1.0  0.92776  0.20857  0.14495  1.0000
  C   C2993     1.0  0.91397  0.21913  0.15671  1.0000
  C   C2994     1.0  0.89328  0.22684  0.15406  1.0000
  C   C2995     1.0  0.88640  0.22417  0.13957  1.0000
  C   C2996     1.0  0.87354  0.23272  0.10078  1.0000
  C   C2997     1.0  0.86063  0.23007  0.08955  1.0000
  C   C2998     1.0  0.84667  0.24722  0.08323  1.0000
  C   C2999     1.0  0.84570  0.26716  0.08793  1.0000
  C   C3000     1.0  0.85888  0.27000  0.09877  1.0000
  C   C3001     1.0  0.87288  0.25290  0.10506  1.0000
  H   H2373     1.0  0.83001  0.17326  0.12864  1.0000
  H   H2374     1.0  0.85088  0.13746  0.12785  1.0000
  H   H2375     1.0  0.88950  0.13358  0.11911  1.0000
  H   H2376     1.0  0.90698  0.16507  0.11095  1.0000
  H   H2377     1.0  0.84747  0.20500  0.12055  1.0000
  H   H2378     1.0  0.90099  0.18377  0.08208  1.0000
  H   H2379     1.0  0.93135  0.17872  0.06048  1.0000
  H   H2380     1.0  0.96057  0.19948  0.05780  1.0000
  H   H2381     1.0  0.95929  0.22545  0.07679  1.0000
  H   H2382     1.0  0.92900  0.23091  0.09858  1.0000
  H   H2383     1.0  0.93183  0.19733  0.12163  1.0000
  H   H2384     1.0  0.94393  0.20300  0.14689  1.0000
  C   C3002     1.0  0.59220  0.05388  0.98779  1.0000
  C   C3003     1.0  0.91379  0.04809  0.99501  1.0000
  H   H2385     1.0  0.87029  0.23025  0.13776  1.0000
  H   H2386     1.0  0.86133  0.21473  0.08573  1.0000
  H   H2387     1.0  0.83658  0.24504  0.07472  1.0000
  H   H2388     1.0  0.83479  0.28043  0.08316  1.0000
  H   H2389     1.0  0.85822  0.28546  0.10243  1.0000
  H   H2390     1.0  0.88306  0.25553  0.11330  1.0000
  C   C3004     1.0  0.97423  0.04661  0.01609  1.0000
  H   H2391     1.0  0.50263  0.30101  0.06114  1.0000
  C   C3005     1.0  0.67705  0.00766  0.05513  1.0000
  H   H2392     1.0  0.57815  0.02313  0.02589  1.0000
  H   H2393     1.0  0.59236  0.26611  0.04377  1.0000
  H   H2394     1.0  0.82394  0.01830  0.05465  1.0000
  H   H2395     1.0  0.54894  0.29652  0.01823  1.0000
  H   H2396     1.0  0.95692  0.38390  0.04913  1.0000
  C   C3006     1.0  0.86517  0.07095  0.03711  1.0000
  Fe  Fe216     1.0  0.50374  0.21755  0.06720  1.0000
  C   C3007     1.0  0.61989  0.49225  0.05666  1.0000
  H   H2397     1.0  0.52749  0.13515  0.05154  1.0000
  C   C3008     1.0  0.99422  0.44620  0.05176  1.0000
  C   C3009     1.0  0.55415  0.36034  0.01166  1.0000
  H   H2398     1.0  0.57636  0.30035  0.03073  1.0000
  H   H2399     1.0  0.79763  0.01489  0.16030  1.0000
  H   H2400     1.0  0.68425  0.48209  0.06951  1.0000
  C   C3010     1.0  0.82980  0.00248  0.06002  1.0000
  C   C3011     1.0  0.57590  0.06981  0.99237  1.0000
  H   H2401     1.0  0.84331  0.09560  0.02589  1.0000
  Fe  Fe217     1.0  0.63700  0.01876  0.99540  1.0000
  H   H2402     1.0  0.54691  0.04546  0.01551  1.0000
  H   H2403     1.0  0.64206  0.15829  0.06703  1.0000
  C   C3012     1.0  0.65528  0.10114  0.14131  1.0000
  H   H2404     1.0  0.71506  0.42715  0.16810  1.0000
  Fe  Fe218     1.0  0.50260  0.36375  0.98674  1.0000
  Fe  Fe219     1.0  0.75071  0.48880  0.09264  1.0000
  H   H2405     1.0  0.59360  0.37139  0.02717  1.0000
  H   H2406     1.0  0.63764  0.31467  0.00842  1.0000
  H   H2407     1.0  0.64884  0.11430  0.14808  1.0000
  C   C3013     1.0  0.84139  0.46399  0.06213  1.0000
  C   C3014     1.0  0.84369  0.43497  0.14938  1.0000
  H   H2408     1.0  0.63157  0.34424  0.98590  1.0000
  C   C3015     1.0  0.59833  0.17352  0.03696  1.0000
  C   C3016     1.0  0.93538  0.43408  0.07880  1.0000
  C   C3017     1.0  0.91390  0.08185  0.00406  1.0000
  C   C3018     1.0  0.97784  0.29292  0.07921  1.0000
  C   C3019     1.0  0.63485  0.14556  0.07471  1.0000
  H   H2409     1.0  0.57512  0.33003  0.04425  1.0000
  C   C3020     1.0  0.96095  0.35993  0.07017  1.0000
  C   C3021     1.0  0.54436  0.34810  0.04554  1.0000
  C   C3022     1.0  0.96443  0.07209  0.11594  1.0000
  H   H2410     1.0  0.58052  0.19494  0.05327  1.0000
  C   C3023     1.0  0.59322  0.29643  0.02881  1.0000
  H   H2411     1.0  0.91060  0.49764  0.00328  1.0000
  H   H2412     1.0  0.99521  0.38256  0.03966  1.0000
  H   H2413     1.0  0.67251  0.05945  0.06916  1.0000
  H   H2414     1.0  0.67428  0.08495  0.15979  1.0000
  H   H2415     1.0  0.55413  0.13363  0.02148  1.0000
  C   C3024     1.0  0.57740  0.09033  0.06493  1.0000
  P   P99       1.0  0.59375  0.33586  0.00907  1.0000
  H   H2416     1.0  0.69132  0.10301  0.09612  1.0000
  C   C3025     1.0  0.87507  0.01033  0.00589  1.0000
  C   C3026     1.0  0.80697  0.44363  0.16026  1.0000
  C   C3027     1.0  0.58293  0.17912  0.04994  1.0000
  P   P100      1.0  0.65349  0.08479  0.09590  1.0000
  C   C3028     1.0  0.57043  0.16437  0.05861  1.0000
  H   H2417     1.0  0.61097  0.05020  0.06740  1.0000
  C   C3029     1.0  0.69257  0.01392  0.07836  1.0000
  C   C3030     1.0  0.52821  0.20172  0.00084  1.0000
  C   C3031     1.0  0.81093  0.43328  0.17591  1.0000
  C   C3032     1.0  0.64968  0.10097  0.12579  1.0000
  H   H2418     1.0  0.51432  0.36744  0.04313  1.0000
  H   H2419     1.0  0.62994  0.07870  0.07061  1.0000
  C   C3033     1.0  0.63924  0.06387  0.09408  1.0000
  H   H2420     1.0  0.88274  0.23536  0.16307  1.0000
  C   C3034     1.0  0.54835  0.07036  0.06960  1.0000
  C   C3035     1.0  0.89570  0.42144  0.08182  1.0000
  H   H2421     1.0  0.55834  0.16886  0.06858  1.0000
  C   C3036     1.0  0.57475  0.09591  0.04826  1.0000
  H   H2422     1.0  0.97939  0.09610  0.09975  1.0000
  H   H2423     1.0  0.95112  0.01568  0.99095  1.0000
  C   C3037     1.0  0.61807  0.09753  0.03528  1.0000
  C   C3038     1.0  0.63422  0.10583  0.04015  1.0000
  C   C3039     1.0  0.65423  0.09383  0.04035  1.0000
  C   C3040     1.0  0.65814  0.07345  0.03589  1.0000
  C   C3041     1.0  0.64203  0.06499  0.03132  1.0000
  C   C3042     1.0  0.62206  0.07692  0.03110  1.0000
  C   C3043     1.0  0.96311  0.48585  0.07428  1.0000
  H   H2424     1.0  0.55679  0.09182  0.02948  1.0000
  H   H2425     1.0  0.66672  0.10027  0.04403  1.0000
  H   H2426     1.0  0.67362  0.06411  0.03597  1.0000
  H   H2427     1.0  0.64506  0.04924  0.02773  1.0000
  H   H2428     1.0  0.60979  0.07017  0.02738  1.0000
  H   H2429     1.0  0.61555  0.10316  0.00235  1.0000
  C   C3044     1.0  0.53790  0.29686  0.09403  1.0000
  C   C3045     1.0  0.53046  0.29135  0.11068  1.0000
  C   C3046     1.0  0.54465  0.28381  0.12195  1.0000
  C   C3047     1.0  0.56628  0.28180  0.11662  1.0000
  C   C3048     1.0  0.57388  0.28757  0.09996  1.0000
  C   C3049     1.0  0.55949  0.29489  0.08867  1.0000
  P   P101      1.0  0.60171  0.28281  0.09269  1.0000
  C   C3050     1.0  0.60788  0.25713  0.08570  1.0000
  C   C3051     1.0  0.60915  0.30301  0.07605  1.0000
  C   C3052     1.0  0.59776  0.32358  0.07493  1.0000
  C   C3053     1.0  0.60470  0.33961  0.06290  1.0000
  C   C3054     1.0  0.62322  0.33533  0.05211  1.0000
  C   C3055     1.0  0.63477  0.31502  0.05331  1.0000
  C   C3056     1.0  0.62774  0.29888  0.06517  1.0000
  C   C3057     1.0  0.59254  0.24862  0.07990  1.0000
  C   C3058     1.0  0.59698  0.22832  0.07537  1.0000
  C   C3059     1.0  0.61671  0.21627  0.07661  1.0000
  C   C3060     1.0  0.63220  0.22471  0.08206  1.0000
  C   C3061     1.0  0.62790  0.24512  0.08645  1.0000
  C   C3062     1.0  0.61674  0.28344  0.10905  1.0000
  C   C3063     1.0  0.62074  0.26542  0.12067  1.0000
  C   C3064     1.0  0.63358  0.26540  0.13258  1.0000
  C   C3065     1.0  0.64233  0.28339  0.13318  1.0000
  C   C3066     1.0  0.63799  0.30160  0.12197  1.0000
  C   C3067     1.0  0.62522  0.30168  0.10997  1.0000
  H   H2430     1.0  0.52699  0.30172  0.08511  1.0000
  H   H2431     1.0  0.50286  0.16660  0.98858  1.0000
  H   H2432     1.0  0.53888  0.27889  0.13476  1.0000
  H   H2433     1.0  0.57693  0.27525  0.12548  1.0000
  H   H2434     1.0  0.56491  0.29825  0.07560  1.0000
  H   H2435     1.0  0.58379  0.32739  0.08355  1.0000
  H   H2436     1.0  0.59583  0.35543  0.06205  1.0000
  H   H2437     1.0  0.62880  0.34779  0.04295  1.0000
  H   H2438     1.0  0.64925  0.31178  0.04507  1.0000
  H   H2439     1.0  0.63705  0.28332  0.06604  1.0000
  H   H2440     1.0  0.57694  0.25729  0.07916  1.0000
  H   H2441     1.0  0.58476  0.22164  0.07154  1.0000
  H   H2442     1.0  0.61975  0.20021  0.07378  1.0000
  H   H2443     1.0  0.64737  0.21520  0.08337  1.0000
  H   H2444     1.0  0.64004  0.25123  0.09086  1.0000
  H   H2445     1.0  0.61417  0.25122  0.12044  1.0000
  H   H2446     1.0  0.63691  0.25134  0.14135  1.0000
  H   H2447     1.0  0.65250  0.28310  0.14234  1.0000
  H   H2448     1.0  0.64470  0.31558  0.12252  1.0000
  H   H2449     1.0  0.62223  0.31593  0.10139  1.0000
  C   C3068     1.0  0.78302  0.04746  0.15940  1.0000
  C   C3069     1.0  0.79829  0.03098  0.15433  1.0000
  C   C3070     1.0  0.81360  0.03508  0.14085  1.0000
  C   C3071     1.0  0.81393  0.05569  0.13268  1.0000
  C   C3072     1.0  0.79931  0.07253  0.13828  1.0000
  C   C3073     1.0  0.78348  0.06816  0.15142  1.0000
  P   P102      1.0  0.80085  0.09935  0.12840  1.0000
  C   C3074     1.0  0.79036  0.11773  0.14303  1.0000
  C   C3075     1.0  0.82822  0.10115  0.12089  1.0000
  C   C3076     1.0  0.84374  0.09132  0.13071  1.0000
  C   C3077     1.0  0.86502  0.09114  0.12454  1.0000
  C   C3078     1.0  0.87097  0.10094  0.10860  1.0000
  C   C3079     1.0  0.85566  0.11107  0.09885  1.0000
  C   C3080     1.0  0.83436  0.11113  0.10492  1.0000
  C   C3081     1.0  0.80367  0.12671  0.15067  1.0000
  C   C3082     1.0  0.79524  0.14166  0.16133  1.0000
  C   C3083     1.0  0.77350  0.14771  0.16448  1.0000
  C   C3084     1.0  0.76017  0.13876  0.15701  1.0000
  C   C3085     1.0  0.76854  0.12380  0.14639  1.0000
  C   C3086     1.0  0.78580  0.10589  0.11141  1.0000
  C   C3087     1.0  0.77853  0.12718  0.10592  1.0000
  C   C3088     1.0  0.76743  0.13253  0.09246  1.0000
  C   C3089     1.0  0.76366  0.11669  0.08427  1.0000
  C   C3090     1.0  0.77076  0.09547  0.08968  1.0000
  C   C3091     1.0  0.78184  0.09003  0.10319  1.0000
  H   H2450     1.0  0.72765  0.46175  0.16546  1.0000
  H   H2451     1.0  0.99583  0.34770  0.10857  1.0000
  H   H2452     1.0  0.82493  0.02219  0.13647  1.0000
  H   H2453     1.0  0.82564  0.05839  0.12199  1.0000
  H   H2454     1.0  0.77125  0.08055  0.15540  1.0000
  H   H2455     1.0  0.83940  0.08327  0.14298  1.0000
  H   H2456     1.0  0.87696  0.08303  0.13195  1.0000
  H   H2457     1.0  0.88749  0.10057  0.10376  1.0000
  H   H2458     1.0  0.86038  0.11852  0.08645  1.0000
  H   H2459     1.0  0.82286  0.11856  0.09695  1.0000
  H   H2460     1.0  0.82051  0.12241  0.14832  1.0000
  H   H2461     1.0  0.80557  0.14876  0.16698  1.0000
  C   C3092     1.0  0.52217  0.21957  0.98976  1.0000
  H   H2462     1.0  0.74331  0.14363  0.15921  1.0000
  H   H2463     1.0  0.75795  0.11719  0.14060  1.0000
  H   H2464     1.0  0.78141  0.13972  0.11204  1.0000
  H   H2465     1.0  0.76154  0.14896  0.08850  1.0000
  H   H2466     1.0  0.75511  0.12084  0.07380  1.0000
  H   H2467     1.0  0.76768  0.08317  0.08342  1.0000
  H   H2468     1.0  0.78730  0.07349  0.10710  1.0000
  C   C3093     1.0  0.66354  0.41070  0.09291  1.0000
  C   C3094     1.0  0.67136  0.40051  0.07909  1.0000
  C   C3095     1.0  0.69267  0.39234  0.07618  1.0000
  C   C3096     1.0  0.70621  0.39445  0.08702  1.0000
  C   C3097     1.0  0.69852  0.40487  0.10084  1.0000
  C   C3098     1.0  0.67703  0.41286  0.10378  1.0000
  P   P103      1.0  0.71645  0.40817  0.11430  1.0000
  C   C3099     1.0  0.72339  0.38401  0.12783  1.0000
  C   C3100     1.0  0.73961  0.41583  0.10108  1.0000
  C   C3101     1.0  0.75981  0.40548  0.10368  1.0000
  C   C3102     1.0  0.77743  0.41112  0.09297  1.0000
  C   C3103     1.0  0.77516  0.42734  0.07980  1.0000
  C   C3104     1.0  0.75515  0.43753  0.07700  1.0000
  C   C3105     1.0  0.73743  0.43164  0.08746  1.0000
  C   C3106     1.0  0.73430  0.38451  0.14096  1.0000
  C   C3107     1.0  0.74084  0.36581  0.15101  1.0000
  C   C3108     1.0  0.73636  0.34651  0.14817  1.0000
  C   C3109     1.0  0.72519  0.34591  0.13531  1.0000
  C   C3110     1.0  0.71873  0.36458  0.12515  1.0000
  C   C3111     1.0  0.70432  0.42842  0.12697  1.0000
  C   C3112     1.0  0.69040  0.42330  0.14131  1.0000
  C   C3113     1.0  0.68089  0.43883  0.15120  1.0000
  C   C3114     1.0  0.68554  0.45947  0.14703  1.0000
  C   C3115     1.0  0.69929  0.46469  0.13276  1.0000
  C   C3116     1.0  0.70837  0.44932  0.12265  1.0000
  H   H2469     1.0  0.64703  0.41714  0.09510  1.0000
  H   H2470     1.0  0.66094  0.39909  0.07057  1.0000
  H   H2471     1.0  0.69878  0.38457  0.06540  1.0000
  H   H2472     1.0  0.72274  0.38821  0.08451  1.0000
  H   H2473     1.0  0.67066  0.42107  0.11425  1.0000
  H   H2474     1.0  0.76224  0.39305  0.11387  1.0000
  H   H2475     1.0  0.79296  0.40315  0.09508  1.0000
  H   H2476     1.0  0.78894  0.43212  0.07189  1.0000
  H   H2477     1.0  0.75333  0.45017  0.06683  1.0000
  H   H2478     1.0  0.72204  0.43973  0.08504  1.0000
  H   H2479     1.0  0.73841  0.39927  0.14306  1.0000
  H   H2480     1.0  0.94876  0.08042  0.11468  1.0000
  C   C3117     1.0  0.54088  0.02206  0.00193  1.0000
  H   H2481     1.0  0.91952  0.22180  0.16768  1.0000
  H   H2482     1.0  0.71039  0.36368  0.11513  1.0000
  H   H2483     1.0  0.68684  0.40731  0.14481  1.0000
  H   H2484     1.0  0.67016  0.43480  0.16224  1.0000
  C   C3118     1.0  0.98606  0.43068  0.10210  1.0000
  H   H2485     1.0  0.57699  0.07835  0.00224  1.0000
  H   H2486     1.0  0.71860  0.45392  0.11155  1.0000
  C   C3119     1.0  0.92445  0.37048  0.12081  1.0000
  C   C3120     1.0  0.90970  0.35825  0.12992  1.0000
  C   C3121     1.0  0.91223  0.33662  0.12897  1.0000
  C   C3122     1.0  0.92921  0.32728  0.11866  1.0000
  C   C3123     1.0  0.94337  0.33966  0.10875  1.0000
  C   C3124     1.0  0.94140  0.36115  0.11044  1.0000
  P   P104      1.0  0.96599  0.32739  0.09625  1.0000
  C   C3125     1.0  0.63667  0.28458  0.02345  1.0000
  C   C3126     1.0  0.96082  0.30637  0.08643  1.0000
  C   C3127     1.0  0.58902  0.13805  0.04147  1.0000
  C   C3128     1.0  0.94034  0.30461  0.08426  1.0000
  H   H2487     1.0  0.88412  0.45457  0.07566  1.0000
  C   C3129     1.0  0.97535  0.34592  0.07910  1.0000
  C   C3130     1.0  0.69324  0.48302  0.04327  1.0000
  C   C3131     1.0  0.72907  0.42811  0.17308  1.0000
  H   H2488     1.0  0.82253  0.07060  0.01864  1.0000
  S   S423      1.0  0.99704  0.17986  0.08004  1.0000
  C   C3132     1.0  0.77718  0.47768  0.99066  1.0000
  H   H2489     1.0  0.92291  0.38710  0.12200  1.0000
  H   H2490     1.0  0.89656  0.36537  0.13801  1.0000
  H   H2491     1.0  0.90117  0.32695  0.13640  1.0000
  H   H2492     1.0  0.93142  0.31037  0.11860  1.0000
  H   H2493     1.0  0.95322  0.37052  0.10404  1.0000
  H   H2494     1.0  0.92110  0.28758  0.07408  1.0000
  H   H2495     1.0  0.92695  0.31523  0.08915  1.0000
  Fe  Fe220     1.0  0.76199  0.49555  0.12566  1.0000
  C   C3133     1.0  0.84789  0.42507  0.16498  1.0000
  H   H2496     1.0  0.53808  0.20270  0.00989  1.0000
  C   C3134     1.0  0.56872  0.34593  0.02014  1.0000
  H   H2497     1.0  0.58205  0.30039  0.99644  1.0000
  C   C3135     1.0  0.71666  0.48644  0.06255  1.0000
  C   C3136     1.0  0.61626  0.11307  0.09508  1.0000
  H   H2498     1.0  0.66347  0.00572  0.04995  1.0000
  H   H2499     1.0  0.54447  0.14042  0.99347  1.0000
  H   H2500     1.0  0.63144  0.12137  0.04395  1.0000
  H   H2501     1.0  0.52801  0.23414  0.99006  1.0000
  C   C3137     1.0  0.96717  0.05249  0.12586  1.0000
  C   C3138     1.0  0.82330  0.44443  0.14709  1.0000
  C   C3139     1.0  0.62723  0.03006  0.10442  1.0000
  C   C3140     1.0  0.50466  0.14028  0.03476  1.0000
  C   C3141     1.0  0.97443  0.27780  0.07013  1.0000
  C   C3142     1.0  0.67899  0.08210  0.08348  1.0000
  C   C3143     1.0  0.63817  0.04611  0.10622  1.0000
  C   C3144     1.0  0.97205  0.44108  0.02699  1.0000
  C   C3145     1.0  0.94088  0.49650  0.03305  1.0000
  H   H2502     1.0  0.58759  0.13553  0.09577  1.0000
  H   H2503     1.0  0.85613  0.43520  0.13901  1.0000
  C   C3146     1.0  0.97289  0.44408  0.05566  1.0000
  C   C3147     1.0  0.96171  0.44197  0.04308  1.0000
  H   H2504     1.0  0.51374  0.29215  0.11480  1.0000
  C   C3148     1.0  0.84210  0.04277  0.02871  1.0000
  C   C3149     1.0  0.95399  0.27573  0.06840  1.0000
  H   H2505     1.0  0.55769  0.36550  0.99859  1.0000
  C   C3150     1.0  0.99289  0.01083  0.06771  1.0000
  H   H2506     1.0  0.67792  0.48102  0.04099  1.0000
  C   C3151     1.0  0.64706  0.12602  0.07894  1.0000
  H   H2507     1.0  0.61618  0.39902  0.02328  1.0000
  C   C3152     1.0  0.83163  0.42437  0.17824  1.0000
  C   C3153     1.0  0.98742  0.04196  0.12764  1.0000
  C   C3154     1.0  0.85232  0.45868  0.04707  1.0000
  H   H2508     1.0  0.75963  0.46409  0.17657  1.0000
  H   H2509     1.0  0.94519  0.44060  0.04565  1.0000
  H   H2510     1.0  0.96626  0.17022  0.10901  1.0000
  C   C3155     1.0  0.58549  0.11770  0.01414  1.0000
  C   C3156     1.0  0.56423  0.07761  0.07556  1.0000
  H   H2511     1.0  0.62652  0.47591  0.05564  1.0000
  C   C3157     1.0  0.50988  0.16669  0.05092  1.0000
  H   H2512     1.0  0.99383  0.29432  0.08038  1.0000
  H   H2513     1.0  0.64603  0.04432  0.11694  1.0000
  H   H2514     1.0  0.97268  0.48465  0.06245  1.0000
  C   C3158     1.0  0.91261  0.99997  0.03553  1.0000
  C   C3159     1.0  0.61346  0.14891  0.08080  1.0000
  C   C3160     1.0  0.93316  0.41262  0.08278  1.0000
  C   C3161     1.0  0.60414  0.13265  0.09088  1.0000
  C   C3162     1.0  0.97876  0.42452  0.08886  1.0000
  C   C3163     1.0  0.93695  0.28910  0.07549  1.0000
  H   H2515     1.0  0.91169  0.38975  0.08748  1.0000
  C   C3164     1.0  0.62406  0.27084  0.03353  1.0000
  P   P105      1.0  0.96072  0.44269  0.07687  1.0000
  C   C3165     1.0  0.72944  0.48706  0.03330  1.0000
  C   C3166     1.0  0.71469  0.09013  0.07762  1.0000
  C   C3167     1.0  0.60127  0.15311  0.03265  1.0000
  C   C3168     1.0  0.56561  0.12865  0.01132  1.0000
  H   H2516     1.0  0.98669  0.15108  0.06114  1.0000
  C   C3169     1.0  0.56925  0.01695  0.01834  1.0000
  H   H2517     1.0  0.74185  0.33198  0.15578  1.0000
  C   C3170     1.0  0.63786  0.10967  0.08927  1.0000
  H   H2518     1.0  0.60891  0.10077  0.10325  1.0000
  C   C3171     1.0  0.69456  0.09287  0.08654  1.0000
  H   H2519     1.0  0.74209  0.48839  0.02319  1.0000
  H   H2520     1.0  0.77283  0.21864  0.16567  1.0000
  H   H2521     1.0  0.66366  0.12395  0.07437  1.0000
  P   P106      1.0  0.59201  0.11235  0.03487  1.0000
  C   C3172     1.0  0.62918  0.06526  0.08016  1.0000
  H   H2522     1.0  0.94661  0.40076  0.08472  1.0000
  H   H2523     1.0  0.96581  0.05053  0.02784  1.0000
  H   H2524     1.0  0.63892  0.11420  0.12084  1.0000
  H   H2525     1.0  0.77039  0.04406  0.16916  1.0000
  H   H2526     1.0  0.72673  0.09794  0.08047  1.0000
  H   H2527     1.0  0.76695  0.15947  0.17257  1.0000
  H   H2528     1.0  0.72188  0.33087  0.13307  1.0000
  C   C3173     1.0  0.61834  0.04916  0.07834  1.0000
  S   S424      1.0  0.79670  0.49105  0.11713  1.0000
  H   H2529     1.0  0.92970  0.49168  0.11693  1.0000
  C   C3174     1.0  0.98476  0.31767  0.11037  1.0000
  C   C3175     1.0  0.65855  0.08429  0.11672  1.0000
  H   H2530     1.0  0.69929  0.28694  0.18062  1.0000
  C   C3176     1.0  0.61730  0.03158  0.09051  1.0000
  C   C3177     1.0  0.87098  0.04915  0.04120  1.0000
  H   H2531     1.0  0.96355  0.43901  0.01736  1.0000
  H   H2532     1.0  0.83447  0.45213  0.07117  1.0000
  C   C3178     1.0  0.98187  0.08092  0.10744  1.0000
  C   C3179     1.0  0.49821  0.99983  0.03188  1.0000
  H   H2533     1.0  0.85111  0.01171  0.10930  1.0000
  C   C3180     1.0  0.67312  0.06792  0.12342  1.0000
  H   H2534     1.0  0.68076  0.05529  0.11643  1.0000
  C   C3181     1.0  0.56008  0.13262  0.99544  1.0000
  S   S425      1.0  0.51202  0.11503  0.02852  1.0000
  C   C3182     1.0  0.84773  0.07868  0.02899  1.0000
  C   C3183     1.0  0.55167  0.02952  0.01247  1.0000
  H   H2535     1.0  0.91884  0.46578  0.07268  1.0000
  C   C3184     1.0  0.66961  0.08464  0.14792  1.0000
  H   H2536     1.0  0.98323  0.40043  0.07298  1.0000
  H   H2537     1.0  0.83322  0.03203  0.02513  1.0000
  C   C3185     1.0  0.74020  0.40988  0.18086  1.0000
  H   H2538     1.0  0.91186  0.00187  0.02247  1.0000
  H   H2539     1.0  0.87003  0.46966  0.02402  1.0000
  H   H2540     1.0  0.87429  0.08186  0.04020  1.0000
  S   S426      1.0  0.65953  0.21530  0.17470  1.0000
  H   H2541     1.0  0.56619  0.07356  0.08844  1.0000
  C   C3186     1.0  0.91329  0.06010  0.00773  1.0000
  H   H2542     1.0  0.63105  0.25555  0.03922  1.0000
  C   C3187     1.0  0.67843  0.06800  0.13901  1.0000
  C   C3188     1.0  0.50798  0.30627  0.04836  1.0000
  C   C3189     1.0  0.91756  0.44912  0.07601  1.0000
  H   H2543     1.0  0.83693  0.49067  0.13497  1.0000
  H   H2544     1.0  0.60910  0.01898  0.08903  1.0000
  H   H2545     1.0  0.67858  0.47143  0.15485  1.0000
  C   C3190     1.0  0.52971  0.36190  0.03688  1.0000
  C   C3191     1.0  0.78430  0.48100  0.00489  1.0000
  C   C3192     1.0  0.91338  0.40634  0.08430  1.0000
  C   C3193     1.0  0.99009  0.02916  0.01554  1.0000
  C   C3194     1.0  0.60697  0.37093  0.01757  1.0000
  H   H2546     1.0  0.77383  0.46211  0.98987  1.0000
  C   C3195     1.0  0.61982  0.38660  0.01550  1.0000
  H   H2547     1.0  0.95704  0.49234  0.03529  1.0000
  S   S427      1.0  0.71999  0.01154  0.13642  1.0000
  H   H2548     1.0  0.95359  0.04552  0.13216  1.0000
  C   C3196     1.0  0.96915  0.05900  0.00148  1.0000
  H   H2549     1.0  0.86996  0.47842  0.14705  1.0000
  C   C3197     1.0  0.50285  0.32995  0.02294  1.0000
  S   S428      1.0  0.72010  0.48756  0.08310  1.0000
  C   C3198     1.0  0.86344  0.49506  0.14573  1.0000
  C   C3199     1.0  0.91544  0.09135  0.98754  1.0000
  H   H2550     1.0  0.65961  0.01344  0.07877  1.0000
  Fe  Fe221     1.0  0.67523  0.18170  0.17962  1.0000
  C   C3200     1.0  0.99690  0.34488  0.07339  1.0000
  H   H2551     1.0  0.88033  0.41661  0.08320  1.0000
  C   C3201     1.0  0.98959  0.37234  0.05061  1.0000
  H   H2552     1.0  0.97594  0.28621  0.11625  1.0000
  C   C3202     1.0  0.56394  0.34044  0.03727  1.0000
  C   C3203     1.0  0.60233  0.27678  0.03617  1.0000
  C   C3204     1.0  0.85960  0.03487  0.03693  1.0000
  H   H2553     1.0  0.74826  0.49028  0.05167  1.0000
  C   C3205     1.0  0.89420  0.00163  0.04697  1.0000
  H   H2554     1.0  0.82003  0.45197  0.13497  1.0000
  C   C3206     1.0  0.83610  0.06460  0.02489  1.0000
  S   S429      1.0  0.68967  0.01872  0.09893  1.0000
  C   C3207     1.0  0.98757  0.40489  0.08376  1.0000
  H   H2555     1.0  0.83136  0.48872  0.07740  1.0000
  H   H2556     1.0  0.65352  0.27986  0.02122  1.0000
  C   C3208     1.0  0.61110  0.35538  0.00703  1.0000
  H   H2557     1.0  0.98776  0.26763  0.06452  1.0000
  H   H2558     1.0  0.52330  0.37884  0.01329  1.0000
  H   H2559     1.0  0.79134  0.45097  0.15803  1.0000
  H   H2560     1.0  0.62686  0.01622  0.11370  1.0000
  H   H2561     1.0  0.53331  0.07035  0.04833  1.0000
  C   C3209     1.0  0.73615  0.44756  0.17161  1.0000
  S   S430      1.0  0.78461  0.48366  0.08120  1.0000
  S   S431      1.0  0.67196  0.01693  0.98794  1.0000
  H   H2562     1.0  0.88436  0.04357  0.04767  1.0000
  C   C3210     1.0  0.69685  0.48375  0.05940  1.0000
  C   C3211     1.0  0.62757  0.30439  0.01623  1.0000
  C   C3212     1.0  0.58957  0.33215  0.98881  1.0000
  H   H2563     1.0  0.98078  0.44620  0.10574  1.0000
  C   C3213     1.0  0.97898  0.00041  0.07960  1.0000
  H   H2564     1.0  0.55965  0.40563  0.99657  1.0000
  C   C3214     1.0  0.93542  0.49424  0.01791  1.0000
  C   C3215     1.0  0.58379  0.31311  0.98635  1.0000
  Fe  Fe222     1.0  0.99234  0.23061  0.12361  1.0000
  H   H2565     1.0  0.99383  0.01946  0.02692  1.0000
  H   H2566     1.0  0.88187  0.00200  0.07282  1.0000
  C   C3216     1.0  0.93913  0.48992  0.10510  1.0000
  H   H2567     1.0  0.99629  0.08094  0.04685  1.0000
  C   C3217     1.0  0.71231  0.01208  0.06880  1.0000
  C   C3218     1.0  0.67491  0.01197  0.07143  1.0000
  C   C3219     1.0  0.64092  0.37169  0.99223  1.0000
  H   H2568     1.0  0.81756  0.19778  0.18472  1.0000
  S   S432      1.0  0.50366  0.20540  0.09415  1.0000
  H   H2569     1.0  0.58966  0.48892  0.05107  1.0000
  C   C3220     1.0  0.54724  0.00162  0.99753  1.0000
  C   C3221     1.0  0.75439  0.44881  0.17791  1.0000
  H   H2570     1.0  0.98951  0.02683  0.13541  1.0000
  H   H2571     1.0  0.64584  0.39998  0.00070  1.0000
  C   C3222     1.0  0.50837  0.18135  0.98888  1.0000
  S   S433      1.0  0.63961  0.99981  0.02026  1.0000
  H   H2572     1.0  0.94743  0.48848  0.00836  1.0000
  C   C3223     1.0  0.59909  0.49956  0.05415  1.0000
  C   C3224     1.0  0.91451  0.49968  0.01502  1.0000
  C   C3225     1.0  0.89582  0.99989  0.06380  1.0000
  C   C3226     1.0  0.76594  0.43050  0.18549  1.0000
  C   C3227     1.0  0.99659  0.03708  0.98568  1.0000
  C   C3228     1.0  0.97999  0.05405  0.98630  1.0000
  C   C3229     1.0  0.69663  0.03723  0.27908  1.0000
  H   H2573     1.0  0.74945  0.48506  0.22752  1.0000
  Fe  Fe223     1.0  0.80818  0.30427  0.33986  1.0000
  S   S434      1.0  0.82306  0.27074  0.34692  1.0000
  S   S435      1.0  0.79563  0.32303  0.36092  1.0000
  Fe  Fe224     1.0  0.81554  0.30052  0.30335  1.0000
  S   S436      1.0  0.83100  0.26686  0.30763  1.0000
  S   S437      1.0  0.80750  0.31767  0.27855  1.0000
  Fe  Fe225     1.0  0.80493  0.26282  0.32860  1.0000
  S   S438      1.0  0.79026  0.23273  0.33381  1.0000
  Fe  Fe226     1.0  0.84794  0.27760  0.32559  1.0000
  S   S439      1.0  0.88251  0.26396  0.32577  1.0000
  S   S440      1.0  0.78809  0.29585  0.32320  1.0000
  S   S441      1.0  0.83438  0.31195  0.31967  1.0000
  S   S442      1.0  0.85270  0.28537  0.21151  1.0000
  H   H2574     1.0  0.89696  0.29968  0.36986  1.0000
  H   H2575     1.0  0.74947  0.33233  0.26886  1.0000
  S   S443      1.0  0.77490  0.46046  0.36664  1.0000
  Fe  Fe227     1.0  0.75081  0.44121  0.36318  1.0000
  S   S444      1.0  0.75650  0.41884  0.34425  1.0000
  S   S445      1.0  0.72568  0.46917  0.35910  1.0000
  C   C3230     1.0  0.80632  0.25264  0.20776  1.0000
  C   C3231     1.0  0.80381  0.19248  0.19241  1.0000
  S   S446      1.0  0.67751  0.16102  0.20415  1.0000
  C   C3232     1.0  0.56972  0.31953  0.34905  1.0000
  S   S447      1.0  0.67277  0.04349  0.35539  1.0000
  Fe  Fe228     1.0  0.68538  0.20389  0.31630  1.0000
  S   S448      1.0  0.69492  0.18380  0.29595  1.0000
  S   S449      1.0  0.69882  0.23359  0.31701  1.0000
  Fe  Fe229     1.0  0.64711  0.18216  0.33073  1.0000
  S   S450      1.0  0.65344  0.16024  0.31150  1.0000
  S   S451      1.0  0.62011  0.18016  0.35159  1.0000
  Fe  Fe230     1.0  0.68709  0.15674  0.31564  1.0000
  S   S452      1.0  0.70904  0.12541  0.31636  1.0000
  Fe  Fe231     1.0  0.66070  0.18881  0.29349  1.0000
  S   S453      1.0  0.64724  0.20164  0.26987  1.0000
  S   S454      1.0  0.68042  0.17658  0.33628  1.0000
  S   S455      1.0  0.65156  0.21089  0.31243  1.0000
  H   H2576     1.0  0.78476  0.10169  0.37510  1.0000
  H   H2577     1.0  0.75999  0.30037  0.37312  1.0000
  C   C3233     1.0  0.50716  0.19405  0.29959  1.0000
  Fe  Fe232     1.0  0.69363  0.01212  0.36104  1.0000
  S   S456      1.0  0.53302  0.24063  0.34723  1.0000
  H   H2578     1.0  0.69122  0.03255  0.30568  1.0000
  C   C3234     1.0  0.59636  0.19784  0.35067  1.0000
  C   C3235     1.0  0.57884  0.19398  0.36236  1.0000
  C   C3236     1.0  0.55947  0.20731  0.36167  1.0000
  C   C3237     1.0  0.55744  0.22449  0.34916  1.0000
  C   C3238     1.0  0.57502  0.22855  0.33760  1.0000
  C   C3239     1.0  0.59447  0.21539  0.33843  1.0000
  C   C3240     1.0  0.73119  0.47787  0.28076  1.0000
  C   C3241     1.0  0.51430  0.18817  0.33795  1.0000
  H   H2579     1.0  0.57360  0.24192  0.32796  1.0000
  H   H2580     1.0  0.60792  0.21876  0.32953  1.0000
  C   C3242     1.0  0.68384  0.06617  0.34547  1.0000
  C   C3243     1.0  0.70393  0.06455  0.33632  1.0000
  C   C3244     1.0  0.71158  0.08283  0.32756  1.0000
  C   C3245     1.0  0.69939  0.10288  0.32812  1.0000
  C   C3246     1.0  0.67962  0.10457  0.33770  1.0000
  C   C3247     1.0  0.67180  0.08627  0.34617  1.0000
  H   H2581     1.0  0.71334  0.04917  0.33563  1.0000
  H   H2582     1.0  0.72685  0.08138  0.32014  1.0000
  H   H2583     1.0  0.67014  0.11995  0.33831  1.0000
  H   H2584     1.0  0.65628  0.08769  0.35325  1.0000
  C   C3248     1.0  0.67011  0.17299  0.22218  1.0000
  C   C3249     1.0  0.67719  0.16266  0.23690  1.0000
  C   C3250     1.0  0.67074  0.17153  0.25162  1.0000
  C   C3251     1.0  0.65676  0.19048  0.25167  1.0000
  C   C3252     1.0  0.64987  0.20086  0.23692  1.0000
  C   C3253     1.0  0.65670  0.19226  0.22218  1.0000
  H   H2585     1.0  0.68758  0.14774  0.23689  1.0000
  H   H2586     1.0  0.67621  0.16359  0.26296  1.0000
  H   H2587     1.0  0.63916  0.21560  0.23690  1.0000
  H   H2588     1.0  0.65114  0.20028  0.21091  1.0000
  H   H2589     1.0  0.73737  0.33316  0.37980  1.0000
  H   H2590     1.0  0.60454  0.19330  0.31020  1.0000
  Fe  Fe233     1.0  0.74876  0.48799  0.36458  1.0000
  H   H2591     1.0  0.77638  0.49118  0.29862  1.0000
  H   H2592     1.0  0.78162  0.01253  0.32767  1.0000
  C   C3254     1.0  0.73513  0.28299  0.21442  1.0000
  P   P107      1.0  0.60763  0.13811  0.27516  1.0000
  C   C3255     1.0  0.82177  0.43994  0.33007  1.0000
  H   H2593     1.0  0.62039  0.17239  0.28786  1.0000
  H   H2594     1.0  0.72060  0.29410  0.33821  1.0000
  H   H2595     1.0  0.76682  0.35296  0.21731  1.0000
  C   C3256     1.0  0.76448  0.23313  0.32979  1.0000
  C   C3257     1.0  0.75142  0.25218  0.32590  1.0000
  C   C3258     1.0  0.73113  0.25202  0.32239  1.0000
  C   C3259     1.0  0.72381  0.23284  0.32263  1.0000
  C   C3260     1.0  0.73676  0.21373  0.32668  1.0000
  C   C3261     1.0  0.75701  0.21391  0.33033  1.0000
  H   H2596     1.0  0.75706  0.26702  0.32534  1.0000
  H   H2597     1.0  0.72120  0.26681  0.31914  1.0000
  H   H2598     1.0  0.73119  0.19889  0.32692  1.0000
  H   H2599     1.0  0.76699  0.19914  0.33347  1.0000
  C   C3262     1.0  0.81978  0.30759  0.26024  1.0000
  C   C3263     1.0  0.81112  0.31503  0.24562  1.0000
  C   C3264     1.0  0.82086  0.30820  0.23062  1.0000
  C   C3265     1.0  0.83960  0.29400  0.23012  1.0000
  C   C3266     1.0  0.84818  0.28633  0.24477  1.0000
  C   C3267     1.0  0.83824  0.29296  0.25983  1.0000
  H   H2600     1.0  0.79691  0.32625  0.24590  1.0000
  H   H2601     1.0  0.81402  0.31405  0.21945  1.0000
  H   H2602     1.0  0.86273  0.27542  0.24440  1.0000
  H   H2603     1.0  0.84516  0.28723  0.27099  1.0000
  C   C3268     1.0  0.78360  0.34926  0.35641  1.0000
  C   C3269     1.0  0.77872  0.35735  0.34063  1.0000
  C   C3270     1.0  0.77003  0.37867  0.33715  1.0000
  C   C3271     1.0  0.76643  0.39202  0.34935  1.0000
  C   C3272     1.0  0.77122  0.38391  0.36515  1.0000
  C   C3273     1.0  0.77964  0.36248  0.36871  1.0000
  H   H2604     1.0  0.78173  0.34718  0.33113  1.0000
  H   H2605     1.0  0.76627  0.38488  0.32492  1.0000
  H   H2606     1.0  0.76849  0.39414  0.37459  1.0000
  C   C3274     1.0  0.83875  0.30753  0.37930  1.0000
  H   H2607     1.0  0.69001  0.05385  0.27807  1.0000
  C   C3275     1.0  0.92336  0.27670  0.36226  1.0000
  C   C3276     1.0  0.90293  0.28788  0.36176  1.0000
  C   C3277     1.0  0.89012  0.28381  0.35089  1.0000
  C   C3278     1.0  0.89769  0.26870  0.34027  1.0000
  C   C3279     1.0  0.91804  0.25740  0.34085  1.0000
  C   C3280     1.0  0.93077  0.26125  0.35188  1.0000
  C   C3281     1.0  0.73028  0.01418  0.23052  1.0000
  H   H2608     1.0  0.87448  0.29244  0.35055  1.0000
  H   H2609     1.0  0.92402  0.24565  0.33270  1.0000
  H   H2610     1.0  0.94646  0.25256  0.35211  1.0000
  C   C3282     1.0  0.86665  0.38108  0.33289  1.0000
  C   C3283     1.0  0.55255  0.31215  0.34507  1.0000
  H   H2611     1.0  0.83000  0.47396  0.22592  1.0000
  C   C3284     1.0  0.74793  0.13168  0.34396  1.0000
  H   H2612     1.0  0.53621  0.17710  0.35536  1.0000
  C   C3285     1.0  0.70581  0.00386  0.29600  1.0000
  H   H2613     1.0  0.72085  0.25302  0.18936  1.0000
  C   C3286     1.0  0.72403  0.30266  0.34736  1.0000
  C   C3287     1.0  0.61608  0.25431  0.36897  1.0000
  C   C3288     1.0  0.80485  0.38969  0.20287  1.0000
  C   C3289     1.0  0.75862  0.41101  0.18698  1.0000
  C   C3290     1.0  0.71364  0.41268  0.32861  1.0000
  C   C3291     1.0  0.75740  0.34525  0.24343  1.0000
  H   H2614     1.0  0.70428  0.03753  0.25300  1.0000
  C   C3292     1.0  0.80909  0.48021  0.24803  1.0000
  C   C3293     1.0  0.60537  0.16945  0.29479  1.0000
  C   C3294     1.0  0.81200  0.45539  0.30328  1.0000
  C   C3295     1.0  0.65141  0.12649  0.26890  1.0000
  C   C3296     1.0  0.51170  0.17252  0.29770  1.0000
  H   H2615     1.0  0.52569  0.19583  0.32902  1.0000
  C   C3297     1.0  0.78524  0.26169  0.21091  1.0000
  C   C3298     1.0  0.59515  0.15381  0.29116  1.0000
  H   H2616     1.0  0.62230  0.38421  0.37255  1.0000
  C   C3299     1.0  0.69820  0.39920  0.35599  1.0000
  C   C3300     1.0  0.56693  0.16195  0.31328  1.0000
  C   C3301     1.0  0.84761  0.37706  0.31120  1.0000
  C   C3302     1.0  0.52003  0.20816  0.29009  1.0000
  C   C3303     1.0  0.71344  0.00632  0.26612  1.0000
  H   H2617     1.0  0.57129  0.13831  0.25880  1.0000
  C   C3304     1.0  0.60277  0.17607  0.25330  1.0000
  H   H2618     1.0  0.78434  0.14747  0.21005  1.0000
  C   C3305     1.0  0.77691  0.26730  0.22656  1.0000
  C   C3306     1.0  0.52829  0.16536  0.28602  1.0000
  H   H2619     1.0  0.72909  0.37828  0.37761  1.0000
  C   C3307     1.0  0.72239  0.30219  0.20978  1.0000
  C   C3308     1.0  0.76974  0.04526  0.33003  1.0000
  C   C3309     1.0  0.71488  0.37488  0.33683  1.0000
  H   H2620     1.0  0.65068  0.20843  0.37318  1.0000
  C   C3310     1.0  0.62308  0.26170  0.35246  1.0000
  Fe  Fe234     1.0  0.50657  0.23842  0.36854  1.0000
  C   C3311     1.0  0.74153  0.29500  0.35545  1.0000
  C   C3312     1.0  0.79855  0.47140  0.26289  1.0000
  C   C3313     1.0  0.75948  0.32121  0.22355  1.0000
  H   H2621     1.0  0.54979  0.11091  0.25776  1.0000
  H   H2622     1.0  0.60973  0.09301  0.28982  1.0000
  H   H2623     1.0  0.62152  0.11800  0.30640  1.0000
  H   H2624     1.0  0.75437  0.09293  0.22467  1.0000
  C   C3314     1.0  0.73316  0.32472  0.37091  1.0000
  C   C3315     1.0  0.77694  0.02427  0.33601  1.0000
  C   C3316     1.0  0.57716  0.17766  0.31668  1.0000
  H   H2625     1.0  0.53162  0.14876  0.28454  1.0000
  H   H2626     1.0  0.75943  0.36046  0.24625  1.0000
  C   C3317     1.0  0.79648  0.40940  0.20811  1.0000
  C   C3318     1.0  0.56281  0.10714  0.26484  1.0000
  H   H2627     1.0  0.75558  0.45143  0.21577  1.0000
  H   H2628     1.0  0.76828  0.48871  0.32898  1.0000
  H   H2629     1.0  0.65608  0.10192  0.31417  1.0000
  H   H2630     1.0  0.68805  0.10245  0.29356  1.0000
  C   C3319     1.0  0.74581  0.11088  0.35090  1.0000
  C   C3320     1.0  0.60938  0.15409  0.25509  1.0000
  H   H2631     1.0  0.61180  0.18725  0.21147  1.0000
  P   P108      1.0  0.69826  0.35629  0.36809  1.0000
  C   C3321     1.0  0.76363  0.05436  0.35787  1.0000
  H   H2632     1.0  0.68507  0.11819  0.26450  1.0000
  C   C3322     1.0  0.86424  0.38420  0.31621  1.0000
  C   C3323     1.0  0.73402  0.26516  0.20725  1.0000
  C   C3324     1.0  0.81002  0.37196  0.21436  1.0000
  C   C3325     1.0  0.59638  0.18137  0.30744  1.0000
  H   H2633     1.0  0.62167  0.12730  0.24198  1.0000
  H   H2634     1.0  0.55802  0.07473  0.27272  1.0000
  C   C3326     1.0  0.70962  0.30369  0.19753  1.0000
  H   H2635     1.0  0.78690  0.42587  0.22949  1.0000
  H   H2636     1.0  0.87539  0.39197  0.30715  1.0000
  H   H2637     1.0  0.76395  0.00983  0.23051  1.0000
  H   H2638     1.0  0.84608  0.37900  0.29825  1.0000
  H   H2639     1.0  0.81107  0.36002  0.24004  1.0000
  H   H2640     1.0  0.65062  0.13355  0.25628  1.0000
  C   C3327     1.0  0.84430  0.39082  0.37353  1.0000
  C   C3328     1.0  0.72932  0.14683  0.20309  1.0000
  C   C3329     1.0  0.89669  0.34653  0.35722  1.0000
  C   C3330     1.0  0.71959  0.39200  0.32497  1.0000
  H   H2641     1.0  0.85512  0.32437  0.35809  1.0000
  H   H2642     1.0  0.81295  0.24891  0.19557  1.0000
  H   H2643     1.0  0.81486  0.46720  0.18947  1.0000
  C   C3331     1.0  0.62775  0.35033  0.37345  1.0000
  H   H2644     1.0  0.65961  0.38754  0.36901  1.0000
  H   H2645     1.0  0.69770  0.02214  0.22658  1.0000
  C   C3332     1.0  0.61653  0.14422  0.24092  1.0000
  H   H2646     1.0  0.78884  0.48189  0.27093  1.0000
  C   C3333     1.0  0.71363  0.02516  0.22226  1.0000
  C   C3334     1.0  0.71750  0.03967  0.20809  1.0000
  C   C3335     1.0  0.73797  0.04342  0.20207  1.0000
  C   C3336     1.0  0.75461  0.03278  0.21032  1.0000
  C   C3337     1.0  0.77860  0.49473  0.21530  1.0000
  C   C3338     1.0  0.54840  0.29179  0.35165  1.0000
  H   H2647     1.0  0.74294  0.24999  0.21111  1.0000
  C   C3339     1.0  0.57834  0.28626  0.36659  1.0000
  H   H2648     1.0  0.75169  0.28057  0.35259  1.0000
  C   C3340     1.0  0.57506  0.12262  0.26544  1.0000
  S   S457      1.0  0.72873  0.00766  0.35651  1.0000
  C   C3341     1.0  0.80684  0.37372  0.23116  1.0000
  C   C3342     1.0  0.77456  0.10970  0.36627  1.0000
  C   C3343     1.0  0.64314  0.22346  0.36752  1.0000
  H   H2649     1.0  0.80728  0.49730  0.24478  1.0000
  H   H2650     1.0  0.72842  0.38922  0.31313  1.0000
  C   C3344     1.0  0.54081  0.17957  0.27645  1.0000
  H   H2651     1.0  0.58022  0.18051  0.37192  1.0000
  H   H2652     1.0  0.77596  0.26500  0.20088  1.0000
  H   H2653     1.0  0.54240  0.32223  0.33697  1.0000
  C   C3345     1.0  0.76321  0.06028  0.34087  1.0000
  C   C3346     1.0  0.85258  0.37049  0.34462  1.0000
  H   H2654     1.0  0.70469  0.04771  0.20151  1.0000
  H   H2655     1.0  0.82979  0.46964  0.31697  1.0000
  H   H2656     1.0  0.72312  0.48620  0.27065  1.0000
  H   H2657     1.0  0.67543  0.31954  0.37243  1.0000
  C   C3347     1.0  0.65480  0.10871  0.30152  1.0000
  C   C3348     1.0  0.57592  0.14996  0.30062  1.0000
  C   C3349     1.0  0.77754  0.01826  0.35287  1.0000
  C   C3350     1.0  0.70472  0.02784  0.26486  1.0000
  C   C3351     1.0  0.78683  0.20736  0.19748  1.0000
  H   H2658     1.0  0.58802  0.06602  0.28872  1.0000
  C   C3352     1.0  0.73630  0.26395  0.24772  1.0000
  C   C3353     1.0  0.79832  0.39316  0.23649  1.0000
  C   C3354     1.0  0.79000  0.26397  0.23881  1.0000
  C   C3355     1.0  0.81104  0.25506  0.23557  1.0000
  H   H2659     1.0  0.79572  0.39438  0.24954  1.0000
  C   C3356     1.0  0.76155  0.34104  0.22714  1.0000
  C   C3357     1.0  0.74256  0.24192  0.25039  1.0000
  C   C3358     1.0  0.73063  0.22915  0.26220  1.0000
  C   C3359     1.0  0.71254  0.23829  0.27151  1.0000
  C   C3360     1.0  0.70615  0.26013  0.26885  1.0000
  C   C3361     1.0  0.71777  0.27290  0.25681  1.0000
  H   H2660     1.0  0.78409  0.26899  0.25068  1.0000
  H   H2661     1.0  0.82124  0.25332  0.24489  1.0000
  H   H2662     1.0  0.89120  0.34306  0.34649  1.0000
  H   H2663     1.0  0.75641  0.23453  0.24319  1.0000
  H   H2664     1.0  0.73538  0.21218  0.26426  1.0000
  H   H2665     1.0  0.70339  0.22850  0.28083  1.0000
  H   H2666     1.0  0.69202  0.26705  0.27609  1.0000
  H   H2667     1.0  0.71215  0.28970  0.25450  1.0000
  C   C3362     1.0  0.74740  0.10801  0.21863  1.0000
  C   C3363     1.0  0.58437  0.08185  0.28224  1.0000
  C   C3364     1.0  0.64007  0.25009  0.34363  1.0000
  H   H2668     1.0  0.54605  0.20404  0.37065  1.0000
  H   H2669     1.0  0.92722  0.32827  0.35162  1.0000
  C   C3365     1.0  0.72702  0.07362  0.37878  1.0000
  C   C3366     1.0  0.92421  0.34085  0.37442  1.0000
  C   C3367     1.0  0.75278  0.30558  0.23619  1.0000
  C   C3368     1.0  0.73624  0.10859  0.20555  1.0000
  Fe  Fe235     1.0  0.96813  0.26107  0.38335  1.0000
  C   C3369     1.0  0.61072  0.17797  0.22360  1.0000
  C   C3370     1.0  0.60333  0.18789  0.23760  1.0000
  C   C3371     1.0  0.71103  0.32133  0.35107  1.0000
  C   C3372     1.0  0.70911  0.28594  0.19014  1.0000
  H   H2670     1.0  0.50244  0.16128  0.30535  1.0000
  C   C3373     1.0  0.70403  0.37832  0.35246  1.0000
  C   C3374     1.0  0.85673  0.40599  0.37477  1.0000
  C   C3375     1.0  0.83309  0.36723  0.32290  1.0000
  P   P109      1.0  0.78992  0.43223  0.19307  1.0000
  C   C3376     1.0  0.82211  0.45617  0.31673  1.0000
  C   C3377     1.0  0.70295  0.41626  0.34413  1.0000
  C   C3378     1.0  0.79325  0.41097  0.22504  1.0000
  H   H2671     1.0  0.87360  0.40311  0.37137  1.0000
  C   C3379     1.0  0.58269  0.30658  0.35966  1.0000
  C   C3380     1.0  0.72721  0.12800  0.19781  1.0000
  H   H2672     1.0  0.74571  0.29743  0.26265  1.0000
  H   H2673     1.0  0.81198  0.46843  0.29333  1.0000
  C   C3381     1.0  0.61745  0.15617  0.22527  1.0000
  C   C3382     1.0  0.52032  0.17767  0.35291  1.0000
  H   H2674     1.0  0.73733  0.14024  0.33552  1.0000
  C   C3383     1.0  0.67110  0.11776  0.27353  1.0000
  H   H2675     1.0  0.69766  0.32719  0.34455  1.0000
  P   P110      1.0  0.75024  0.28009  0.23118  1.0000
  H   H2676     1.0  0.82426  0.35623  0.34844  1.0000
  H   H2677     1.0  0.82916  0.44075  0.34066  1.0000
  H   H2678     1.0  0.72013  0.35905  0.33381  1.0000
  H   H2679     1.0  0.59734  0.18428  0.26388  1.0000
  H   H2680     1.0  0.59868  0.20489  0.23630  1.0000
  H   H2681     1.0  0.83576  0.24333  0.21734  1.0000
  H   H2682     1.0  0.55217  0.15892  0.32062  1.0000
  H   H2683     1.0  0.51749  0.22471  0.29168  1.0000
  C   C3384     1.0  0.77065  0.03314  0.36378  1.0000
  H   H2684     1.0  0.71794  0.42590  0.31965  1.0000
  H   H2685     1.0  0.53515  0.28595  0.34857  1.0000
  H   H2686     1.0  0.72873  0.19495  0.19293  1.0000
  C   C3385     1.0  0.59214  0.11780  0.27442  1.0000
  H   H2687     1.0  0.69034  0.40238  0.36802  1.0000
  C   C3386     1.0  0.79696  0.48963  0.20456  1.0000
  C   C3387     1.0  0.59670  0.09727  0.28283  1.0000
  C   C3388     1.0  0.56746  0.08676  0.27324  1.0000
  H   H2688     1.0  0.76894  0.04984  0.31699  1.0000
  H   H2689     1.0  0.73442  0.09405  0.20146  1.0000
  C   C3389     1.0  0.76325  0.14157  0.34820  1.0000
  H   H2690     1.0  0.76321  0.31802  0.21090  1.0000
  C   C3390     1.0  0.63518  0.11776  0.29701  1.0000
  H   H2691     1.0  0.70819  0.49149  0.29938  1.0000
  C   C3391     1.0  0.63326  0.12655  0.28062  1.0000
  H   H2692     1.0  0.81244  0.38442  0.37558  1.0000
  C   C3392     1.0  0.81307  0.41468  0.38262  1.0000
  H   H2693     1.0  0.69888  0.43226  0.34714  1.0000
  H   H2694     1.0  0.61551  0.27637  0.34634  1.0000
  C   C3393     1.0  0.78582  0.45658  0.20193  1.0000
  H   H2695     1.0  0.54673  0.21185  0.27139  1.0000
  H   H2696     1.0  0.63794  0.31682  0.37469  1.0000
  C   C3394     1.0  0.66419  0.33390  0.37168  1.0000
  C   C3395     1.0  0.82180  0.46708  0.23742  1.0000
  C   C3396     1.0  0.75905  0.09969  0.36218  1.0000
  C   C3397     1.0  0.63403  0.37018  0.37181  1.0000
  C   C3398     1.0  0.81130  0.42293  0.32997  1.0000
  C   C3399     1.0  0.80113  0.42216  0.31658  1.0000
  C   C3400     1.0  0.80153  0.43826  0.30303  1.0000
  H   H2697     1.0  0.66324  0.22208  0.34430  1.0000
  P   P111      1.0  0.78649  0.43830  0.28655  1.0000
  C   C3401     1.0  0.78271  0.41158  0.28538  1.0000
  C   C3402     1.0  0.76126  0.45453  0.29064  1.0000
  C   C3403     1.0  0.75252  0.45741  0.30685  1.0000
  C   C3404     1.0  0.73334  0.47052  0.30997  1.0000
  C   C3405     1.0  0.72126  0.26672  0.19508  1.0000
  C   C3406     1.0  0.71859  0.05465  0.38167  1.0000
  C   C3407     1.0  0.75027  0.46460  0.27761  1.0000
  C   C3408     1.0  0.76305  0.40721  0.28327  1.0000
  C   C3409     1.0  0.76024  0.38645  0.28261  1.0000
  C   C3410     1.0  0.77696  0.36992  0.28413  1.0000
  C   C3411     1.0  0.79657  0.37412  0.28617  1.0000
  C   C3412     1.0  0.79945  0.39486  0.28677  1.0000
  C   C3413     1.0  0.80049  0.44935  0.26729  1.0000
  H   H2698     1.0  0.83375  0.43493  0.23342  1.0000
  C   C3414     1.0  0.56124  0.27886  0.36234  1.0000
  C   C3415     1.0  0.74953  0.30961  0.25259  1.0000
  C   C3416     1.0  0.82389  0.44511  0.24166  1.0000
  C   C3417     1.0  0.81336  0.43625  0.25656  1.0000
  C   C3418     1.0  0.76736  0.46186  0.21272  1.0000
  C   C3419     1.0  0.76383  0.48083  0.21941  1.0000
  H   H2699     1.0  0.81037  0.41065  0.34051  1.0000
  H   H2700     1.0  0.79234  0.40934  0.31716  1.0000
  C   C3420     1.0  0.75170  0.32943  0.25616  1.0000
  H   H2701     1.0  0.76073  0.45010  0.31710  1.0000
  C   C3421     1.0  0.50573  0.16842  0.36490  1.0000
  C   C3422     1.0  0.72276  0.48088  0.29693  1.0000
  S   S458      1.0  0.93950  0.28337  0.37527  1.0000
  H   H2702     1.0  0.83526  0.41676  0.19024  1.0000
  H   H2703     1.0  0.74980  0.41972  0.28230  1.0000
  H   H2704     1.0  0.74501  0.38313  0.28113  1.0000
  H   H2705     1.0  0.77477  0.35377  0.28383  1.0000
  H   H2706     1.0  0.80947  0.36118  0.28738  1.0000
  H   H2707     1.0  0.81468  0.39791  0.28842  1.0000
  C   C3423     1.0  0.84666  0.32535  0.37035  1.0000
  C   C3424     1.0  0.77664  0.13055  0.35927  1.0000
  C   C3425     1.0  0.83554  0.36399  0.33956  1.0000
  C   C3426     1.0  0.80066  0.47060  0.19794  1.0000
  H   H2708     1.0  0.81542  0.41926  0.25960  1.0000
  H   H2709     1.0  0.82006  0.36180  0.31911  1.0000
  H   H2710     1.0  0.57038  0.18679  0.32662  1.0000
  H   H2711     1.0  0.72196  0.31594  0.21571  1.0000
  H   H2712     1.0  0.56791  0.13765  0.29841  1.0000
  H   H2713     1.0  0.74088  0.05434  0.19085  1.0000
  C   C3427     1.0  0.65536  0.37199  0.36982  1.0000
  H   H2714     1.0  0.64549  0.25575  0.33089  1.0000
  C   C3428     1.0  0.70281  0.21785  0.20072  1.0000
  C   C3429     1.0  0.69069  0.22688  0.21399  1.0000
  C   C3430     1.0  0.69449  0.21885  0.23004  1.0000
  C   C3431     1.0  0.71003  0.20145  0.23288  1.0000
  C   C3432     1.0  0.72232  0.19219  0.21960  1.0000
  C   C3433     1.0  0.71888  0.20096  0.20346  1.0000
  P   P112      1.0  0.74375  0.17080  0.22301  1.0000
  C   C3434     1.0  0.76756  0.17919  0.21150  1.0000
  C   C3435     1.0  0.74595  0.16543  0.24475  1.0000
  C   C3436     1.0  0.76177  0.17246  0.25110  1.0000
  C   C3437     1.0  0.76294  0.16842  0.26804  1.0000
  C   C3438     1.0  0.74827  0.15747  0.27871  1.0000
  C   C3439     1.0  0.73249  0.15048  0.27246  1.0000
  C   C3440     1.0  0.73127  0.15449  0.25557  1.0000
  C   C3441     1.0  0.78485  0.16424  0.20666  1.0000
  H   H2715     1.0  0.85692  0.43685  0.38137  1.0000
  C   C3442     1.0  0.99262  0.23381  0.30763  1.0000
  H   H2716     1.0  0.72700  0.47308  0.32249  1.0000
  C   C3443     1.0  0.76887  0.20082  0.20709  1.0000
  C   C3444     1.0  0.74029  0.14649  0.21633  1.0000
  C   C3445     1.0  0.88322  0.35825  0.36860  1.0000
  H   H2717     1.0  0.69996  0.31853  0.19387  1.0000
  P   P113      1.0  0.85596  0.36623  0.36607  1.0000
  C   C3446     1.0  0.74613  0.30609  0.36714  1.0000
  C   C3447     1.0  0.74946  0.12685  0.22399  1.0000
  H   H2718     1.0  0.81620  0.15934  0.19339  1.0000
  H   H2719     1.0  0.67817  0.23992  0.21183  1.0000
  H   H2720     1.0  0.68482  0.22562  0.24038  1.0000
  H   H2721     1.0  0.71214  0.19534  0.24549  1.0000
  H   H2722     1.0  0.50648  0.48995  0.37982  1.0000
  H   H2723     1.0  0.77312  0.18111  0.24307  1.0000
  H   H2724     1.0  0.77514  0.17381  0.27295  1.0000
  H   H2725     1.0  0.74895  0.15445  0.29186  1.0000
  H   H2726     1.0  0.72101  0.14216  0.28079  1.0000
  H   H2727     1.0  0.71871  0.14929  0.25097  1.0000
  C   C3448     1.0  0.84355  0.34429  0.37714  1.0000
  H   H2728     1.0  0.62375  0.14863  0.21440  1.0000
  C   C3449     1.0  0.67279  0.10889  0.28984  1.0000
  H   H2729     1.0  0.78742  0.22406  0.19374  1.0000
  H   H2730     1.0  0.75595  0.21273  0.21079  1.0000
  H   H2731     1.0  0.78838  0.13832  0.36272  1.0000
  C   C3450     1.0  0.81921  0.24943  0.22004  1.0000
  H   H2732     1.0  0.76447  0.15788  0.34309  1.0000
  H   H2733     1.0  0.81771  0.25591  0.27822  1.0000
  H   H2734     1.0  0.75828  0.12603  0.23409  1.0000
  C   C3451     1.0  0.85314  0.19185  0.23523  1.0000
  C   C3452     1.0  0.83627  0.19319  0.22654  1.0000
  C   C3453     1.0  0.81580  0.19928  0.23400  1.0000
  C   C3454     1.0  0.81218  0.20438  0.25003  1.0000
  C   C3455     1.0  0.82909  0.20356  0.25871  1.0000
  C   C3456     1.0  0.84958  0.19677  0.25132  1.0000
  P   P114      1.0  0.82443  0.20927  0.27967  1.0000
  C   C3457     1.0  0.82011  0.18534  0.29351  1.0000
  C   C3458     1.0  0.84655  0.21969  0.28417  1.0000
  C   C3459     1.0  0.85290  0.21479  0.29989  1.0000
  C   C3460     1.0  0.86958  0.22347  0.30340  1.0000
  C   C3461     1.0  0.88001  0.23712  0.29131  1.0000
  C   C3462     1.0  0.87385  0.24208  0.27565  1.0000
  C   C3463     1.0  0.85716  0.23348  0.27208  1.0000
  C   C3464     1.0  0.81030  0.18666  0.30970  1.0000
  C   C3465     1.0  0.80685  0.16837  0.32060  1.0000
  C   C3466     1.0  0.81290  0.14853  0.31534  1.0000
  C   C3467     1.0  0.82263  0.14702  0.29919  1.0000
  C   C3468     1.0  0.82633  0.16534  0.28830  1.0000
  C   C3469     1.0  0.80116  0.22880  0.28223  1.0000
  C   C3470     1.0  0.78121  0.22243  0.28565  1.0000
  C   C3471     1.0  0.76316  0.23740  0.28761  1.0000
  C   C3472     1.0  0.76481  0.25880  0.28641  1.0000
  C   C3473     1.0  0.78456  0.26527  0.28323  1.0000
  C   C3474     1.0  0.80266  0.25040  0.28089  1.0000
  H   H2735     1.0  0.86904  0.18708  0.22947  1.0000
  H   H2736     1.0  0.83908  0.18961  0.21400  1.0000
  H   H2737     1.0  0.80276  0.20051  0.22724  1.0000
  H   H2738     1.0  0.79623  0.20929  0.25546  1.0000
  H   H2739     1.0  0.86283  0.19535  0.25796  1.0000
  H   H2740     1.0  0.84476  0.20479  0.30966  1.0000
  H   H2741     1.0  0.87398  0.22028  0.31570  1.0000
  H   H2742     1.0  0.89251  0.24429  0.29427  1.0000
  H   H2743     1.0  0.88174  0.25300  0.26641  1.0000
  H   H2744     1.0  0.85230  0.23797  0.25999  1.0000
  H   H2745     1.0  0.80553  0.20191  0.31395  1.0000
  H   H2746     1.0  0.79967  0.16971  0.33318  1.0000
  H   H2747     1.0  0.81019  0.13435  0.32381  1.0000
  H   H2748     1.0  0.82749  0.13161  0.29516  1.0000
  H   H2749     1.0  0.83410  0.16378  0.27593  1.0000
  H   H2750     1.0  0.77955  0.20588  0.28708  1.0000
  H   H2751     1.0  0.74786  0.23235  0.29074  1.0000
  H   H2752     1.0  0.75079  0.27024  0.28851  1.0000
  H   H2753     1.0  0.78588  0.28182  0.28263  1.0000
  C   C3475     1.0  0.65010  0.23103  0.35117  1.0000
  H   H2754     1.0  0.73340  0.10375  0.34778  1.0000
  C   C3476     1.0  0.71528  0.33233  0.36310  1.0000
  H   H2755     1.0  0.59593  0.31256  0.36257  1.0000
  C   C3477     1.0  0.53676  0.20090  0.27857  1.0000
  H   H2756     1.0  0.57282  0.33539  0.34408  1.0000
  C   C3478     1.0  0.64285  0.33221  0.37327  1.0000
  H   H2757     1.0  0.75663  0.46259  0.26499  1.0000
  H   H2758     1.0  0.55385  0.17405  0.26755  1.0000
  C   C3479     1.0  0.69726  0.02526  0.29464  1.0000
  P   P115      1.0  0.75482  0.07343  0.37218  1.0000
  H   H2759     1.0  0.77052  0.03552  0.20552  1.0000
  C   C3480     1.0  0.91714  0.33803  0.36009  1.0000
  H   H2760     1.0  0.55766  0.26315  0.36728  1.0000
  C   C3481     1.0  0.67071  0.35388  0.36955  1.0000
  H   H2761     1.0  0.87961  0.38666  0.33661  1.0000
  H   H2762     1.0  0.81658  0.35683  0.21021  1.0000
  H   H2763     1.0  0.75762  0.07632  0.33591  1.0000
  H   H2764     1.0  0.76720  0.39654  0.19252  1.0000
  H   H2765     1.0  0.69987  0.22412  0.18825  1.0000
  C   C3482     1.0  0.89036  0.36084  0.38309  1.0000
  H   H2766     1.0  0.97585  0.23869  0.31062  1.0000
  C   C3483     1.0  0.62635  0.23514  0.37645  1.0000
  C   C3484     1.0  0.80294  0.17090  0.19719  1.0000
  H   H2767     1.0  0.61116  0.34903  0.37521  1.0000
  H   H2768     1.0  0.72191  0.16146  0.19693  1.0000
  H   H2769     1.0  0.78349  0.35621  0.38091  1.0000
  H   H2770     1.0  0.93980  0.33344  0.37680  1.0000
  H   H2771     1.0  0.51024  0.16088  0.37671  1.0000
  C   C3485     1.0  0.82555  0.42945  0.38432  1.0000
  H   H2772     1.0  0.53996  0.31978  0.38119  1.0000
  C   C3486     1.0  0.84736  0.42518  0.38027  1.0000
  C   C3487     1.0  0.82237  0.39555  0.37707  1.0000
  H   H2773     1.0  0.84082  0.29310  0.37380  1.0000
  H   H2774     1.0  0.72856  0.03971  0.38013  1.0000
  Fe  Fe236     1.0  0.83876  0.29532  0.18766  1.0000
  H   H2775     1.0  0.79936  0.05941  0.37463  1.0000
  H   H2776     1.0  0.77043  0.02789  0.37688  1.0000
  H   H2777     1.0  0.62959  0.01734  0.37598  1.0000
  H   H2778     1.0  0.71815  0.12854  0.18787  1.0000
  H   H2779     1.0  0.99316  0.24455  0.28167  1.0000
  H   H2780     1.0  0.58575  0.22666  0.38036  1.0000
  C   C3488     1.0  0.75081  0.01820  0.22450  1.0000
  P   P116      1.0  0.59465  0.26963  0.38067  1.0000
  H   H2781     1.0  0.80732  0.38797  0.18988  1.0000
  C   C3489     1.0  0.71371  0.09254  0.38178  1.0000
  H   H2782     1.0  0.99702  0.22171  0.33281  1.0000
  H   H2783     1.0  0.71985  0.10730  0.38038  1.0000
  H   H2784     1.0  0.49846  0.23038  0.33604  1.0000
  H   H2785     1.0  0.78263  0.00189  0.35758  1.0000
  H   H2786     1.0  0.81855  0.04477  0.39828  1.0000
  S   S459      1.0  0.55066  0.34935  0.39914  1.0000
  C   C3490     1.0  0.53960  0.48285  0.43819  1.0000
  S   S460      1.0  0.97513  0.08296  0.53544  1.0000
  C   C3491     1.0  0.51557  0.21836  0.57839  1.0000
  S   S461      1.0  0.95999  0.11246  0.50234  1.0000
  C   C3492     1.0  0.52496  0.23331  0.56680  1.0000
  Fe  Fe237     1.0  0.97396  0.11702  0.52438  1.0000
  S   S462      1.0  0.96041  0.14502  0.53799  1.0000
  Fe  Fe238     1.0  0.96429  0.07772  0.51232  1.0000
  S   S463      1.0  0.94318  0.05236  0.51608  1.0000
  H   H2787     1.0  0.67467  0.49733  0.49714  1.0000
  S   S464      1.0  0.97176  0.26152  0.40973  1.0000
  H   H2788     1.0  0.79143  0.47919  0.48932  1.0000
  H   H2789     1.0  0.98217  0.49239  0.54913  1.0000
  C   C3493     1.0  0.79632  0.44696  0.48485  1.0000
  C   C3494     1.0  0.92116  0.28664  0.47088  1.0000
  S   S465      1.0  0.84183  0.47435  0.48638  1.0000
  H   H2790     1.0  0.77822  0.05876  0.58085  1.0000
  H   H2791     1.0  0.79771  0.41580  0.47850  1.0000
  Fe  Fe239     1.0  0.87724  0.46651  0.48315  1.0000
  S   S466      1.0  0.89475  0.43318  0.48265  1.0000
  H   H2792     1.0  0.50269  0.12111  0.47353  1.0000
  H   H2793     1.0  0.63102  0.36179  0.43976  1.0000
  S   S467      1.0  0.58687  0.37751  0.57410  1.0000
  H   H2794     1.0  0.97992  0.36431  0.43855  1.0000
  Fe  Fe240     1.0  0.55436  0.43140  0.56052  1.0000
  S   S468      1.0  0.58891  0.42386  0.55208  1.0000
  H   H2795     1.0  0.91926  0.29186  0.48284  1.0000
  Fe  Fe241     1.0  0.58132  0.39268  0.54852  1.0000
  S   S469      1.0  0.59695  0.37917  0.52525  1.0000
  C   C3495     1.0  0.56434  0.21957  0.40224  1.0000
  H   H2796     1.0  0.76371  0.42435  0.46745  1.0000
  S   S470      1.0  0.54642  0.40093  0.55541  1.0000
  H   H2797     1.0  0.75324  0.00380  0.43425  1.0000
  C   C3496     1.0  0.95671  0.24346  0.56389  1.0000
  H   H2798     1.0  0.51339  0.16562  0.56960  1.0000
  S   S471      1.0  0.78007  0.44419  0.41503  1.0000
  Fe  Fe242     1.0  0.55024  0.42445  0.40660  1.0000
  S   S472      1.0  0.53182  0.40125  0.42319  1.0000
  C   C3497     1.0  0.82484  0.32716  0.40209  1.0000
  Fe  Fe243     1.0  0.59255  0.39887  0.41404  1.0000
  S   S473      1.0  0.57729  0.37370  0.43148  1.0000
  S   S474      1.0  0.62804  0.39340  0.40827  1.0000
  Fe  Fe244     1.0  0.55571  0.37582  0.41246  1.0000
  Fe  Fe245     1.0  0.71607  0.46328  0.38639  1.0000
  Fe  Fe246     1.0  0.55493  0.40131  0.44061  1.0000
  S   S475      1.0  0.54275  0.40846  0.46649  1.0000
  S   S476      1.0  0.57181  0.42624  0.42455  1.0000
  C   C3498     1.0  0.95039  0.47366  0.54156  1.0000
  S   S477      1.0  0.82905  0.02202  0.46477  1.0000
  H   H2799     1.0  0.97185  0.31221  0.44868  1.0000
  H   H2800     1.0  0.85013  0.12240  0.54030  1.0000
  C   C3499     1.0  0.64884  0.46804  0.56010  1.0000
  Fe  Fe247     1.0  0.86245  0.01641  0.47014  1.0000
  S   S478      1.0  0.88126  0.04359  0.46678  1.0000
  C   C3500     1.0  0.97467  0.44065  0.54251  1.0000
  C   C3501     1.0  0.92470  0.27319  0.44010  1.0000
  S   S479      1.0  0.99138  0.33427  0.46730  1.0000
  H   H2801     1.0  0.96353  0.41387  0.55819  1.0000
  H   H2802     1.0  0.93006  0.47459  0.51252  1.0000
  C   C3502     1.0  0.76583  0.47241  0.47829  1.0000
  H   H2803     1.0  0.86233  0.05129  0.50786  1.0000
  C   C3503     1.0  0.52161  0.23577  0.55037  1.0000
  C   C3504     1.0  0.57719  0.23244  0.39144  1.0000
  C   C3505     1.0  0.90896  0.28965  0.44445  1.0000
  C   C3506     1.0  0.51676  0.47575  0.55803  1.0000
  C   C3507     1.0  0.66369  0.41137  0.39834  1.0000
  C   C3508     1.0  0.64223  0.41494  0.40435  1.0000
  C   C3509     1.0  0.76449  0.49208  0.55029  1.0000
  H   H2804     1.0  0.84988  0.06643  0.57304  1.0000
  C   C3510     1.0  0.75794  0.45657  0.47252  1.0000
  C   C3511     1.0  0.55284  0.24748  0.41926  1.0000
  C   C3512     1.0  0.90723  0.29641  0.45982  1.0000
  C   C3513     1.0  0.79088  0.05857  0.38701  1.0000
  H   H2805     1.0  0.63658  0.33259  0.46280  1.0000
  C   C3514     1.0  0.51308  0.46897  0.40190  1.0000
  P   P117      1.0  0.95429  0.25643  0.48123  1.0000
  C   C3515     1.0  0.58273  0.38793  0.50844  1.0000
  C   C3516     1.0  0.58955  0.38014  0.49334  1.0000
  C   C3517     1.0  0.57773  0.38662  0.48014  1.0000
  C   C3518     1.0  0.55898  0.40079  0.48210  1.0000
  C   C3519     1.0  0.55256  0.40886  0.49706  1.0000
  C   C3520     1.0  0.56444  0.40264  0.51008  1.0000
  H   H2806     1.0  0.60374  0.36881  0.49193  1.0000
  H   H2807     1.0  0.58286  0.38031  0.46862  1.0000
  H   H2808     1.0  0.53823  0.41987  0.49868  1.0000
  H   H2809     1.0  0.55928  0.40919  0.52144  1.0000
  H   H2810     1.0  0.97729  0.35256  0.38978  1.0000
  H   H2811     1.0  0.94446  0.21874  0.55581  1.0000
  C   C3521     1.0  0.95038  0.01824  0.46209  1.0000
  C   C3522     1.0  0.62080  0.30965  0.41154  1.0000
  C   C3523     1.0  0.83331  0.05318  0.49847  1.0000
  C   C3524     1.0  0.78862  0.43144  0.47871  1.0000
  H   H2812     1.0  0.99051  0.03068  0.43131  1.0000
  H   H2813     1.0  0.79614  0.41809  0.38568  1.0000
  C   C3525     1.0  0.50912  0.46208  0.51401  1.0000
  H   H2814     1.0  0.96241  0.43876  0.44956  1.0000
  C   C3526     1.0  0.79420  0.46120  0.42197  1.0000
  C   C3527     1.0  0.80434  0.45400  0.43597  1.0000
  C   C3528     1.0  0.81501  0.46745  0.44218  1.0000
  C   C3529     1.0  0.60095  0.31621  0.40670  1.0000
  H   H2815     1.0  0.97985  0.45712  0.49907  1.0000
  C   C3530     1.0  0.86981  0.00628  0.53287  1.0000
  C   C3531     1.0  0.82762  0.30849  0.39508  1.0000
  C   C3532     1.0  0.80181  0.05032  0.40034  1.0000
  H   H2816     1.0  0.89561  0.05498  0.52984  1.0000
  C   C3533     1.0  0.96161  0.30686  0.50271  1.0000
  H   H2817     1.0  0.95069  0.25071  0.44735  1.0000
  H   H2818     1.0  0.61663  0.45601  0.49549  1.0000
  H   H2819     1.0  0.50020  0.09190  0.45834  1.0000
  H   H2820     1.0  0.76697  0.17423  0.57864  1.0000
  H   H2821     1.0  0.70875  0.45615  0.56176  1.0000
  C   C3534     1.0  0.89880  0.04548  0.48040  1.0000
  C   C3535     1.0  0.90828  0.06381  0.47833  1.0000
  C   C3536     1.0  0.92223  0.06600  0.48897  1.0000
  C   C3537     1.0  0.92679  0.04983  0.50178  1.0000
  C   C3538     1.0  0.91738  0.03145  0.50384  1.0000
  C   C3539     1.0  0.90345  0.02925  0.49319  1.0000
  H   H2822     1.0  0.90472  0.07643  0.46848  1.0000
  H   H2823     1.0  0.92925  0.08027  0.48735  1.0000
  H   H2824     1.0  0.92080  0.01893  0.51375  1.0000
  H   H2825     1.0  0.89631  0.01505  0.49487  1.0000
  C   C3540     1.0  0.66232  0.39348  0.56186  1.0000
  H   H2826     1.0  0.63458  0.02452  0.54217  1.0000
  C   C3541     1.0  0.97489  0.22320  0.54233  1.0000
  H   H2827     1.0  0.99371  0.27623  0.47356  1.0000
  C   C3542     1.0  0.83305  0.34492  0.39327  1.0000
  S   S480      1.0  0.88177  0.48824  0.45935  1.0000
  C   C3543     1.0  0.95416  0.41179  0.50752  1.0000
  C   C3544     1.0  0.93902  0.42834  0.51290  1.0000
  C   C3545     1.0  0.92088  0.43530  0.50522  1.0000
  C   C3546     1.0  0.91769  0.42562  0.49218  1.0000
  C   C3547     1.0  0.93276  0.40904  0.48687  1.0000
  C   C3548     1.0  0.95104  0.40224  0.49437  1.0000
  H   H2828     1.0  0.94122  0.43567  0.52314  1.0000
  H   H2829     1.0  0.90911  0.44776  0.50965  1.0000
  H   H2830     1.0  0.93021  0.40149  0.47691  1.0000
  H   H2831     1.0  0.96255  0.38944  0.49013  1.0000
  H   H2832     1.0  0.81127  0.44328  0.48952  1.0000
  H   H2833     1.0  0.61630  0.43818  0.41214  1.0000
  H   H2834     1.0  0.52838  0.33286  0.43114  1.0000
  H   H2835     1.0  0.56331  0.20402  0.39953  1.0000
  H   H2836     1.0  0.51549  0.45090  0.42585  1.0000
  C   C3549     1.0  0.51270  0.29393  0.41468  1.0000
  C   C3550     1.0  0.66665  0.44794  0.39917  1.0000
  C   C3551     1.0  0.96796  0.16894  0.56026  1.0000
  C   C3552     1.0  0.97471  0.15064  0.55264  1.0000
  S   S481      1.0  0.57263  0.39931  0.39446  1.0000
  C   C3553     1.0  0.52651  0.32352  0.42196  1.0000
  S   S482      1.0  0.73721  0.48444  0.39180  1.0000
  P   P118      1.0  0.53104  0.48536  0.48775  1.0000
  S   S483      1.0  0.51294  0.22509  0.39408  1.0000
  H   H2837     1.0  0.51440  0.47141  0.52176  1.0000
  H   H2838     1.0  0.98117  0.46930  0.52707  1.0000
  H   H2839     1.0  0.70849  0.03850  0.53963  1.0000
  H   H2840     1.0  0.78772  0.48746  0.40311  1.0000
  C   C3554     1.0  0.52173  0.29891  0.39834  1.0000
  C   C3555     1.0  0.50211  0.48654  0.39300  1.0000
  C   C3556     1.0  0.62374  0.01362  0.54777  1.0000
  H   H2841     1.0  0.63083  0.00091  0.43631  1.0000
  C   C3557     1.0  0.62940  0.01405  0.38922  1.0000
  H   H2842     1.0  0.99348  0.02181  0.48808  1.0000
  C   C3558     1.0  0.98154  0.02059  0.48083  1.0000
  H   H2843     1.0  0.56136  0.01639  0.42779  1.0000
  C   C3559     1.0  0.70824  0.37238  0.41806  1.0000
  Fe  Fe248     1.0  0.76144  0.45534  0.39354  1.0000
  H   H2844     1.0  0.62105  0.02282  0.57175  1.0000
  C   C3560     1.0  0.63285  0.43522  0.40753  1.0000
  C   C3561     1.0  0.79108  0.04854  0.41637  1.0000
  C   C3562     1.0  0.69235  0.36075  0.41735  1.0000
  C   C3563     1.0  0.60036  0.46154  0.49411  1.0000
  H   H2845     1.0  0.62678  0.31912  0.41880  1.0000
  H   H2846     1.0  0.78824  0.00085  0.44324  1.0000
  S   S484      1.0  0.49853  0.27226  0.42078  1.0000
  C   C3564     1.0  0.80243  0.05016  0.51871  1.0000
  H   H2847     1.0  0.95746  0.31047  0.52839  1.0000
  H   H2848     1.0  0.57761  0.30938  0.39385  1.0000
  S   S485      1.0  0.88191  0.49020  0.49863  1.0000
  H   H2849     1.0  0.76105  0.05304  0.43151  1.0000
  C   C3565     1.0  0.77508  0.48214  0.53677  1.0000
  H   H2850     1.0  0.98570  0.29070  0.42621  1.0000
  C   C3566     1.0  0.71754  0.02047  0.51930  1.0000
  C   C3567     1.0  0.81461  0.04813  0.53139  1.0000
  C   C3568     1.0  0.67587  0.42779  0.39562  1.0000
  C   C3569     1.0  0.84001  0.05416  0.57594  1.0000
  C   C3570     1.0  0.76903  0.06494  0.38963  1.0000
  Fe  Fe249     1.0  0.55246  0.38825  0.58132  1.0000
  H   H2851     1.0  0.68182  0.10739  0.38805  1.0000
  P   P119      1.0  0.69531  0.41639  0.55889  1.0000
  C   C3571     1.0  0.58215  0.01668  0.46687  1.0000
  C   C3572     1.0  0.94841  0.26753  0.51330  1.0000
  C   C3573     1.0  0.50718  0.46445  0.41890  1.0000
  H   H2852     1.0  0.65384  0.03251  0.38897  1.0000
  H   H2853     1.0  0.53692  0.05352  0.57695  1.0000
  H   H2854     1.0  0.96702  0.32197  0.49856  1.0000
  C   C3574     1.0  0.51460  0.46554  0.49683  1.0000
  H   H2855     1.0  0.51384  0.45129  0.57883  1.0000
  S   S486      1.0  0.68190  0.46828  0.39777  1.0000
  C   C3575     1.0  0.98843  0.31031  0.44405  1.0000
  H   H2856     1.0  0.99173  0.42666  0.48389  1.0000
  H   H2857     1.0  0.50836  0.30245  0.43916  1.0000
  C   C3576     1.0  0.95029  0.19892  0.50955  1.0000
  C   C3577     1.0  0.93473  0.19138  0.50348  1.0000
  C   C3578     1.0  0.92438  0.20393  0.49102  1.0000
  C   C3579     1.0  0.92965  0.22399  0.48458  1.0000
  C   C3580     1.0  0.94530  0.23171  0.49064  1.0000
  C   C3581     1.0  0.95561  0.21891  0.50308  1.0000
  C   C3582     1.0  0.98010  0.24933  0.46984  1.0000
  C   C3583     1.0  0.59515  0.47849  0.48205  1.0000
  H   H2858     1.0  0.57217  0.03256  0.57332  1.0000
  C   C3584     1.0  0.56589  0.26028  0.40861  1.0000
  H   H2859     1.0  0.96615  0.01130  0.51346  1.0000
  C   C3585     1.0  0.98420  0.23102  0.46213  1.0000
  H   H2860     1.0  0.95844  0.18901  0.51909  1.0000
  H   H2861     1.0  0.93093  0.17569  0.50832  1.0000
  H   H2862     1.0  0.91260  0.19790  0.48607  1.0000
  H   H2863     1.0  0.92177  0.23309  0.47464  1.0000
  H   H2864     1.0  0.96790  0.22444  0.50769  1.0000
  H   H2865     1.0  0.58984  0.02262  0.44058  1.0000
  H   H2866     1.0  0.83126  0.35900  0.39909  1.0000
  H   H2867     1.0  0.65048  0.33900  0.48731  1.0000
  H   H2868     1.0  0.97237  0.22084  0.46342  1.0000
  C   C3586     1.0  0.83638  0.04822  0.52765  1.0000
  C   C3587     1.0  0.63342  0.41753  0.51577  1.0000
  C   C3588     1.0  0.64515  0.43182  0.51938  1.0000
  C   C3589     1.0  0.65974  0.44063  0.50711  1.0000
  C   C3590     1.0  0.66255  0.43511  0.49121  1.0000
  C   C3591     1.0  0.65120  0.42025  0.48762  1.0000
  C   C3592     1.0  0.63622  0.41192  0.49994  1.0000
  P   P120      1.0  0.65319  0.41488  0.46675  1.0000
  C   C3593     1.0  0.64869  0.38852  0.46551  1.0000
  C   C3594     1.0  0.63259  0.43348  0.45808  1.0000
  C   C3595     1.0  0.61201  0.42871  0.46114  1.0000
  C   C3596     1.0  0.59581  0.44261  0.45440  1.0000
  C   C3597     1.0  0.59994  0.46157  0.44468  1.0000
  C   C3598     1.0  0.62021  0.46686  0.44213  1.0000
  C   C3599     1.0  0.63649  0.45295  0.44891  1.0000
  H   H2869     1.0  0.87987  0.36877  0.39246  1.0000
  H   H2870     1.0  0.63782  0.46732  0.40746  1.0000
  C   C3600     1.0  0.80571  0.49530  0.42031  1.0000
  H   H2871     1.0  0.74149  0.06746  0.40819  1.0000
  C   C3601     1.0  0.64144  0.38457  0.45147  1.0000
  C   C3602     1.0  0.67922  0.41678  0.45576  1.0000
  C   C3603     1.0  0.69687  0.41071  0.46407  1.0000
  C   C3604     1.0  0.71701  0.41262  0.45563  1.0000
  C   C3605     1.0  0.71968  0.42032  0.43882  1.0000
  C   C3606     1.0  0.70227  0.42552  0.43039  1.0000
  C   C3607     1.0  0.68217  0.42341  0.43873  1.0000
  H   H2872     1.0  0.62192  0.41092  0.52523  1.0000
  H   H2873     1.0  0.64262  0.43623  0.53164  1.0000
  H   H2874     1.0  0.66855  0.45202  0.50985  1.0000
  H   H2875     1.0  0.67328  0.44273  0.48166  1.0000
  H   H2876     1.0  0.62633  0.40141  0.49730  1.0000
  H   H2877     1.0  0.98948  0.43155  0.53803  1.0000
  C   C3608     1.0  0.94251  0.48399  0.48738  1.0000
  C   C3609     1.0  0.93568  0.46351  0.55301  1.0000
  C   C3610     1.0  0.71875  0.37329  0.38863  1.0000
  H   H2878     1.0  0.65208  0.45732  0.44671  1.0000
  S   S487      1.0  0.73975  0.48530  0.56002  1.0000
  C   C3611     1.0  0.54131  0.00941  0.41217  1.0000
  C   C3612     1.0  0.65976  0.48410  0.56183  1.0000
  H   H2879     1.0  0.91031  0.08818  0.52383  1.0000
  H   H2880     1.0  0.63878  0.39709  0.44132  1.0000
  H   H2881     1.0  0.69508  0.40454  0.47705  1.0000
  H   H2882     1.0  0.73057  0.40818  0.46209  1.0000
  H   H2883     1.0  0.73522  0.42217  0.43225  1.0000
  H   H2884     1.0  0.70430  0.43136  0.41735  1.0000
  H   H2885     1.0  0.66896  0.42707  0.43187  1.0000
  H   H2886     1.0  0.62344  0.48154  0.43456  1.0000
  H   H2887     1.0  0.80382  0.43800  0.44209  1.0000
  C   C3613     1.0  0.68961  0.35537  0.40228  1.0000
  H   H2888     1.0  0.60845  0.41409  0.46860  1.0000
  C   C3614     1.0  0.93882  0.26357  0.45102  1.0000
  S   S488      1.0  0.73937  0.43368  0.39011  1.0000
  C   C3615     1.0  0.95733  0.22778  0.55403  1.0000
  C   C3616     1.0  0.71953  0.41948  0.54526  1.0000
  H   H2889     1.0  0.95628  0.49718  0.46341  1.0000
  H   H2890     1.0  0.93425  0.41995  0.44613  1.0000
  C   C3617     1.0  0.68506  0.39390  0.53572  1.0000
  C   C3618     1.0  0.89396  0.08829  0.52913  1.0000
  H   H2891     1.0  0.65849  0.37436  0.48904  1.0000
  H   H2892     1.0  0.89811  0.29707  0.43590  1.0000
  C   C3619     1.0  0.71888  0.43048  0.52927  1.0000
  C   C3620     1.0  0.73747  0.43411  0.51894  1.0000
  C   C3621     1.0  0.75682  0.42736  0.52465  1.0000
  C   C3622     1.0  0.75760  0.41665  0.54061  1.0000
  C   C3623     1.0  0.73906  0.41264  0.55089  1.0000
  H   H2893     1.0  0.88757  0.41276  0.39958  1.0000
  H   H2894     1.0  0.54270  0.25368  0.42963  1.0000
  C   C3624     1.0  0.86006  0.10754  0.53839  1.0000
  H   H2895     1.0  0.82265  0.46182  0.45301  1.0000
  H   H2896     1.0  0.95625  0.18447  0.46641  1.0000
  H   H2897     1.0  0.97326  0.14955  0.47875  1.0000
  C   C3625     1.0  0.69212  0.09264  0.38639  1.0000
  H   H2898     1.0  0.52684  0.31325  0.56728  1.0000
  C   C3626     1.0  0.86442  0.06928  0.53956  1.0000
  C   C3627     1.0  0.50770  0.45303  0.48711  1.0000
  C   C3628     1.0  0.70366  0.38215  0.58329  1.0000
  C   C3629     1.0  0.65249  0.37183  0.47825  1.0000
  C   C3630     1.0  0.63283  0.29091  0.40700  1.0000
  C   C3631     1.0  0.97877  0.15589  0.46625  1.0000
  S   S489      1.0  0.50049  0.03813  0.56712  1.0000
  H   H2899     1.0  0.71016  0.37678  0.42969  1.0000
  H   H2900     1.0  0.93522  0.47282  0.48267  1.0000
  H   H2901     1.0  0.73690  0.44265  0.50664  1.0000
  H   H2902     1.0  0.77119  0.43074  0.51683  1.0000
  H   H2903     1.0  0.77259  0.41185  0.54516  1.0000
  H   H2904     1.0  0.74008  0.40473  0.56331  1.0000
  H   H2905     1.0  0.80237  0.48001  0.51798  1.0000
  C   C3632     1.0  0.63712  0.36447  0.45051  1.0000
  S   S490      1.0  0.97358  0.22555  0.38557  1.0000
  C   C3633     1.0  0.64377  0.01765  0.41349  1.0000
  H   H2906     1.0  0.52720  0.12788  0.57046  1.0000
  C   C3634     1.0  0.76943  0.43624  0.47255  1.0000
  C   C3635     1.0  0.96649  0.34819  0.40069  1.0000
  C   C3636     1.0  0.65443  0.37602  0.54051  1.0000
  H   H2907     1.0  0.70254  0.37217  0.57431  1.0000
  C   C3637     1.0  0.96032  0.29384  0.49119  1.0000
  Fe  Fe250     1.0  0.97933  0.22623  0.41140  1.0000
  C   C3638     1.0  0.93713  0.27013  0.46656  1.0000
  H   H2908     1.0  0.74586  0.48440  0.51362  1.0000
  C   C3639     1.0  0.94052  0.44208  0.55917  1.0000
  C   C3640     1.0  0.98188  0.00629  0.53473  1.0000
  Fe  Fe251     1.0  0.59128  0.40985  0.57829  1.0000
  H   H2909     1.0  0.78578  0.04925  0.52158  1.0000
  C   C3641     1.0  0.70247  0.36209  0.38774  1.0000
  C   C3642     1.0  0.97228  0.03887  0.47169  1.0000
  C   C3643     1.0  0.54014  0.47783  0.45514  1.0000
  C   C3644     1.0  0.82660  0.02479  0.56874  1.0000
  C   C3645     1.0  0.52432  0.31793  0.57945  1.0000
  C   C3646     1.0  0.64030  0.34807  0.46345  1.0000
  H   H2910     1.0  0.98769  0.31227  0.57284  1.0000
  H   H2911     1.0  0.65506  0.02366  0.41900  1.0000
  C   C3647     1.0  0.97613  0.18412  0.44301  1.0000
  H   H2912     1.0  0.81633  0.32782  0.41437  1.0000
  H   H2913     1.0  0.53015  0.02370  0.41353  1.0000
  S   S491      1.0  0.97660  0.40322  0.51757  1.0000
  C   C3648     1.0  0.85160  0.08861  0.54200  1.0000
  H   H2914     1.0  0.58013  0.43839  0.45657  1.0000
  H   H2915     1.0  0.96400  0.29957  0.47823  1.0000
  C   C3649     1.0  0.96169  0.32761  0.40421  1.0000
  H   H2916     1.0  0.52011  0.28946  0.38916  1.0000
  H   H2917     1.0  0.92028  0.47182  0.55691  1.0000
  C   C3650     1.0  0.55219  0.22708  0.41616  1.0000
  C   C3651     1.0  0.62507  0.27884  0.39751  1.0000
  H   H2918     1.0  0.54169  0.21740  0.42424  1.0000
  H   H2919     1.0  0.70396  0.43654  0.52491  1.0000
  H   H2920     1.0  0.62136  0.22914  0.38918  1.0000
  S   S492      1.0  0.54018  0.46299  0.54810  1.0000
  H   H2921     1.0  0.97321  0.26670  0.56972  1.0000
  H   H2922     1.0  0.68986  0.49203  0.56388  1.0000
  H   H2923     1.0  0.94475  0.27599  0.53777  1.0000
  C   C3652     1.0  0.81559  0.48824  0.43443  1.0000
  H   H2924     1.0  0.65833  0.39778  0.57417  1.0000
  H   H2925     1.0  0.74314  0.46011  0.46764  1.0000
  C   C3653     1.0  0.50817  0.12262  0.55310  1.0000
  C   C3654     1.0  0.99107  0.25025  0.55021  1.0000
  C   C3655     1.0  0.95460  0.27363  0.49638  1.0000
  H   H2926     1.0  0.58018  0.03325  0.46834  1.0000
  H   H2927     1.0  0.67697  0.34669  0.40196  1.0000
  H   H2928     1.0  0.84057  0.05506  0.48572  1.0000
  H   H2929     1.0  0.51192  0.45491  0.47387  1.0000
  C   C3656     1.0  0.59316  0.30416  0.39726  1.0000
  H   H2930     1.0  0.64818  0.28572  0.41086  1.0000
  C   C3657     1.0  0.64507  0.45167  0.40493  1.0000
  C   C3658     1.0  0.97961  0.17410  0.57150  1.0000
  C   C3659     1.0  0.75836  0.06312  0.40580  1.0000
  C   C3660     1.0  0.83849  0.04146  0.56411  1.0000
  H   H2931     1.0  0.65031  0.43518  0.55886  1.0000
  H   H2932     1.0  0.92599  0.26777  0.42823  1.0000
  H   H2933     1.0  0.64419  0.36727  0.53613  1.0000
  P   P121      1.0  0.85290  0.04517  0.54355  1.0000
  C   C3661     1.0  0.96000  0.43065  0.55389  1.0000
  H   H2934     1.0  0.75924  0.01162  0.53055  1.0000
  H   H2935     1.0  0.82109  0.29478  0.40179  1.0000
  H   H2936     1.0  0.97437  0.18827  0.57726  1.0000
  H   H2937     1.0  0.89495  0.30908  0.46323  1.0000
  S   S493      1.0  0.79288  0.00570  0.50439  1.0000
  H   H2938     1.0  0.59146  0.33065  0.41030  1.0000
  H   H2939     1.0  0.97690  0.05404  0.47207  1.0000
  H   H2940     1.0  0.95369  0.17913  0.55743  1.0000
  C   C3662     1.0  0.55899  0.00508  0.42034  1.0000
  C   C3663     1.0  0.95659  0.03772  0.46242  1.0000
  H   H2941     1.0  0.63460  0.26434  0.39425  1.0000
  H   H2942     1.0  0.96188  0.37878  0.40861  1.0000
  H   H2943     1.0  0.69246  0.42473  0.39112  1.0000
  C   C3664     1.0  0.94933  0.28083  0.52476  1.0000
  C   C3665     1.0  0.93939  0.33648  0.42922  1.0000
  C   C3666     1.0  0.94448  0.35710  0.42596  1.0000
  C   C3667     1.0  0.95779  0.36295  0.41143  1.0000
  P   P122      1.0  0.93432  0.37603  0.44018  1.0000
  C   C3668     1.0  0.91186  0.39393  0.43353  1.0000
  C   C3669     1.0  0.92589  0.36253  0.46039  1.0000
  C   C3670     1.0  0.90618  0.35563  0.46379  1.0000
  C   C3671     1.0  0.89873  0.34681  0.47975  1.0000
  C   C3672     1.0  0.91080  0.34505  0.49246  1.0000
  C   C3673     1.0  0.93042  0.35183  0.48915  1.0000
  C   C3674     1.0  0.93815  0.36009  0.47314  1.0000
  C   C3675     1.0  0.89810  0.40547  0.44488  1.0000
  C   C3676     1.0  0.88082  0.41959  0.43991  1.0000
  C   C3677     1.0  0.87694  0.42213  0.42361  1.0000
  C   C3678     1.0  0.89048  0.41063  0.41224  1.0000
  C   C3679     1.0  0.90794  0.39664  0.41714  1.0000
  C   C3680     1.0  0.95494  0.39076  0.44165  1.0000
  C   C3681     1.0  0.97590  0.38075  0.44045  1.0000
  C   C3682     1.0  0.63002  0.00477  0.42323  1.0000
  H   H2944     1.0  0.82575  0.01433  0.56001  1.0000
  C   C3683     1.0  0.95025  0.41187  0.44474  1.0000
  H   H2945     1.0  0.92936  0.33141  0.44033  1.0000
  H   H2946     1.0  0.93796  0.01744  0.45509  1.0000
  H   H2947     1.0  0.89639  0.35751  0.45416  1.0000
  H   H2948     1.0  0.88337  0.34190  0.48238  1.0000
  H   H2949     1.0  0.90486  0.33879  0.50493  1.0000
  H   H2950     1.0  0.93950  0.35122  0.49906  1.0000
  H   H2951     1.0  0.95335  0.36533  0.47098  1.0000
  H   H2952     1.0  0.90089  0.40387  0.45757  1.0000
  H   H2953     1.0  0.87060  0.42877  0.44873  1.0000
  H   H2954     1.0  0.86354  0.43318  0.41982  1.0000
  C   C3684     1.0  0.94794  0.32186  0.41833  1.0000
  H   H2955     1.0  0.91838  0.38815  0.40811  1.0000
  C   C3685     1.0  0.88127  0.10736  0.53203  1.0000
  H   H2956     1.0  0.52879  0.24752  0.54144  1.0000
  H   H2957     1.0  0.94261  0.25275  0.51781  1.0000
  C   C3686     1.0  0.71277  0.02286  0.53598  1.0000
  C   C3687     1.0  0.79435  0.48776  0.52834  1.0000
  H   H2958     1.0  0.58746  0.47209  0.43910  1.0000
  S   S494      1.0  0.96335  0.20869  0.43452  1.0000
  H   H2959     1.0  0.97532  0.21037  0.53541  1.0000
  H   H2960     1.0  0.56562  0.27623  0.41104  1.0000
  H   H2961     1.0  0.71529  0.48020  0.53455  1.0000
  C   C3688     1.0  0.96985  0.46199  0.53626  1.0000
  H   H2962     1.0  0.79955  0.04164  0.42663  1.0000
  C   C3689     1.0  0.70068  0.40429  0.57929  1.0000
  H   H2963     1.0  0.63197  0.47130  0.56026  1.0000
  C   C3690     1.0  0.64813  0.35171  0.47726  1.0000
  H   H2964     1.0  0.96874  0.31599  0.39608  1.0000
  C   C3691     1.0  0.53305  0.31608  0.39386  1.0000
  C   C3692     1.0  0.51556  0.13502  0.56249  1.0000
  H   H2965     1.0  0.80240  0.05354  0.49249  1.0000
  S   S495      1.0  0.53456  0.45346  0.39164  1.0000
  H   H2966     1.0  0.51406  0.10584  0.55377  1.0000
  H   H2967     1.0  0.76851  0.46983  0.53297  1.0000
  H   H2968     1.0  0.67614  0.37739  0.51802  1.0000
  C   C3693     1.0  0.50693  0.46653  0.57305  1.0000
  C   C3694     1.0  0.97353  0.25476  0.56191  1.0000
  C   C3695     1.0  0.58760  0.01058  0.45114  1.0000
  C   C3696     1.0  0.89009  0.01894  0.55012  1.0000
  H   H2969     1.0  0.83503  0.08903  0.54654  1.0000
  H   H2970     1.0  0.74220  0.15009  0.57648  1.0000
  C   C3697     1.0  0.68116  0.44290  0.55967  1.0000
  H   H2971     1.0  0.94341  0.24661  0.57330  1.0000
  C   C3698     1.0  0.68135  0.47969  0.56234  1.0000
  C   C3699     1.0  0.96625  0.42269  0.44671  1.0000
  H   H2972     1.0  0.69878  0.39821  0.52757  1.0000
  C   C3700     1.0  0.87245  0.02193  0.54189  1.0000
  C   C3701     1.0  0.50607  0.01048  0.57300  1.0000
  C   C3702     1.0  0.64949  0.38176  0.55632  1.0000
  H   H2973     1.0  0.71703  0.03428  0.50998  1.0000
  C   C3703     1.0  0.52993  0.33729  0.58158  1.0000
  C   C3704     1.0  0.95626  0.30035  0.51949  1.0000
  C   C3705     1.0  0.99188  0.23452  0.54025  1.0000
  H   H2974     1.0  0.53662  0.34743  0.57108  1.0000
  H   H2975     1.0  0.94447  0.30582  0.42101  1.0000
  C   C3706     1.0  0.88556  0.06935  0.53274  1.0000
  C   C3707     1.0  0.67989  0.40014  0.55150  1.0000
  C   C3708     1.0  0.64321  0.02254  0.39654  1.0000
  C   C3709     1.0  0.96919  0.17570  0.45926  1.0000
  H   H2976     1.0  0.88786  0.12200  0.52910  1.0000
  C   C3710     1.0  0.51522  0.30625  0.42648  1.0000
  C   C3711     1.0  0.79522  0.48181  0.41401  1.0000
  C   C3712     1.0  0.69202  0.45924  0.56116  1.0000
  H   H2977     1.0  0.89224  0.03065  0.55738  1.0000
  C   C3713     1.0  0.73038  0.48775  0.50989  1.0000
  H   H2978     1.0  0.63550  0.37742  0.56424  1.0000
  H   H2979     1.0  0.94897  0.05198  0.45572  1.0000
  C   C3714     1.0  0.50759  0.15657  0.56198  1.0000
  C   C3715     1.0  0.72157  0.37846  0.40373  1.0000
  C   C3716     1.0  0.81178  0.05257  0.50228  1.0000
  H   H2980     1.0  0.67089  0.39580  0.39581  1.0000
  H   H2981     1.0  0.92899  0.43415  0.56770  1.0000
  C   C3717     1.0  0.67235  0.38188  0.53028  1.0000
  C   C3718     1.0  0.76939  0.05496  0.41910  1.0000
  C   C3719     1.0  0.57844  0.25272  0.39475  1.0000
  H   H2982     1.0  0.53458  0.24319  0.57063  1.0000
  H   H2983     1.0  0.80691  0.04635  0.54396  1.0000
  C   C3720     1.0  0.50876  0.22337  0.54555  1.0000
  C   C3721     1.0  0.60524  0.28553  0.39237  1.0000
  C   C3722     1.0  0.53547  0.32851  0.40559  1.0000
  H   H2984     1.0  0.73396  0.38738  0.40426  1.0000
  C   C3723     1.0  0.61754  0.00054  0.53822  1.0000
  C   C3724     1.0  0.97487  0.00107  0.48102  1.0000
  C   C3725     1.0  0.56350  0.45892  0.50254  1.0000
  C   C3726     1.0  0.58456  0.45174  0.50432  1.0000
  C   C3727     1.0  0.93956  0.48507  0.50427  1.0000
  H   H2985     1.0  0.97312  0.02046  0.53936  1.0000
  H   H2986     1.0  0.68185  0.35626  0.42841  1.0000
  H   H2987     1.0  0.54714  0.47153  0.42995  1.0000
  C   C3728     1.0  0.84559  0.05099  0.51109  1.0000
  C   C3729     1.0  0.65941  0.44745  0.55926  1.0000
  H   H2988     1.0  0.91624  0.35380  0.39726  1.0000
  C   C3730     1.0  0.55812  0.47580  0.49033  1.0000
  H   H2989     1.0  0.85603  0.00786  0.52684  1.0000
  C   C3731     1.0  0.78501  0.46739  0.48463  1.0000
  H   H2990     1.0  0.54820  0.46255  0.45991  1.0000
  C   C3732     1.0  0.72786  0.49493  0.49339  1.0000
  H   H2991     1.0  0.55160  0.45119  0.51076  1.0000
  H   H2992     1.0  0.58853  0.43852  0.51367  1.0000
  C   C3733     1.0  0.61617  0.01246  0.56460  1.0000
  C   C3734     1.0  0.61560  0.00121  0.39891  1.0000
  C   C3735     1.0  0.49897  0.20854  0.55722  1.0000
  H   H2993     1.0  0.70930  0.00677  0.56089  1.0000
  C   C3736     1.0  0.70766  0.49787  0.48879  1.0000
  H   H2994     1.0  0.57521  0.00611  0.49291  1.0000
  H   H2995     1.0  0.60743  0.48596  0.47407  1.0000
  C   C3737     1.0  0.57412  0.48556  0.48011  1.0000
  C   C3738     1.0  0.68377  0.07378  0.38864  1.0000
  H   H2996     1.0  0.57033  0.49865  0.47064  1.0000
  C   C3739     1.0  0.95449  0.49761  0.47654  1.0000
  C   C3740     1.0  0.69024  0.49472  0.50071  1.0000
  C   C3741     1.0  0.71298  0.48499  0.52179  1.0000
  H   H2997     1.0  0.53245  0.00685  0.55383  1.0000
  C   C3742     1.0  0.75191  0.49942  0.44431  1.0000
  P   P123      1.0  0.75072  0.49853  0.47832  1.0000
  H   H2998     1.0  0.62358  0.00129  0.52523  1.0000
  C   C3743     1.0  0.81549  0.02163  0.58462  1.0000
  H   H2999     1.0  0.66700  0.07385  0.39188  1.0000
  C   C3744     1.0  0.99306  0.13742  0.55645  1.0000
  H   H3000     1.0  0.81824  0.44424  0.38872  1.0000
  C   C3745     1.0  0.98706  0.41262  0.44542  1.0000
  Fe  Fe252     1.0  0.84691  0.49793  0.46357  1.0000
  H   H3001     1.0  0.76327  0.48514  0.44513  1.0000
  C   C3746     1.0  0.52992  0.49220  0.46590  1.0000
  H   H3002     1.0  0.50296  0.18679  0.51872  1.0000
  C   C3747     1.0  0.99287  0.17275  0.43382  1.0000
  H   H3003     1.0  0.67940  0.48635  0.52654  1.0000
  Fe  Fe253     1.0  0.99374  0.10621  0.49084  1.0000
  H   H3004     1.0  0.50628  0.22575  0.53279  1.0000
  H   H3005     1.0  0.99138  0.08081  0.56760  1.0000
  C   C3748     1.0  0.77272  0.00303  0.53596  1.0000
  C   C3749     1.0  0.50776  0.49551  0.55063  1.0000
  C   C3750     1.0  0.90537  0.00106  0.54866  1.0000
  C   C3751     1.0  0.71338  0.00501  0.54796  1.0000
  Fe  Fe254     1.0  0.72384  0.49510  0.58483  1.0000
  C   C3752     1.0  0.57937  0.00142  0.48071  1.0000
  S   S496      1.0  0.99698  0.07106  0.49894  1.0000
  H   H3006     1.0  0.69063  0.04018  0.38843  1.0000
  C   C3753     1.0  0.69707  0.05479  0.38658  1.0000
  C   C3754     1.0  0.99188  0.39169  0.44222  1.0000
  C   C3755     1.0  0.99512  0.14424  0.45689  1.0000
  C   C3756     1.0  0.99594  0.26207  0.46788  1.0000
  C   C3757     1.0  0.50239  0.20626  0.57370  1.0000
  C   C3758     1.0  0.99622  0.29818  0.43126  1.0000
  C   C3759     1.0  0.69288  0.48848  0.51725  1.0000
  C   C3760     1.0  0.99548  0.45534  0.49215  1.0000
  H   H3007     1.0  0.99728  0.27299  0.52031  1.0000
  C   C3761     1.0  0.97819  0.00125  0.51985  1.0000
  C   C3762     1.0  0.91087  0.35228  0.38592  1.0000
  C   C3763     1.0  0.72300  0.00023  0.51461  1.0000
  H   H3008     1.0  0.75601  0.99990  0.56071  1.0000
  C   C3764     1.0  0.56165  0.02903  0.58456  1.0000
  C   C3765     1.0  0.95966  0.99993  0.47118  1.0000
  S   S497      1.0  0.97666  0.22015  0.60212  1.0000
  C   C3766     1.0  0.92634  0.35689  0.68932  1.0000
  S   S498      1.0  0.93516  0.21372  0.64097  1.0000
  Fe  Fe255     1.0  0.86317  0.22340  0.76681  1.0000
  S   S499      1.0  0.86739  0.24842  0.74485  1.0000
  H   H3009     1.0  0.80065  0.11020  0.66840  1.0000
  Fe  Fe256     1.0  0.84979  0.19305  0.74725  1.0000
  S   S500      1.0  0.85301  0.21513  0.72346  1.0000
  S   S501      1.0  0.83988  0.16058  0.75313  1.0000
  Fe  Fe257     1.0  0.88268  0.22110  0.73118  1.0000
  S   S502      1.0  0.91552  0.21958  0.71742  1.0000
  Fe  Fe258     1.0  0.83742  0.24065  0.73890  1.0000
  S   S503      1.0  0.80811  0.26218  0.73227  1.0000
  S   S504      1.0  0.88067  0.19694  0.75364  1.0000
  S   S505      1.0  0.83197  0.21793  0.76201  1.0000
  Fe  Fe259     1.0  0.59804  0.24020  0.74833  1.0000
  S   S506      1.0  0.59952  0.25988  0.72338  1.0000
  Fe  Fe260     1.0  0.64280  0.21806  0.74109  1.0000
  S   S507      1.0  0.64766  0.23591  0.71567  1.0000
  S   S508      1.0  0.67008  0.19553  0.75063  1.0000
  Fe  Fe261     1.0  0.63153  0.26443  0.72735  1.0000
  S   S509      1.0  0.64183  0.29658  0.71815  1.0000
  Fe  Fe262     1.0  0.61535  0.22998  0.71375  1.0000
  S   S510      1.0  0.60940  0.21873  0.69077  1.0000
  S   S511      1.0  0.62886  0.24712  0.75314  1.0000
  S   S512      1.0  0.61166  0.20970  0.73840  1.0000
  H   H3010     1.0  0.91747  0.17598  0.65731  1.0000
  H   H3011     1.0  0.98482  0.22073  0.77668  1.0000
  S   S513      1.0  0.52405  0.23194  0.62229  1.0000
  H   H3012     1.0  0.65039  0.02068  0.62937  1.0000
  S   S514      1.0  0.50902  0.28018  0.58991  1.0000
  C   C3767     1.0  0.93210  0.35959  0.70422  1.0000
  Fe  Fe263     1.0  0.50773  0.23977  0.64699  1.0000
  S   S515      1.0  0.52067  0.25131  0.66701  1.0000
  C   C3768     1.0  0.70013  0.11628  0.66533  1.0000
  H   H3013     1.0  0.89634  0.21703  0.66304  1.0000
  Fe  Fe264     1.0  0.76626  0.06680  0.69392  1.0000
  S   S516      1.0  0.74278  0.06079  0.71637  1.0000
  S   S517      1.0  0.77527  0.04672  0.67306  1.0000
  Fe  Fe265     1.0  0.78014  0.10282  0.70741  1.0000
  S   S518      1.0  0.75810  0.09925  0.73116  1.0000
  S   S519      1.0  0.79986  0.12897  0.69893  1.0000
  Fe  Fe266     1.0  0.76811  0.06426  0.73070  1.0000
  S   S520      1.0  0.77497  0.03758  0.75121  1.0000
  Fe  Fe267     1.0  0.73481  0.09624  0.71490  1.0000
  S   S521      1.0  0.70122  0.11278  0.71610  1.0000
  S   S522      1.0  0.79225  0.06815  0.70824  1.0000
  S   S523      1.0  0.75623  0.10198  0.69114  1.0000
  Fe  Fe268     1.0  0.71739  0.40379  0.73085  1.0000
  S   S524      1.0  0.69869  0.39399  0.75530  1.0000
  S   S525      1.0  0.69899  0.42886  0.71416  1.0000
  Fe  Fe269     1.0  0.75629  0.37424  0.73991  1.0000
  S   S526      1.0  0.74054  0.36265  0.76499  1.0000
  S   S527      1.0  0.79037  0.36121  0.73276  1.0000
  Fe  Fe270     1.0  0.71370  0.36093  0.75174  1.0000
  S   S528      1.0  0.69760  0.33195  0.76009  1.0000
  Fe  Fe271     1.0  0.72720  0.39679  0.76630  1.0000
  S   S529      1.0  0.73032  0.37033  0.72640  1.0000
  S   S530      1.0  0.74496  0.40879  0.74207  1.0000
  H   H3014     1.0  0.78138  0.08727  0.59636  1.0000
  H   H3015     1.0  0.97470  0.30382  0.64470  1.0000
  H   H3016     1.0  0.51404  0.13754  0.60281  1.0000
  Fe  Fe272     1.0  0.71979  0.48057  0.62213  1.0000
  C   C3769     1.0  0.53093  0.15483  0.74596  1.0000
  S   S531      1.0  0.73661  0.45521  0.63968  1.0000
  C   C3770     1.0  0.93537  0.34219  0.71638  1.0000
  H   H3017     1.0  0.54601  0.29221  0.77320  1.0000
  S   S532      1.0  0.70708  0.47047  0.60163  1.0000
  C   C3771     1.0  0.77769  0.00165  0.70978  1.0000
  C   C3772     1.0  0.70967  0.43595  0.69349  1.0000
  C   C3773     1.0  0.73003  0.42748  0.68726  1.0000
  C   C3774     1.0  0.73823  0.43390  0.67082  1.0000
  C   C3775     1.0  0.72613  0.44871  0.66050  1.0000
  C   C3776     1.0  0.70591  0.45746  0.66682  1.0000
  C   C3777     1.0  0.69768  0.45097  0.68325  1.0000
  H   H3018     1.0  0.73946  0.41600  0.69509  1.0000
  H   H3019     1.0  0.75396  0.42719  0.66602  1.0000
  H   H3020     1.0  0.69658  0.46904  0.65901  1.0000
  H   H3021     1.0  0.68191  0.45749  0.68801  1.0000
  C   C3778     1.0  0.77929  0.04152  0.77083  1.0000
  C   C3779     1.0  0.78047  0.09434  0.63789  1.0000
  C   C3780     1.0  0.85134  0.32306  0.76554  1.0000
  H   H3022     1.0  0.71078  0.27279  0.77995  1.0000
  H   H3023     1.0  0.78794  0.16679  0.60182  1.0000
  H   H3024     1.0  0.78052  0.07493  0.76480  1.0000
  Fe  Fe273     1.0  0.96916  0.21315  0.62964  1.0000
  C   C3781     1.0  0.75680  0.03613  0.66471  1.0000
  C   C3782     1.0  0.73528  0.04000  0.67030  1.0000
  C   C3783     1.0  0.72103  0.03171  0.66305  1.0000
  C   C3784     1.0  0.55809  0.32684  0.65030  1.0000
  H   H3025     1.0  0.98433  0.27563  0.72577  1.0000
  C   C3785     1.0  0.76397  0.02348  0.65212  1.0000
  H   H3026     1.0  0.72960  0.04955  0.68010  1.0000
  H   H3027     1.0  0.88915  0.25473  0.77214  1.0000
  H   H3028     1.0  0.68925  0.14139  0.64697  1.0000
  H   H3029     1.0  0.61600  0.30637  0.61385  1.0000
  C   C3786     1.0  0.97536  0.27860  0.75134  1.0000
  C   C3787     1.0  0.51567  0.19227  0.77306  1.0000
  C   C3788     1.0  0.63858  0.47211  0.60150  1.0000
  C   C3789     1.0  0.65221  0.45290  0.60275  1.0000
  H   H3030     1.0  0.72470  0.20581  0.72700  1.0000
  H   H3031     1.0  0.73612  0.22520  0.69725  1.0000
  C   C3790     1.0  0.53344  0.02027  0.61311  1.0000
  H   H3032     1.0  0.51489  0.33501  0.62286  1.0000
  C   C3791     1.0  0.51768  0.33030  0.61072  1.0000
  C   C3792     1.0  0.70830  0.37270  0.59893  1.0000
  H   H3033     1.0  0.75121  0.03535  0.59119  1.0000
  C   C3793     1.0  0.52756  0.03662  0.60080  1.0000
  C   C3794     1.0  0.67913  0.17298  0.74054  1.0000
  C   C3795     1.0  0.66689  0.16684  0.73037  1.0000
  C   C3796     1.0  0.67391  0.14840  0.72294  1.0000
  C   C3797     1.0  0.69340  0.13617  0.72533  1.0000
  C   C3798     1.0  0.70586  0.14252  0.73527  1.0000
  C   C3799     1.0  0.69864  0.16076  0.74298  1.0000
  H   H3034     1.0  0.65187  0.17614  0.72837  1.0000
  H   H3035     1.0  0.66420  0.14362  0.71527  1.0000
  H   H3036     1.0  0.72089  0.13325  0.73717  1.0000
  H   H3037     1.0  0.70820  0.16544  0.75082  1.0000
  C   C3800     1.0  0.65738  0.30634  0.72983  1.0000
  C   C3801     1.0  0.66747  0.32386  0.72289  1.0000
  C   C3802     1.0  0.67985  0.33200  0.73200  1.0000
  C   C3803     1.0  0.68195  0.32278  0.74818  1.0000
  C   C3804     1.0  0.67164  0.30548  0.75515  1.0000
  C   C3805     1.0  0.65965  0.29708  0.74596  1.0000
  H   H3038     1.0  0.66584  0.33109  0.71043  1.0000
  H   H3039     1.0  0.68777  0.34533  0.72651  1.0000
  H   H3040     1.0  0.67295  0.29852  0.76774  1.0000
  H   H3041     1.0  0.65200  0.28360  0.75145  1.0000
  C   C3806     1.0  0.58539  0.22858  0.68321  1.0000
  C   C3807     1.0  0.57325  0.24721  0.68776  1.0000
  C   C3808     1.0  0.55384  0.25442  0.68208  1.0000
  C   C3809     1.0  0.54630  0.24298  0.67194  1.0000
  C   C3810     1.0  0.55876  0.22474  0.66687  1.0000
  C   C3811     1.0  0.57833  0.21762  0.67244  1.0000
  H   H3042     1.0  0.57882  0.25600  0.69567  1.0000
  H   H3043     1.0  0.54444  0.26868  0.68584  1.0000
  H   H3044     1.0  0.55310  0.21584  0.65902  1.0000
  H   H3045     1.0  0.58780  0.20329  0.66874  1.0000
  C   C3812     1.0  0.80368  0.28922  0.73458  1.0000
  C   C3813     1.0  0.78298  0.29958  0.73722  1.0000
  C   C3814     1.0  0.77881  0.32157  0.73729  1.0000
  C   C3815     1.0  0.79537  0.33339  0.73441  1.0000
  C   C3816     1.0  0.81612  0.32294  0.73236  1.0000
  C   C3817     1.0  0.82026  0.30082  0.73273  1.0000
  H   H3046     1.0  0.77007  0.29064  0.73892  1.0000
  H   H3047     1.0  0.76275  0.32943  0.73908  1.0000
  H   H3048     1.0  0.82897  0.33201  0.73030  1.0000
  H   H3049     1.0  0.83622  0.29281  0.73103  1.0000
  C   C3818     1.0  0.82883  0.15198  0.73794  1.0000
  C   C3819     1.0  0.81918  0.13373  0.74191  1.0000
  C   C3820     1.0  0.81025  0.12653  0.73001  1.0000
  C   C3821     1.0  0.81102  0.13754  0.71404  1.0000
  C   C3822     1.0  0.82079  0.15572  0.71002  1.0000
  C   C3823     1.0  0.82953  0.16302  0.72199  1.0000
  H   H3050     1.0  0.81837  0.12521  0.75424  1.0000
  H   H3051     1.0  0.80282  0.11244  0.73316  1.0000
  H   H3052     1.0  0.82142  0.16427  0.69766  1.0000
  H   H3053     1.0  0.83679  0.17716  0.71886  1.0000
  C   C3824     1.0  0.97541  0.20903  0.78343  1.0000
  C   C3825     1.0  0.70750  0.40727  0.60666  1.0000
  H   H3054     1.0  0.63803  0.33023  0.59531  1.0000
  C   C3826     1.0  0.75417  0.18761  0.73222  1.0000
  C   C3827     1.0  0.76774  0.06110  0.59216  1.0000
  C   C3828     1.0  0.92395  0.15975  0.65582  1.0000
  H   H3055     1.0  0.60784  0.48738  0.59637  1.0000
  H   H3056     1.0  0.73814  0.47639  0.77674  1.0000
  C   C3829     1.0  0.92975  0.21528  0.66222  1.0000
  C   C3830     1.0  0.94595  0.21495  0.67138  1.0000
  C   C3831     1.0  0.94134  0.21622  0.68831  1.0000
  C   C3832     1.0  0.92054  0.21780  0.69620  1.0000
  C   C3833     1.0  0.90430  0.21807  0.68707  1.0000
  C   C3834     1.0  0.90891  0.21681  0.67010  1.0000
  H   H3057     1.0  0.96206  0.21365  0.66542  1.0000
  H   H3058     1.0  0.95397  0.21584  0.69533  1.0000
  H   H3059     1.0  0.88824  0.21927  0.69307  1.0000
  H   H3060     1.0  0.51187  0.04559  0.60202  1.0000
  H   H3061     1.0  0.77020  0.47903  0.64952  1.0000
  C   C3835     1.0  0.74978  0.01480  0.64512  1.0000
  C   C3836     1.0  0.77002  0.29105  0.70130  1.0000
  H   H3062     1.0  0.94717  0.22415  0.77358  1.0000
  C   C3837     1.0  0.56037  0.27042  0.61061  1.0000
  C   C3838     1.0  0.56251  0.26341  0.62716  1.0000
  C   C3839     1.0  0.56956  0.27623  0.63641  1.0000
  C   C3840     1.0  0.57506  0.29595  0.62906  1.0000
  C   C3841     1.0  0.57210  0.30323  0.61260  1.0000
  P   P124      1.0  0.58261  0.31321  0.64125  1.0000
  C   C3842     1.0  0.59804  0.29961  0.65700  1.0000
  C   C3843     1.0  0.59918  0.33063  0.62823  1.0000
  H   H3063     1.0  0.51034  0.24501  0.70263  1.0000
  C   C3844     1.0  0.61233  0.45418  0.59384  1.0000
  C   C3845     1.0  0.51862  0.24747  0.72636  1.0000
  H   H3064     1.0  0.73027  0.06861  0.63288  1.0000
  C   C3846     1.0  0.80178  0.27425  0.77767  1.0000
  C   C3847     1.0  0.59976  0.31003  0.67017  1.0000
  C   C3848     1.0  0.61194  0.29993  0.68235  1.0000
  C   C3849     1.0  0.62252  0.27940  0.68145  1.0000
  C   C3850     1.0  0.62122  0.26908  0.66824  1.0000
  C   C3851     1.0  0.60926  0.27922  0.65592  1.0000
  H   H3065     1.0  0.88672  0.33262  0.72337  1.0000
  C   C3852     1.0  0.71590  0.09945  0.66895  1.0000
  H   H3066     1.0  0.94783  0.16893  0.63607  1.0000
  H   H3067     1.0  0.74045  0.11476  0.76193  1.0000
  H   H3068     1.0  0.93352  0.25894  0.64479  1.0000
  H   H3069     1.0  0.91708  0.27395  0.77646  1.0000
  C   C3853     1.0  0.81651  0.03476  0.59613  1.0000
  H   H3070     1.0  0.77542  0.47935  0.77536  1.0000
  H   H3071     1.0  0.55824  0.24825  0.63298  1.0000
  H   H3072     1.0  0.57037  0.27086  0.64934  1.0000
  H   H3073     1.0  0.57461  0.31906  0.60695  1.0000
  H   H3074     1.0  0.65643  0.41960  0.60086  1.0000
  H   H3075     1.0  0.78059  0.02038  0.64776  1.0000
  H   H3076     1.0  0.49862  0.12806  0.77545  1.0000
  H   H3077     1.0  0.61861  0.30912  0.76338  1.0000
  S   S533      1.0  0.51041  0.17655  0.61619  1.0000
  H   H3078     1.0  0.59168  0.32598  0.67099  1.0000
  H   H3079     1.0  0.61317  0.30791  0.69257  1.0000
  H   H3080     1.0  0.63167  0.27146  0.69104  1.0000
  H   H3081     1.0  0.62921  0.25300  0.66772  1.0000
  H   H3082     1.0  0.60874  0.27100  0.64569  1.0000
  H   H3083     1.0  0.55559  0.30419  0.67255  1.0000
  C   C3854     1.0  0.94154  0.11815  0.65172  1.0000
  C   C3855     1.0  0.85896  0.34239  0.76043  1.0000
  H   H3084     1.0  0.70438  0.03508  0.66725  1.0000
  C   C3856     1.0  0.92894  0.27397  0.66671  1.0000
  C   C3857     1.0  0.93537  0.28883  0.67463  1.0000
  P   P125      1.0  0.92305  0.29343  0.69518  1.0000
  C   C3858     1.0  0.92685  0.31925  0.69879  1.0000
  C   C3859     1.0  0.89520  0.29250  0.69680  1.0000
  C   C3860     1.0  0.88052  0.31104  0.69472  1.0000
  C   C3861     1.0  0.85914  0.30980  0.69571  1.0000
  C   C3862     1.0  0.85228  0.29010  0.69852  1.0000
  C   C3863     1.0  0.86671  0.27165  0.70070  1.0000
  C   C3864     1.0  0.88801  0.27285  0.69992  1.0000
  C   C3865     1.0  0.93283  0.32209  0.71368  1.0000
  C   C3866     1.0  0.53057  0.23727  0.73875  1.0000
  C   C3867     1.0  0.69639  0.45866  0.76071  1.0000
  C   C3868     1.0  0.51564  0.30455  0.59297  1.0000
  C   C3869     1.0  0.92376  0.33682  0.68659  1.0000
  C   C3870     1.0  0.93421  0.27302  0.71025  1.0000
  C   C3871     1.0  0.95287  0.25956  0.70584  1.0000
  C   C3872     1.0  0.96137  0.24388  0.71762  1.0000
  C   C3873     1.0  0.95142  0.24160  0.73388  1.0000
  C   C3874     1.0  0.93283  0.25490  0.73838  1.0000
  C   C3875     1.0  0.92416  0.27045  0.72660  1.0000
  H   H3085     1.0  0.91665  0.26494  0.67268  1.0000
  H   H3086     1.0  0.95828  0.30999  0.67281  1.0000
  H   H3087     1.0  0.88530  0.32649  0.69238  1.0000
  H   H3088     1.0  0.84782  0.32412  0.69434  1.0000
  H   H3089     1.0  0.83571  0.28911  0.69936  1.0000
  H   H3090     1.0  0.86138  0.25638  0.70302  1.0000
  H   H3091     1.0  0.89895  0.25841  0.70157  1.0000
  H   H3092     1.0  0.93556  0.30894  0.72329  1.0000
  C   C3876     1.0  0.61029  0.36518  0.62020  1.0000
  H   H3093     1.0  0.74652  0.48318  0.67520  1.0000
  C   C3877     1.0  0.54824  0.31848  0.66574  1.0000
  H   H3094     1.0  0.91925  0.33501  0.67497  1.0000
  H   H3095     1.0  0.96063  0.26070  0.69326  1.0000
  C   C3878     1.0  0.52778  0.35415  0.64775  1.0000
  H   H3096     1.0  0.52946  0.10024  0.77310  1.0000
  H   H3097     1.0  0.92480  0.25269  0.75088  1.0000
  H   H3098     1.0  0.90955  0.28032  0.73023  1.0000
  C   C3879     1.0  0.72635  0.48100  0.70591  1.0000
  H   H3099     1.0  0.91413  0.12485  0.77188  1.0000
  S   S534      1.0  0.53234  0.36821  0.60050  1.0000
  C   C3880     1.0  0.60359  0.01633  0.61803  1.0000
  H   H3100     1.0  0.77101  0.12015  0.65243  1.0000
  C   C3881     1.0  0.53269  0.21861  0.71045  1.0000
  C   C3882     1.0  0.71884  0.12372  0.63779  1.0000
  C   C3883     1.0  0.81213  0.07074  0.64443  1.0000
  C   C3884     1.0  0.76048  0.49414  0.65101  1.0000
  C   C3885     1.0  0.87715  0.32983  0.73522  1.0000
  C   C3886     1.0  0.92424  0.12207  0.66382  1.0000
  H   H3101     1.0  0.56556  0.29546  0.74500  1.0000
  C   C3887     1.0  0.61097  0.00443  0.60498  1.0000
  S   S535      1.0  0.70975  0.00940  0.64136  1.0000
  C   C3888     1.0  0.73323  0.09483  0.65708  1.0000
  C   C3889     1.0  0.76121  0.27263  0.70749  1.0000
  H   H3102     1.0  0.53366  0.21152  0.69936  1.0000
  H   H3103     1.0  0.79363  0.06608  0.62671  1.0000
  C   C3890     1.0  0.73894  0.05096  0.61250  1.0000
  H   H3104     1.0  0.73406  0.45130  0.72107  1.0000
  P   P126      1.0  0.50435  0.27370  0.72809  1.0000
  H   H3105     1.0  0.51967  0.36756  0.64045  1.0000
  H   H3106     1.0  0.80491  0.30650  0.76793  1.0000
  C   C3891     1.0  0.70983  0.23594  0.68406  1.0000
  C   C3892     1.0  0.62476  0.35741  0.60742  1.0000
  C   C3893     1.0  0.79533  0.07631  0.63528  1.0000
  H   H3107     1.0  0.97078  0.27976  0.77747  1.0000
  H   H3108     1.0  0.50001  0.28962  0.78505  1.0000
  H   H3109     1.0  0.56011  0.33455  0.70740  1.0000
  H   H3110     1.0  0.62322  0.26939  0.78176  1.0000
  H   H3111     1.0  0.66985  0.23455  0.76713  1.0000
  H   H3112     1.0  0.77465  0.00070  0.68466  1.0000
  C   C3894     1.0  0.78934  0.36941  0.77508  1.0000
  H   H3113     1.0  0.92388  0.37037  0.67985  1.0000
  H   H3114     1.0  0.77511  0.01881  0.70840  1.0000
  H   H3115     1.0  0.52074  0.32136  0.68397  1.0000
  H   H3116     1.0  0.71488  0.09027  0.68113  1.0000
  C   C3895     1.0  0.68903  0.47140  0.74698  1.0000
  H   H3117     1.0  0.96002  0.28742  0.74963  1.0000
  H   H3118     1.0  0.77884  0.00867  0.78065  1.0000
  C   C3896     1.0  0.85737  0.30687  0.75559  1.0000
  C   C3897     1.0  0.55343  0.00826  0.61117  1.0000
  C   C3898     1.0  0.80989  0.29307  0.77678  1.0000
  H   H3119     1.0  0.50007  0.16071  0.72490  1.0000
  C   C3899     1.0  0.57262  0.29847  0.75512  1.0000
  H   H3120     1.0  0.55401  0.21124  0.74601  1.0000
  H   H3121     1.0  0.60182  0.30424  0.74012  1.0000
  S   S536      1.0  0.56613  0.24399  0.76385  1.0000
  H   H3122     1.0  0.55639  0.19495  0.72053  1.0000
  C   C3900     1.0  0.75250  0.04794  0.59794  1.0000
  C   C3901     1.0  0.93855  0.27040  0.65086  1.0000
  C   C3902     1.0  0.87007  0.31035  0.74042  1.0000
  H   H3123     1.0  0.82994  0.06091  0.60084  1.0000
  H   H3124     1.0  0.55437  0.26077  0.60350  1.0000
  C   C3903     1.0  0.98923  0.27185  0.73784  1.0000
  C   C3904     1.0  0.68885  0.25382  0.77534  1.0000
  C   C3905     1.0  0.74726  0.22611  0.72864  1.0000
  C   C3906     1.0  0.72967  0.39601  0.65187  1.0000
  C   C3907     1.0  0.74134  0.38170  0.66265  1.0000
  C   C3908     1.0  0.73127  0.36810  0.67506  1.0000
  C   C3909     1.0  0.70948  0.36894  0.67679  1.0000
  C   C3910     1.0  0.69756  0.38379  0.66635  1.0000
  C   C3911     1.0  0.70787  0.39701  0.65365  1.0000
  P   P127      1.0  0.66941  0.38484  0.66886  1.0000
  C   C3912     1.0  0.66504  0.36311  0.65933  1.0000
  C   C3913     1.0  0.65931  0.38299  0.69055  1.0000
  C   C3914     1.0  0.64078  0.37443  0.69677  1.0000
  C   C3915     1.0  0.63369  0.37206  0.71371  1.0000
  C   C3916     1.0  0.64468  0.37883  0.72446  1.0000
  C   C3917     1.0  0.66252  0.38834  0.71826  1.0000
  C   C3918     1.0  0.66976  0.39054  0.70137  1.0000
  C   C3919     1.0  0.66599  0.36525  0.64213  1.0000
  C   C3920     1.0  0.66254  0.34857  0.63466  1.0000
  C   C3921     1.0  0.65836  0.32953  0.64425  1.0000
  C   C3922     1.0  0.65829  0.32695  0.66128  1.0000
  C   C3923     1.0  0.66192  0.34355  0.66877  1.0000
  C   C3924     1.0  0.65699  0.41014  0.65958  1.0000
  C   C3925     1.0  0.64049  0.41158  0.65032  1.0000
  C   C3926     1.0  0.63178  0.43127  0.64264  1.0000
  C   C3927     1.0  0.63913  0.44966  0.64446  1.0000
  C   C3928     1.0  0.65495  0.44843  0.65418  1.0000
  C   C3929     1.0  0.66368  0.42878  0.66185  1.0000
  H   H3125     1.0  0.73746  0.40684  0.64242  1.0000
  H   H3126     1.0  0.75816  0.38139  0.66152  1.0000
  H   H3127     1.0  0.74031  0.35711  0.68349  1.0000
  H   H3128     1.0  0.70191  0.35829  0.68649  1.0000
  H   H3129     1.0  0.69917  0.40839  0.64527  1.0000
  H   H3130     1.0  0.63199  0.36926  0.68860  1.0000
  H   H3131     1.0  0.61986  0.36468  0.71855  1.0000
  H   H3132     1.0  0.63946  0.37664  0.73760  1.0000
  H   H3133     1.0  0.67094  0.39388  0.72653  1.0000
  H   H3134     1.0  0.68361  0.39803  0.69687  1.0000
  H   H3135     1.0  0.66929  0.37987  0.63449  1.0000
  H   H3136     1.0  0.66306  0.35044  0.62141  1.0000
  H   H3137     1.0  0.65542  0.31669  0.63847  1.0000
  H   H3138     1.0  0.65555  0.31203  0.66872  1.0000
  H   H3139     1.0  0.66238  0.34097  0.68191  1.0000
  H   H3140     1.0  0.63436  0.39762  0.64889  1.0000
  H   H3141     1.0  0.61953  0.43230  0.63505  1.0000
  H   H3142     1.0  0.63266  0.46486  0.63823  1.0000
  H   H3143     1.0  0.66064  0.46269  0.65559  1.0000
  H   H3144     1.0  0.67594  0.42801  0.66932  1.0000
  H   H3145     1.0  0.77244  0.24120  0.73323  1.0000
  C   C3930     1.0  0.70152  0.12832  0.64972  1.0000
  C   C3931     1.0  0.78097  0.20747  0.73564  1.0000
  C   C3932     1.0  0.71295  0.25267  0.74418  1.0000
  H   H3146     1.0  0.60862  0.38172  0.62173  1.0000
  H   H3147     1.0  0.58697  0.02108  0.62156  1.0000
  C   C3933     1.0  0.71393  0.24919  0.70890  1.0000
  H   H3148     1.0  0.78505  0.17345  0.73768  1.0000
  C   C3934     1.0  0.75908  0.31076  0.70468  1.0000
  C   C3935     1.0  0.74223  0.48918  0.78186  1.0000
  C   C3936     1.0  0.76733  0.22640  0.73250  1.0000
  C   C3937     1.0  0.72631  0.06088  0.78485  1.0000
  C   C3938     1.0  0.78260  0.10653  0.64985  1.0000
  C   C3939     1.0  0.54754  0.34448  0.64122  1.0000
  H   H3149     1.0  0.58646  0.35812  0.64047  1.0000
  H   H3150     1.0  0.72709  0.04077  0.61693  1.0000
  C   C3940     1.0  0.69525  0.24232  0.74840  1.0000
  H   H3151     1.0  0.68421  0.49620  0.70848  1.0000
  H   H3152     1.0  0.52260  0.34597  0.71763  1.0000
  C   C3941     1.0  0.96181  0.29565  0.65087  1.0000
  C   C3942     1.0  0.72618  0.04629  0.77421  1.0000
  C   C3943     1.0  0.98131  0.27411  0.76709  1.0000
  C   C3944     1.0  0.59161  0.30396  0.78177  1.0000
  H   H3153     1.0  0.82672  0.07830  0.66374  1.0000
  H   H3154     1.0  0.56143  0.10708  0.75355  1.0000
  C   C3945     1.0  0.68422  0.26412  0.69436  1.0000
  H   H3155     1.0  0.93990  0.34428  0.72792  1.0000
  H   H3156     1.0  0.83293  0.00036  0.64963  1.0000
  C   C3946     1.0  0.76347  0.49080  0.78101  1.0000
  C   C3947     1.0  0.51820  0.34598  0.66324  1.0000
  C   C3948     1.0  0.71028  0.38526  0.61060  1.0000
  C   C3949     1.0  0.52648  0.34362  0.59724  1.0000
  C   C3950     1.0  0.69542  0.26359  0.70742  1.0000
  C   C3951     1.0  0.70990  0.07415  0.75521  1.0000
  C   C3952     1.0  0.80708  0.35395  0.77337  1.0000
  H   H3157     1.0  0.68690  0.46419  0.73658  1.0000
  Fe  Fe274     1.0  0.68045  0.49668  0.60597  1.0000
  C   C3953     1.0  0.60254  0.30600  0.76567  1.0000
  H   H3158     1.0  0.65004  0.48791  0.70492  1.0000
  C   C3954     1.0  0.75141  0.14682  0.58658  1.0000
  H   H3159     1.0  0.68968  0.27450  0.71631  1.0000
  H   H3160     1.0  0.93409  0.37516  0.70632  1.0000
  C   C3955     1.0  0.56518  0.29031  0.60335  1.0000
  C   C3956     1.0  0.61853  0.47262  0.59724  1.0000
  C   C3957     1.0  0.84609  0.11077  0.78423  1.0000
  C   C3958     1.0  0.57104  0.29924  0.78435  1.0000
  C   C3959     1.0  0.87171  0.34580  0.74527  1.0000
  H   H3161     1.0  0.71855  0.04167  0.75096  1.0000
  C   C3960     1.0  0.76535  0.16042  0.58779  1.0000
  C   C3961     1.0  0.78055  0.02406  0.78327  1.0000
  H   H3162     1.0  0.52901  0.18438  0.76573  1.0000
  H   H3163     1.0  0.52235  0.01671  0.62402  1.0000
  C   C3962     1.0  0.76107  0.12468  0.61160  1.0000
  H   H3164     1.0  0.69084  0.23355  0.73980  1.0000
  H   H3165     1.0  0.71535  0.22512  0.67508  1.0000
  H   H3166     1.0  0.73830  0.11869  0.59734  1.0000
  C   C3963     1.0  0.95481  0.28140  0.64287  1.0000
  H   H3167     1.0  0.71418  0.37793  0.62262  1.0000
  C   C3964     1.0  0.74873  0.11851  0.77104  1.0000
  C   C3965     1.0  0.94122  0.15580  0.64377  1.0000
  H   H3168     1.0  0.96219  0.27865  0.63055  1.0000
  C   C3966     1.0  0.74052  0.20652  0.72908  1.0000
  H   H3169     1.0  0.74550  0.08200  0.66023  1.0000
  H   H3170     1.0  0.95779  0.22912  0.74285  1.0000
  C   C3967     1.0  0.62687  0.33619  0.60527  1.0000
  C   C3968     1.0  0.51494  0.31427  0.72263  1.0000
  C   C3969     1.0  0.99767  0.07713  0.59264  1.0000
  H   H3171     1.0  0.66752  0.45224  0.60629  1.0000
  H   H3172     1.0  0.74901  0.17258  0.73220  1.0000
  C   C3970     1.0  0.72820  0.01908  0.65044  1.0000
  C   C3971     1.0  0.51936  0.20548  0.78367  1.0000
  C   C3972     1.0  0.68330  0.24285  0.76395  1.0000
  H   H3173     1.0  0.50268  0.35323  0.66808  1.0000
  H   H3174     1.0  0.68217  0.25010  0.67300  1.0000
  H   H3175     1.0  0.76980  0.25755  0.70456  1.0000
  C   C3973     1.0  0.95426  0.21092  0.78161  1.0000
  H   H3176     1.0  0.68697  0.12006  0.67473  1.0000
  H   H3177     1.0  0.73317  0.02994  0.77715  1.0000
  C   C3974     1.0  0.89638  0.25044  0.78325  1.0000
  H   H3178     1.0  0.98225  0.07330  0.59792  1.0000
  C   C3975     1.0  0.52840  0.32810  0.67220  1.0000
  H   H3179     1.0  0.85469  0.13865  0.67202  1.0000
  C   C3976     1.0  0.73928  0.31207  0.71419  1.0000
  H   H3180     1.0  0.73083  0.32726  0.71702  1.0000
  H   H3181     1.0  0.53008  0.24437  0.74975  1.0000
  H   H3182     1.0  0.56243  0.14205  0.73629  1.0000
  C   C3977     1.0  0.81414  0.08302  0.65627  1.0000
  C   C3978     1.0  0.61427  0.32278  0.61572  1.0000
  C   C3979     1.0  0.73496  0.10700  0.64145  1.0000
  C   C3980     1.0  0.54962  0.32291  0.71160  1.0000
  C   C3981     1.0  0.55721  0.30145  0.71120  1.0000
  C   C3982     1.0  0.54378  0.28634  0.71672  1.0000
  C   C3983     1.0  0.76602  0.12917  0.76576  1.0000
  C   C3984     1.0  0.95003  0.13502  0.64170  1.0000
  C   C3985     1.0  0.88988  0.14986  0.77926  1.0000
  H   H3183     1.0  0.57353  0.29646  0.70664  1.0000
  H   H3184     1.0  0.55010  0.26980  0.71639  1.0000
  C   C3986     1.0  0.78152  0.06137  0.77430  1.0000
  C   C3987     1.0  0.64586  0.43441  0.59972  1.0000
  H   H3185     1.0  0.66989  0.27521  0.69337  1.0000
  C   C3988     1.0  0.89649  0.15490  0.72924  1.0000
  C   C3989     1.0  0.91536  0.16283  0.72793  1.0000
  C   C3990     1.0  0.92768  0.16615  0.71259  1.0000
  C   C3991     1.0  0.92114  0.16163  0.69853  1.0000
  C   C3992     1.0  0.90236  0.15334  0.69979  1.0000
  C   C3993     1.0  0.88995  0.15026  0.71524  1.0000
  P   P128      1.0  0.89312  0.14845  0.68164  1.0000
  C   C3994     1.0  0.87573  0.17157  0.67410  1.0000
  C   C3995     1.0  0.91528  0.14295  0.66594  1.0000
  C   C3996     1.0  0.86495  0.18581  0.68478  1.0000
  C   C3997     1.0  0.85148  0.20366  0.67889  1.0000
  C   C3998     1.0  0.84873  0.20747  0.66229  1.0000
  C   C3999     1.0  0.85935  0.19335  0.65158  1.0000
  C   C4000     1.0  0.87271  0.17540  0.65746  1.0000
  C   C4001     1.0  0.87929  0.12587  0.68713  1.0000
  C   C4002     1.0  0.88667  0.10857  0.69835  1.0000
  C   C4003     1.0  0.87567  0.09133  0.70304  1.0000
  C   C4004     1.0  0.85737  0.09115  0.69645  1.0000
  C   C4005     1.0  0.85020  0.10809  0.68505  1.0000
  C   C4006     1.0  0.86097  0.12547  0.68049  1.0000
  H   H3186     1.0  0.88659  0.15288  0.74100  1.0000
  H   H3187     1.0  0.92014  0.16710  0.73868  1.0000
  H   H3188     1.0  0.94189  0.17310  0.71148  1.0000
  H   H3189     1.0  0.93059  0.16511  0.68672  1.0000
  H   H3190     1.0  0.87495  0.14472  0.71645  1.0000
  H   H3191     1.0  0.91802  0.10878  0.67145  1.0000
  H   H3192     1.0  0.86702  0.18334  0.69762  1.0000
  H   H3193     1.0  0.84328  0.21459  0.68721  1.0000
  H   H3194     1.0  0.83844  0.22141  0.65772  1.0000
  H   H3195     1.0  0.85733  0.19637  0.63868  1.0000
  H   H3196     1.0  0.88078  0.16459  0.64901  1.0000
  H   H3197     1.0  0.90081  0.10851  0.70360  1.0000
  H   H3198     1.0  0.88120  0.07822  0.71192  1.0000
  H   H3199     1.0  0.84855  0.07803  0.70030  1.0000
  H   H3200     1.0  0.83585  0.10806  0.68013  1.0000
  H   H3201     1.0  0.87399  0.29802  0.73258  1.0000
  H   H3202     1.0  0.82308  0.05640  0.64285  1.0000
  C   C4007     1.0  0.84901  0.09924  0.77099  1.0000
  C   C4008     1.0  0.59762  0.35181  0.63068  1.0000
  C   C4009     1.0  0.51272  0.15108  0.75692  1.0000
  C   C4010     1.0  0.76945  0.07722  0.60098  1.0000
  H   H3203     1.0  0.75549  0.00512  0.63541  1.0000
  C   C4011     1.0  0.51249  0.31079  0.60864  1.0000
  P   P129      1.0  0.72938  0.25040  0.72471  1.0000
  H   H3204     1.0  0.51827  0.21633  0.59111  1.0000
  C   C4012     1.0  0.95232  0.29919  0.66675  1.0000
  C   C4013     1.0  0.63937  0.01625  0.62257  1.0000
  H   H3205     1.0  0.70931  0.41714  0.61554  1.0000
  C   C4014     1.0  0.71001  0.08881  0.76579  1.0000
  H   H3206     1.0  0.84992  0.12667  0.78195  1.0000
  C   C4015     1.0  0.69935  0.46783  0.77409  1.0000
  H   H3207     1.0  0.64950  0.16599  0.78144  1.0000
  P   P130      1.0  0.75818  0.10147  0.62668  1.0000
  C   C4016     1.0  0.71871  0.26330  0.75578  1.0000
  S   S537      1.0  0.64601  0.49562  0.60540  1.0000
  H   H3208     1.0  0.85461  0.10648  0.75870  1.0000
  H   H3209     1.0  0.55427  0.35043  0.62888  1.0000
  H   H3210     1.0  0.53169  0.17006  0.73846  1.0000
  H   H3211     1.0  0.96347  0.13208  0.63235  1.0000
  C   C4017     1.0  0.71805  0.05292  0.75939  1.0000
  H   H3212     1.0  0.70381  0.07934  0.74361  1.0000
  Fe  Fe275     1.0  0.50084  0.20919  0.62429  1.0000
  H   H3213     1.0  0.85482  0.35490  0.76812  1.0000
  C   C4018     1.0  0.69121  0.25007  0.68284  1.0000
  C   C4019     1.0  0.73050  0.29370  0.72046  1.0000
  H   H3214     1.0  0.76373  0.42152  0.77791  1.0000
  C   C4020     1.0  0.51234  0.13130  0.76674  1.0000
  C   C4021     1.0  0.56157  0.29667  0.77104  1.0000
  C   C4022     1.0  0.74159  0.27379  0.71745  1.0000
  H   H3215     1.0  0.71504  0.29511  0.72769  1.0000
  C   C4023     1.0  0.62603  0.43503  0.59505  1.0000
  H   H3216     1.0  0.84601  0.06988  0.76319  1.0000
  C   C4024     1.0  0.52984  0.11547  0.76548  1.0000
  C   C4025     1.0  0.72139  0.23577  0.69685  1.0000
  H   H3217     1.0  0.78976  0.14343  0.77308  1.0000
  H   H3218     1.0  0.73258  0.27101  0.75292  1.0000
  H   H3219     1.0  0.77109  0.13317  0.75269  1.0000
  C   C4026     1.0  0.73936  0.49940  0.72989  1.0000
  H   H3220     1.0  0.97530  0.23303  0.71403  1.0000
  C   C4027     1.0  0.77445  0.18809  0.73536  1.0000
  H   H3221     1.0  0.94843  0.10204  0.65013  1.0000
  H   H3222     1.0  0.79659  0.20785  0.73831  1.0000
  C   C4028     1.0  0.54172  0.04110  0.58662  1.0000
  H   H3223     1.0  0.72109  0.47365  0.69689  1.0000
  C   C4029     1.0  0.56759  0.01238  0.59677  1.0000
  C   C4030     1.0  0.74927  0.12902  0.59841  1.0000
  C   C4031     1.0  0.54535  0.20916  0.72245  1.0000
  C   C4032     1.0  0.52851  0.32931  0.71737  1.0000
  H   H3224     1.0  0.78554  0.28997  0.69420  1.0000
  C   C4033     1.0  0.74072  0.06691  0.62146  1.0000
  C   C4034     1.0  0.59307  0.30324  0.75242  1.0000
  C   C4035     1.0  0.54785  0.11932  0.75448  1.0000
  C   C4036     1.0  0.84431  0.07862  0.77351  1.0000
  C   C4037     1.0  0.82888  0.05093  0.59183  1.0000
  H   H3225     1.0  0.70066  0.43374  0.58841  1.0000
  C   C4038     1.0  0.52249  0.29266  0.72237  1.0000
  C   C4039     1.0  0.77716  0.15622  0.60085  1.0000
  C   C4040     1.0  0.90934  0.13703  0.77983  1.0000
  C   C4041     1.0  0.79943  0.10095  0.65893  1.0000
  C   C4042     1.0  0.73368  0.46829  0.71967  1.0000
  H   H3226     1.0  0.70398  0.10525  0.76205  1.0000
  C   C4043     1.0  0.54406  0.21834  0.73672  1.0000
  H   H3227     1.0  0.76620  0.32494  0.70032  1.0000
  C   C4044     1.0  0.70655  0.26405  0.77124  1.0000
  H   H3228     1.0  0.56280  0.29604  0.59069  1.0000
  H   H3229     1.0  0.74565  0.46754  0.74243  1.0000
  H   H3230     1.0  0.59695  0.45477  0.59038  1.0000
  C   C4045     1.0  0.69511  0.48987  0.77383  1.0000
  C   C4046     1.0  0.74017  0.47746  0.73168  1.0000
  C   C4047     1.0  0.51949  0.23778  0.71232  1.0000
  C   C4048     1.0  0.75585  0.08034  0.61565  1.0000
  H   H3231     1.0  0.78523  0.38059  0.76447  1.0000
  H   H3232     1.0  0.80601  0.00900  0.58797  1.0000
  H   H3233     1.0  0.81618  0.35331  0.76130  1.0000
  H   H3234     1.0  0.78441  0.13556  0.62267  1.0000
  H   H3235     1.0  0.85209  0.29164  0.75936  1.0000
  C   C4049     1.0  0.70269  0.41673  0.59111  1.0000
  H   H3236     1.0  0.71964  0.13342  0.62590  1.0000
  H   H3237     1.0  0.80770  0.03237  0.60838  1.0000
  C   C4050     1.0  0.54840  0.13900  0.74474  1.0000
  C   C4051     1.0  0.61777  0.02222  0.62676  1.0000
  S   S538      1.0  0.98939  0.23505  0.63500  1.0000
  H   H3238     1.0  0.79084  0.27319  0.76945  1.0000
  H   H3239     1.0  0.70510  0.45767  0.78462  1.0000
  H   H3240     1.0  0.50863  0.28200  0.69222  1.0000
  H   H3241     1.0  0.63428  0.36789  0.59915  1.0000
  H   H3242     1.0  0.51474  0.29185  0.75563  1.0000
  H   H3243     1.0  0.71063  0.35562  0.60194  1.0000
  S   S539      1.0  0.61912  0.41140  0.59099  1.0000
  C   C4052     1.0  0.77506  0.13843  0.61272  1.0000
  H   H3244     1.0  0.87951  0.14773  0.77092  1.0000
  H   H3245     1.0  0.61202  0.03138  0.63682  1.0000
  H   H3246     1.0  0.69990  0.44162  0.76101  1.0000
  H   H3247     1.0  0.99590  0.26053  0.66180  1.0000
  C   C4053     1.0  0.74680  0.49657  0.66562  1.0000
  H   H3248     1.0  0.99757  0.29245  0.67420  1.0000
  C   C4054     1.0  0.50144  0.28357  0.76006  1.0000
  S   S540      1.0  0.99405  0.18473  0.63160  1.0000
  H   H3249     1.0  0.87718  0.36092  0.74126  1.0000
  H   H3250     1.0  0.62705  0.37247  0.76920  1.0000
  S   S541      1.0  0.55720  0.41983  0.58723  1.0000
  C   C4055     1.0  0.63145  0.35788  0.77708  1.0000
  H   H3251     1.0  0.80959  0.18350  0.78419  1.0000
  C   C4056     1.0  0.61725  0.34346  0.78234  1.0000
  H   H3252     1.0  0.53529  0.20768  0.78435  1.0000
  H   H3253     1.0  0.68369  0.17574  0.78382  1.0000
  C   C4057     1.0  0.71812  0.08229  0.78079  1.0000
  H   H3254     1.0  0.66272  0.36424  0.77748  1.0000
  H   H3255     1.0  0.50601  0.30063  0.61918  1.0000
  S   S542      1.0  0.99504  0.27462  0.59567  1.0000
  Fe  Fe276     1.0  0.49914  0.25664  0.61206  1.0000
  C   C4058     1.0  0.68476  0.49337  0.74661  1.0000
  H   H3256     1.0  0.60182  0.34711  0.77849  1.0000
  C   C4059     1.0  0.77654  0.13491  0.77728  1.0000
  C   C4060     1.0  0.65145  0.35336  0.78186  1.0000
  P   P131      1.0  0.83501  0.31888  0.78519  1.0000
  C   C4061     1.0  0.65910  0.49663  0.69479  1.0000
  C   C4062     1.0  0.64682  0.00447  0.60960  1.0000
  C   C4063     1.0  0.66225  0.15372  0.78477  1.0000
  C   C4064     1.0  0.56270  0.24551  0.78511  1.0000
  H   H3257     1.0  0.49852  0.31945  0.72680  1.0000
  H   H3258     1.0  0.63643  0.49918  0.67816  1.0000
  C   C4065     1.0  0.62584  0.26541  0.79446  1.0000
  Fe  Fe277     1.0  0.51861  0.24930  0.85353  1.0000
  S   S543      1.0  0.55170  0.25040  0.84034  1.0000
  C   C4066     1.0  0.83823  0.10180  0.80012  1.0000
  C   C4067     1.0  0.82065  0.15427  0.79872  1.0000
  S   S544      1.0  0.95537  0.24365  0.84832  1.0000
  C   C4068     1.0  0.78655  0.04601  0.80253  1.0000
  Fe  Fe278     1.0  0.96200  0.25769  0.82177  1.0000
  H   H3259     1.0  0.78679  0.44001  0.78987  1.0000
  S   S545      1.0  0.53500  0.35327  0.97414  1.0000
  C   C4069     1.0  0.50130  0.28469  0.96352  1.0000
  C   C4070     1.0  0.87751  0.11427  0.81897  1.0000
  C   C4071     1.0  0.82224  0.25811  0.79945  1.0000
  S   S546      1.0  0.52285  0.38805  0.94295  1.0000
  Fe  Fe279     1.0  0.51933  0.35415  0.95185  1.0000
  S   S547      1.0  0.53226  0.32918  0.93497  1.0000
  Fe  Fe280     1.0  0.53646  0.38791  0.96612  1.0000
  S   S548      1.0  0.56658  0.40266  0.96108  1.0000
  C   C4072     1.0  0.91832  0.19587  0.85200  1.0000
  C   C4073     1.0  0.87676  0.08721  0.84873  1.0000
  C   C4074     1.0  0.49832  0.26553  0.97351  1.0000
  C   C4075     1.0  0.83565  0.44379  0.88501  1.0000
  C   C4076     1.0  0.92141  0.25608  0.80020  1.0000
  S   S549      1.0  0.98075  0.42251  0.92660  1.0000
  C   C4077     1.0  0.51621  0.01309  0.97374  1.0000
  H   H3260     1.0  0.50567  0.21767  0.93685  1.0000
  S   S550      1.0  0.99368  0.02667  0.90298  1.0000
  H   H3261     1.0  0.56341  0.26095  0.92625  1.0000
  C   C4078     1.0  0.80799  0.25676  0.78896  1.0000
  Fe  Fe281     1.0  0.93900  0.09197  0.91066  1.0000
  S   S551      1.0  0.90778  0.08063  0.91960  1.0000
  S   S552      1.0  0.93929  0.12746  0.90809  1.0000
  Fe  Fe282     1.0  0.96219  0.04663  0.90966  1.0000
  S   S553      1.0  0.93273  0.03245  0.91840  1.0000
  H   H3262     1.0  0.69334  0.03113  0.90930  1.0000
  Fe  Fe283     1.0  0.91811  0.05826  0.90077  1.0000
  S   S554      1.0  0.90136  0.05128  0.88104  1.0000
  Fe  Fe284     1.0  0.92554  0.05580  0.93651  1.0000
  S   S555      1.0  0.91499  0.04215  0.96291  1.0000
  S   S556      1.0  0.94805  0.07133  0.89067  1.0000
  S   S557      1.0  0.95604  0.06847  0.92897  1.0000
  C   C4079     1.0  0.63598  0.24518  0.79975  1.0000
  H   H3263     1.0  0.97633  0.19534  0.90462  1.0000
  S   S558      1.0  0.78605  0.47826  0.86158  1.0000
  C   C4080     1.0  0.57358  0.06127  0.92433  1.0000
  H   H3264     1.0  0.76262  0.38186  0.79150  1.0000
  S   S559      1.0  0.78078  0.46051  0.81887  1.0000
  S   S560      1.0  0.74482  0.47994  0.89930  1.0000
  S   S561      1.0  0.79115  0.04909  0.82229  1.0000
  C   C4081     1.0  0.84009  0.46380  0.87767  1.0000
  C   C4082     1.0  0.70073  0.01595  0.91460  1.0000
  S   S562      1.0  0.77777  0.02994  0.86816  1.0000
  S   S563      1.0  0.86857  0.22205  0.79310  1.0000
  C   C4083     1.0  0.76398  0.44716  0.81086  1.0000
  C   C4084     1.0  0.74389  0.44473  0.81896  1.0000
  C   C4085     1.0  0.73093  0.43402  0.81230  1.0000
  C   C4086     1.0  0.73794  0.42558  0.79747  1.0000
  C   C4087     1.0  0.99147  0.30005  0.87471  1.0000
  C   C4088     1.0  0.77113  0.43847  0.79612  1.0000
  H   H3265     1.0  0.73858  0.45072  0.83055  1.0000
  P   P132      1.0  0.99532  0.49469  0.96924  1.0000
  H   H3266     1.0  0.91600  0.10816  0.98459  1.0000
  H   H3267     1.0  0.82997  0.07279  0.81496  1.0000
  C   C4089     1.0  0.62972  0.04956  0.88116  1.0000
  H   H3268     1.0  0.82728  0.24447  0.80808  1.0000
  C   C4090     1.0  0.69849  0.09182  0.82681  1.0000
  H   H3269     1.0  0.91042  0.45093  0.94567  1.0000
  H   H3270     1.0  0.51455  0.10997  0.88237  1.0000
  C   C4091     1.0  0.82649  0.18876  0.80300  1.0000
  C   C4092     1.0  0.90603  0.45597  0.92017  1.0000
  P   P133      1.0  0.50063  0.24169  0.96434  1.0000
  C   C4093     1.0  0.54221  0.24933  0.79343  1.0000
  H   H3271     1.0  0.64701  0.22379  0.82029  1.0000
  C   C4094     1.0  0.51928  0.02035  0.95677  1.0000
  C   C4095     1.0  0.55087  0.25141  0.92868  1.0000
  C   C4096     1.0  0.53665  0.25208  0.94322  1.0000
  Fe  Fe285     1.0  0.97995  0.26238  0.85239  1.0000
  H   H3272     1.0  0.68471  0.10218  0.82311  1.0000
  H   H3273     1.0  0.94955  0.45727  0.93531  1.0000
  C   C4097     1.0  0.84325  0.01799  0.89235  1.0000
  C   C4098     1.0  0.88005  0.31963  0.82242  1.0000
  H   H3274     1.0  0.87710  0.49953  0.90148  1.0000
  C   C4099     1.0  0.95925  0.46283  0.92415  1.0000
  C   C4100     1.0  0.91541  0.05755  0.97850  1.0000
  C   C4101     1.0  0.91644  0.07921  0.97477  1.0000
  C   C4102     1.0  0.50104  0.09412  0.92326  1.0000
  H   H3275     1.0  0.54332  0.05125  0.92769  1.0000
  H   H3276     1.0  0.91759  0.08671  0.96209  1.0000
  C   C4103     1.0  0.62299  0.32441  0.79246  1.0000
  H   H3277     1.0  0.89755  0.29184  0.81300  1.0000
  C   C4104     1.0  0.87920  0.03816  0.88579  1.0000
  C   C4105     1.0  0.87130  0.03102  0.90204  1.0000
  C   C4106     1.0  0.60607  0.43557  0.97589  1.0000
  S   S564      1.0  0.51219  0.12206  0.98122  1.0000
  C   C4107     1.0  0.85111  0.02523  0.87614  1.0000
  C   C4108     1.0  0.86920  0.03500  0.87287  1.0000
  H   H3278     1.0  0.87906  0.03319  0.91205  1.0000
  S   S565      1.0  0.98403  0.18281  0.84610  1.0000
  S   S566      1.0  0.98761  0.23164  0.81511  1.0000
  H   H3279     1.0  0.87550  0.04002  0.86024  1.0000
  H   H3280     1.0  0.50603  0.46543  0.98134  1.0000
  C   C4109     1.0  0.88935  0.23473  0.79550  1.0000
  H   H3281     1.0  0.83393  0.05316  0.79144  1.0000
  C   C4110     1.0  0.73465  0.07548  0.82101  1.0000
  H   H3282     1.0  0.53672  0.43254  0.94114  1.0000
  H   H3283     1.0  0.82484  0.20575  0.79944  1.0000
  H   H3284     1.0  0.78386  0.44753  0.95407  1.0000
  S   S567      1.0  0.72393  0.01470  0.88397  1.0000
  C   C4111     1.0  0.85068  0.42964  0.89305  1.0000
  H   H3285     1.0  0.97246  0.42591  0.88988  1.0000
  H   H3286     1.0  0.50679  0.44704  0.92560  1.0000
  C   C4112     1.0  0.89084  0.48065  0.93944  1.0000
  H   H3287     1.0  0.98490  0.49673  0.93582  1.0000
  C   C4113     1.0  0.59538  0.42606  0.96637  1.0000
  C   C4114     1.0  0.89706  0.46980  0.90746  1.0000
  C   C4115     1.0  0.49822  0.02185  0.98354  1.0000
  H   H3288     1.0  0.60022  0.42706  0.95321  1.0000
  H   H3289     1.0  0.61910  0.44367  0.97006  1.0000
  H   H3290     1.0  0.82843  0.47488  0.87155  1.0000
  H   H3291     1.0  0.84431  0.08745  0.84743  1.0000
  C   C4116     1.0  0.95926  0.17728  0.87657  1.0000
  C   C4117     1.0  0.94955  0.16469  0.89016  1.0000
  C   C4118     1.0  0.95139  0.14266  0.89058  1.0000
  C   C4119     1.0  0.96280  0.13333  0.87716  1.0000
  H   H3292     1.0  0.87645  0.16923  0.85984  1.0000
  H   H3293     1.0  0.95792  0.19417  0.87644  1.0000
  H   H3294     1.0  0.94071  0.17202  0.90049  1.0000
  H   H3295     1.0  0.67333  0.44880  0.85047  1.0000
  H   H3296     1.0  0.87637  0.07676  0.86024  1.0000
  C   C4120     1.0  0.92872  0.18759  0.83784  1.0000
  P   P134      1.0  0.83500  0.11630  0.81744  1.0000
  C   C4121     1.0  0.75997  0.42774  0.96213  1.0000
  C   C4122     1.0  0.85212  0.31896  0.80020  1.0000
  C   C4123     1.0  0.55570  0.24833  0.81912  1.0000
  C   C4124     1.0  0.57624  0.24476  0.81075  1.0000
  Fe  Fe286     1.0  0.78809  0.02129  0.84266  1.0000
  C   C4125     1.0  0.63793  0.05527  0.86468  1.0000
  H   H3297     1.0  0.71544  0.43210  0.81875  1.0000
  C   C4126     1.0  0.53869  0.25066  0.81039  1.0000
  H   H3298     1.0  0.58944  0.24296  0.81745  1.0000
  C   C4127     1.0  0.89946  0.18932  0.85989  1.0000
  H   H3299     1.0  0.52283  0.25363  0.81670  1.0000
  H   H3300     1.0  0.54136  0.29888  0.91212  1.0000
  H   H3301     1.0  0.53095  0.21636  0.91147  1.0000
  C   C4128     1.0  0.52449  0.30323  0.91433  1.0000
  C   C4129     1.0  0.51565  0.31822  0.92495  1.0000
  C   C4130     1.0  0.81245  0.33933  0.78703  1.0000
  H   H3302     1.0  0.60545  0.06687  0.92097  1.0000
  H   H3303     1.0  0.87794  0.12456  0.80736  1.0000
  H   H3304     1.0  0.68326  0.08366  0.85159  1.0000
  C   C4131     1.0  0.80342  0.49845  0.94213  1.0000
  C   C4132     1.0  0.97250  0.14591  0.86357  1.0000
  C   C4133     1.0  0.71704  0.08884  0.81563  1.0000
  C   C4134     1.0  0.72141  0.49014  0.91113  1.0000
  H   H3305     1.0  0.88164  0.42438  0.90000  1.0000
  H   H3306     1.0  0.89315  0.21738  0.81955  1.0000
  C   C4135     1.0  0.51163  0.29382  0.90651  1.0000
  H   H3307     1.0  0.59575  0.00493  0.91361  1.0000
  H   H3308     1.0  0.73317  0.41174  0.97126  1.0000
  C   C4136     1.0  0.73912  0.42670  0.96907  1.0000
  C   C4137     1.0  0.98578  0.31448  0.88622  1.0000
  H   H3309     1.0  0.77771  0.13469  0.80305  1.0000
  C   C4138     1.0  0.97389  0.09765  0.83204  1.0000
  C   C4139     1.0  0.56005  0.04683  0.92425  1.0000
  C   C4140     1.0  0.85338  0.02087  0.90530  1.0000
  C   C4141     1.0  0.91483  0.23994  0.81227  1.0000
  C   C4142     1.0  0.52365  0.44336  0.94633  1.0000
  H   H3310     1.0  0.96917  0.03440  0.95642  1.0000
  H   H3311     1.0  0.78723  0.07889  0.79267  1.0000
  C   C4143     1.0  0.94489  0.12574  0.83698  1.0000
  C   C4144     1.0  0.83042  0.27690  0.79858  1.0000
  H   H3312     1.0  0.89244  0.18193  0.80709  1.0000
  S   S568      1.0  0.93971  0.27138  0.80338  1.0000
  H   H3313     1.0  0.51859  0.28230  0.89834  1.0000
  C   C4145     1.0  0.63278  0.25421  0.82727  1.0000
  H   H3314     1.0  0.56243  0.29681  0.79662  1.0000
  H   H3315     1.0  0.78999  0.12066  0.87109  1.0000
  S   S569      1.0  0.97426  0.28207  0.87351  1.0000
  C   C4146     1.0  0.89095  0.17447  0.85360  1.0000
  H   H3316     1.0  0.68620  0.02510  0.86418  1.0000
  H   H3317     1.0  0.72760  0.46800  0.93277  1.0000
  H   H3318     1.0  0.59555  0.24030  0.78742  1.0000
  H   H3319     1.0  0.78502  0.01268  0.80853  1.0000
  C   C4147     1.0  0.85841  0.09367  0.84157  1.0000
  Fe  Fe287     1.0  0.80262  0.00361  0.87619  1.0000
  H   H3320     1.0  0.89087  0.31980  0.83097  1.0000
  Fe  Fe288     1.0  0.50854  0.09053  0.97529  1.0000
  H   H3321     1.0  0.74917  0.07307  0.81269  1.0000
  C   C4148     1.0  0.85912  0.09948  0.95902  1.0000
  C   C4149     1.0  0.86589  0.07772  0.96196  1.0000
  C   C4150     1.0  0.86490  0.06490  0.95021  1.0000
  C   C4151     1.0  0.85690  0.07378  0.93560  1.0000
  C   C4152     1.0  0.84937  0.09554  0.93280  1.0000
  C   C4153     1.0  0.85103  0.10842  0.94444  1.0000
  P   P135      1.0  0.84040  0.10726  0.91347  1.0000
  C   C4154     1.0  0.86324  0.11579  0.90046  1.0000
  C   C4155     1.0  0.82834  0.08877  0.90541  1.0000
  C   C4156     1.0  0.82924  0.08918  0.88835  1.0000
  C   C4157     1.0  0.81921  0.07516  0.88236  1.0000
  C   C4158     1.0  0.80795  0.06103  0.89330  1.0000
  C   C4159     1.0  0.80662  0.06082  0.91024  1.0000
  C   C4160     1.0  0.81657  0.07478  0.91630  1.0000
  C   C4161     1.0  0.86965  0.13483  0.90220  1.0000
  C   C4162     1.0  0.88844  0.14057  0.89333  1.0000
  C   C4163     1.0  0.90104  0.12728  0.88280  1.0000
  C   C4164     1.0  0.89494  0.10818  0.88122  1.0000
  C   C4165     1.0  0.87615  0.10240  0.89006  1.0000
  C   C4166     1.0  0.81981  0.12931  0.91633  1.0000
  C   C4167     1.0  0.80521  0.12888  0.93077  1.0000
  C   C4168     1.0  0.78891  0.14576  0.93281  1.0000
  C   C4169     1.0  0.78693  0.16304  0.92037  1.0000
  C   C4170     1.0  0.80115  0.16337  0.90581  1.0000
  C   C4171     1.0  0.81745  0.14650  0.90373  1.0000
  H   H3322     1.0  0.86064  0.10946  0.96791  1.0000
  S   S570      1.0  0.73947  0.49622  0.85044  1.0000
  H   H3323     1.0  0.87103  0.04819  0.95222  1.0000
  H   H3324     1.0  0.85706  0.06373  0.92635  1.0000
  H   H3325     1.0  0.84642  0.12539  0.94216  1.0000
  H   H3326     1.0  0.83763  0.10024  0.87968  1.0000
  H   H3327     1.0  0.82018  0.07499  0.86926  1.0000
  H   H3328     1.0  0.80052  0.04992  0.88866  1.0000
  H   H3329     1.0  0.79807  0.04958  0.91864  1.0000
  H   H3330     1.0  0.81509  0.07454  0.92949  1.0000
  H   H3331     1.0  0.86060  0.14486  0.91087  1.0000
  H   H3332     1.0  0.89384  0.15481  0.89518  1.0000
  H   H3333     1.0  0.91602  0.13137  0.87651  1.0000
  H   H3334     1.0  0.90532  0.09731  0.87384  1.0000
  H   H3335     1.0  0.87227  0.08702  0.88941  1.0000
  H   H3336     1.0  0.80636  0.11546  0.94043  1.0000
  H   H3337     1.0  0.77776  0.14540  0.94402  1.0000
  H   H3338     1.0  0.79949  0.17669  0.89612  1.0000
  H   H3339     1.0  0.82815  0.14684  0.89229  1.0000
  C   C4172     1.0  0.89560  0.09383  0.84091  1.0000
  H   H3340     1.0  0.97071  0.31485  0.89393  1.0000
  C   C4173     1.0  0.76759  0.44710  0.95927  1.0000
  P   P136      1.0  0.63183  0.02745  0.91293  1.0000
  H   H3341     1.0  0.92512  0.20719  0.85695  1.0000
  C   C4174     1.0  0.58671  0.34599  0.96009  1.0000
  C   C4175     1.0  0.58128  0.32689  0.95769  1.0000
  C   C4176     1.0  0.50256  0.21577  0.79352  1.0000
  S   S571      1.0  0.82121  0.00473  0.89675  1.0000
  H   H3342     1.0  0.55768  0.01532  0.92036  1.0000
  C   C4177     1.0  0.90132  0.16613  0.83943  1.0000
  C   C4178     1.0  0.63621  0.03932  0.94271  1.0000
  H   H3343     1.0  0.53300  0.01393  0.94895  1.0000
  C   C4179     1.0  0.97918  0.10802  0.81616  1.0000
  H   H3344     1.0  0.79716  0.09686  0.81639  1.0000
  C   C4180     1.0  0.65704  0.05564  0.91873  1.0000
  H   H3345     1.0  0.97525  0.06347  0.97513  1.0000
  H   H3346     1.0  0.71338  0.14819  0.79013  1.0000
  H   H3347     1.0  0.98151  0.13855  0.85332  1.0000
  H   H3348     1.0  0.74716  0.05403  0.84096  1.0000
  C   C4181     1.0  0.68159  0.15922  0.78612  1.0000
  S   S572      1.0  0.50511  0.39847  0.98048  1.0000
  Fe  Fe289     1.0  0.77137  0.48294  0.83831  1.0000
  H   H3349     1.0  0.89159  0.19568  0.87095  1.0000
  C   C4182     1.0  0.83764  0.17932  0.81595  1.0000
  C   C4183     1.0  0.56817  0.02661  0.92024  1.0000
  H   H3350     1.0  0.97704  0.22895  0.88536  1.0000
  C   C4184     1.0  0.88140  0.49419  0.92696  1.0000
  H   H3351     1.0  0.82094  0.12726  0.85053  1.0000
  H   H3352     1.0  0.65336  0.45398  0.82680  1.0000
  H   H3353     1.0  0.58702  0.35906  0.95010  1.0000
  H   H3354     1.0  0.57745  0.32513  0.94581  1.0000
  H   H3355     1.0  0.74715  0.11600  0.81250  1.0000
  H   H3356     1.0  0.68039  0.01584  0.93799  1.0000
  C   C4185     1.0  0.95070  0.17950  0.80173  1.0000
  C   C4186     1.0  0.64172  0.03470  0.89151  1.0000
  H   H3357     1.0  0.61407  0.05675  0.88574  1.0000
  H   H3358     1.0  0.82053  0.43934  0.88449  1.0000
  H   H3359     1.0  0.93192  0.13234  0.84540  1.0000
  C   C4187     1.0  0.79917  0.33972  0.80214  1.0000
  C   C4188     1.0  0.78141  0.35517  0.80378  1.0000
  C   C4189     1.0  0.79173  0.11546  0.85913  1.0000
  H   H3360     1.0  0.53065  0.09346  0.90739  1.0000
  H   H3361     1.0  0.73328  0.05526  0.79597  1.0000
  C   C4190     1.0  0.98404  0.47705  0.89511  1.0000
  C   C4191     1.0  0.51983  0.24046  0.94609  1.0000
  C   C4192     1.0  0.54873  0.23870  0.91715  1.0000
  C   C4193     1.0  0.98910  0.45642  0.90317  1.0000
  C   C4194     1.0  0.78402  0.02630  0.79908  1.0000
  C   C4195     1.0  0.53256  0.22640  0.92029  1.0000
  C   C4196     1.0  0.95440  0.48359  0.91624  1.0000
  P   P137      1.0  0.93445  0.16095  0.81374  1.0000
  C   C4197     1.0  0.55889  0.30595  0.83916  1.0000
  C   C4198     1.0  0.55553  0.32691  0.84223  1.0000
  C   C4199     1.0  0.56708  0.34161  0.83218  1.0000
  C   C4200     1.0  0.58201  0.33536  0.81906  1.0000
  C   C4201     1.0  0.58558  0.31425  0.81597  1.0000
  C   C4202     1.0  0.57383  0.29966  0.82611  1.0000
  C   C4203     1.0  0.51819  0.22723  0.93470  1.0000
  C   C4204     1.0  0.67812  0.45898  0.83926  1.0000
  C   C4205     1.0  0.61870  0.28004  0.80562  1.0000
  C   C4206     1.0  0.62252  0.27440  0.82203  1.0000
  C   C4207     1.0  0.83216  0.14461  0.81149  1.0000
  P   P138      1.0  0.60461  0.30579  0.79899  1.0000
  H   H3362     1.0  0.57638  0.00287  0.96939  1.0000
  P   P139      1.0  0.76425  0.49059  0.95958  1.0000
  C   C4208     1.0  0.66689  0.46189  0.82593  1.0000
  C   C4209     1.0  0.65723  0.33452  0.79198  1.0000
  C   C4210     1.0  0.95672  0.10649  0.84242  1.0000
  H   H3363     1.0  0.67425  0.10018  0.79217  1.0000
  C   C4211     1.0  0.72593  0.44498  0.97326  1.0000
  C   C4212     1.0  0.94810  0.00761  0.87795  1.0000
  C   C4213     1.0  0.57864  0.41512  0.97372  1.0000
  C   C4214     1.0  0.69757  0.08130  0.84300  1.0000
  H   H3364     1.0  0.77124  0.35553  0.81546  1.0000
  C   C4215     1.0  0.74192  0.11326  0.78790  1.0000
  H   H3365     1.0  0.50476  0.28544  0.95026  1.0000
  H   H3366     1.0  0.54991  0.29449  0.84688  1.0000
  H   H3367     1.0  0.54397  0.33169  0.85240  1.0000
  H   H3368     1.0  0.56448  0.35786  0.83460  1.0000
  H   H3369     1.0  0.59075  0.34702  0.81150  1.0000
  H   H3370     1.0  0.57621  0.28334  0.82395  1.0000
  H   H3371     1.0  0.61735  0.28549  0.83084  1.0000
  C   C4216     1.0  0.71505  0.06759  0.84808  1.0000
  C   C4217     1.0  0.93644  0.48380  0.96615  1.0000
  H   H3372     1.0  0.56723  0.07673  0.92793  1.0000
  S   S573      1.0  0.72087  0.41221  0.78976  1.0000
  C   C4218     1.0  0.63941  0.23956  0.81616  1.0000
  C   C4219     1.0  0.88382  0.30383  0.81226  1.0000
  C   C4220     1.0  0.89716  0.16894  0.79992  1.0000
  C   C4221     1.0  0.69581  0.46887  0.83802  1.0000
  C   C4222     1.0  0.80927  0.11909  0.84747  1.0000
  H   H3373     1.0  0.64465  0.12823  0.78594  1.0000
  C   C4223     1.0  0.79615  0.10195  0.82829  1.0000
  C   C4224     1.0  0.88447  0.48881  0.91103  1.0000
  H   H3374     1.0  0.99456  0.29853  0.92273  1.0000
  C   C4225     1.0  0.97638  0.44909  0.91748  1.0000
  H   H3375     1.0  0.69525  0.48202  0.95023  1.0000
  H   H3376     1.0  0.55955  0.23839  0.90578  1.0000
  H   H3377     1.0  0.90994  0.08810  0.84628  1.0000
  C   C4226     1.0  0.90305  0.46150  0.93606  1.0000
  H   H3378     1.0  0.84453  0.18912  0.82234  1.0000
  Fe  Fe290     1.0  0.75498  0.49430  0.87310  1.0000
  C   C4227     1.0  0.89599  0.10739  0.82601  1.0000
  H   H3379     1.0  0.88877  0.48507  0.95169  1.0000
  C   C4228     1.0  0.83490  0.08058  0.80271  1.0000
  C   C4229     1.0  0.79780  0.48201  0.91433  1.0000
  H   H3380     1.0  0.66209  0.05812  0.90559  1.0000
  C   C4230     1.0  0.59527  0.05549  0.92055  1.0000
  H   H3381     1.0  0.91065  0.11231  0.81984  1.0000
  H   H3382     1.0  0.60550  0.11019  0.97457  1.0000
  H   H3383     1.0  0.62479  0.02905  0.94820  1.0000
  C   C4231     1.0  0.64433  0.05027  0.95275  1.0000
  C   C4232     1.0  0.65897  0.06373  0.94585  1.0000
  C   C4233     1.0  0.66524  0.06652  0.92883  1.0000
  H   H3384     1.0  0.94351  0.19267  0.83214  1.0000
  H   H3385     1.0  0.84717  0.41419  0.89888  1.0000
  H   H3386     1.0  0.63934  0.04827  0.96592  1.0000
  H   H3387     1.0  0.84344  0.02303  0.86609  1.0000
  C   C4234     1.0  0.85857  0.10762  0.82680  1.0000
  H   H3388     1.0  0.87248  0.07087  0.97313  1.0000
  H   H3389     1.0  0.80257  0.32806  0.81266  1.0000
  C   C4235     1.0  0.81640  0.48971  0.91465  1.0000
  C   C4236     1.0  0.52326  0.44841  0.96209  1.0000
  C   C4237     1.0  0.55645  0.06367  0.97156  1.0000
  H   H3390     1.0  0.83564  0.34783  0.80928  1.0000
  H   H3391     1.0  0.64806  0.30549  0.80496  1.0000
  C   C4238     1.0  0.57256  0.04744  0.96717  1.0000
  C   C4239     1.0  0.98959  0.22311  0.89277  1.0000
  H   H3392     1.0  0.70985  0.44417  0.97887  1.0000
  C   C4240     1.0  0.64309  0.32006  0.79729  1.0000
  C   C4241     1.0  0.71687  0.48111  0.92761  1.0000
  C   C4242     1.0  0.78208  0.48233  0.92795  1.0000
  H   H3393     1.0  0.77023  0.41355  0.95893  1.0000
  H   H3394     1.0  0.66541  0.07198  0.95373  1.0000
  H   H3395     1.0  0.67658  0.07698  0.92346  1.0000
  H   H3396     1.0  0.67180  0.01468  0.89306  1.0000
  H   H3397     1.0  0.53872  0.26186  0.95203  1.0000
  H   H3398     1.0  0.82855  0.48961  0.90406  1.0000
  H   H3399     1.0  0.67296  0.33091  0.79531  1.0000
  C   C4243     1.0  0.89859  0.22947  0.81001  1.0000
  H   H3400     1.0  0.70478  0.46627  0.84825  1.0000
  C   C4244     1.0  0.93620  0.40908  0.87208  1.0000
  C   C4245     1.0  0.95524  0.40919  0.87765  1.0000
  C   C4246     1.0  0.95762  0.42577  0.88568  1.0000
  C   C4247     1.0  0.94092  0.44209  0.88837  1.0000
  C   C4248     1.0  0.92143  0.44158  0.88351  1.0000
  C   C4249     1.0  0.91941  0.42533  0.87483  1.0000
  P   P140      1.0  0.90001  0.46282  0.88698  1.0000
  H   H3401     1.0  0.84730  0.01529  0.91787  1.0000
  C   C4250     1.0  0.90597  0.48486  0.87162  1.0000
  H   H3402     1.0  0.76327  0.10146  0.86461  1.0000
  H   H3403     1.0  0.62857  0.06664  0.85669  1.0000
  C   C4251     1.0  0.77880  0.09811  0.84004  1.0000
  H   H3404     1.0  0.84137  0.27745  0.80687  1.0000
  Fe  Fe291     1.0  0.75700  0.00503  0.87142  1.0000
  H   H3405     1.0  0.77429  0.17611  0.92196  1.0000
  C   C4252     1.0  0.81187  0.11193  0.83208  1.0000
  C   C4253     1.0  0.67332  0.47474  0.81137  1.0000
  C   C4254     1.0  0.69607  0.12202  0.79161  1.0000
  C   C4255     1.0  0.87498  0.45530  0.88581  1.0000
  C   C4256     1.0  0.87023  0.43541  0.89356  1.0000
  C   C4257     1.0  0.85953  0.46967  0.87825  1.0000
  H   H3406     1.0  0.93452  0.39639  0.86559  1.0000
  H   H3407     1.0  0.97856  0.16639  0.81319  1.0000
  C   C4258     1.0  0.71748  0.00490  0.90505  1.0000
  H   H3408     1.0  0.94319  0.45500  0.89436  1.0000
  H   H3409     1.0  0.90496  0.42517  0.87012  1.0000
  H   H3410     1.0  0.94431  0.02471  0.87665  1.0000
  H   H3411     1.0  0.63528  0.24981  0.84003  1.0000
  C   C4259     1.0  0.73343  0.46439  0.97030  1.0000
  C   C4260     1.0  0.73359  0.06473  0.83709  1.0000
  H   H3412     1.0  0.89428  0.47370  0.85219  1.0000
  C   C4261     1.0  0.77663  0.10473  0.85548  1.0000
  C   C4262     1.0  0.97627  0.01795  0.95686  1.0000
  H   H3413     1.0  0.91535  0.44094  0.91791  1.0000
  C   C4263     1.0  0.66213  0.02598  0.88525  1.0000
  H   H3414     1.0  0.86229  0.48548  0.87284  1.0000
  C   C4264     1.0  0.84870  0.33513  0.81019  1.0000
  S   S574      1.0  0.53436  0.07012  0.96112  1.0000
  H   H3415     1.0  0.64083  0.23375  0.79117  1.0000
  C   C4265     1.0  0.67033  0.03183  0.86883  1.0000
  C   C4266     1.0  0.90155  0.48592  0.85551  1.0000
  Fe  Fe292     1.0  0.98277  0.21860  0.84205  1.0000
  S   S575      1.0  0.51281  0.23992  0.88104  1.0000
  C   C4267     1.0  0.57973  0.31050  0.97084  1.0000
  C   C4268     1.0  0.49997  0.30308  0.97058  1.0000
  H   H3416     1.0  0.71645  0.48862  0.82260  1.0000
  H   H3417     1.0  0.92178  0.23603  0.82354  1.0000
  H   H3418     1.0  0.71428  0.05908  0.86052  1.0000
  C   C4269     1.0  0.76976  0.12996  0.79412  1.0000
  C   C4270     1.0  0.69852  0.48899  0.93753  1.0000
  H   H3419     1.0  0.96442  0.11641  0.87738  1.0000
  C   C4271     1.0  0.97091  0.16789  0.86325  1.0000
  H   H3420     1.0  0.92233  0.49310  0.96202  1.0000
  H   H3421     1.0  0.76722  0.08963  0.83720  1.0000
  C   C4272     1.0  0.50847  0.21863  0.97859  1.0000
  H   H3422     1.0  0.98127  0.00777  0.87047  1.0000
  S   S576      1.0  0.66699  0.46984  0.98245  1.0000
  C   C4273     1.0  0.77656  0.37008  0.79028  1.0000
  H   H3423     1.0  0.50284  0.31766  0.96282  1.0000
  P   P141      1.0  0.71825  0.10144  0.79441  1.0000
  C   C4274     1.0  0.92026  0.17273  0.83139  1.0000
  H   H3424     1.0  0.60241  0.02947  0.97236  1.0000
  C   C4275     1.0  0.64289  0.04148  0.92568  1.0000
  H   H3425     1.0  0.85982  0.34782  0.82901  1.0000
  C   C4276     1.0  0.69344  0.00732  0.93080  1.0000
  C   C4277     1.0  0.95015  0.13638  0.82106  1.0000
  C   C4278     1.0  0.65820  0.04636  0.85851  1.0000
  C   C4279     1.0  0.59025  0.04228  0.97549  1.0000
  H   H3426     1.0  0.57483  0.29598  0.96907  1.0000
  C   C4280     1.0  0.96658  0.49061  0.90154  1.0000
  H   H3427     1.0  0.50538  0.22565  0.80203  1.0000
  C   C4281     1.0  0.60364  0.03508  0.91673  1.0000
  C   C4282     1.0  0.95431  0.49338  0.96497  1.0000
  H   H3428     1.0  0.89479  0.15429  0.83491  1.0000
  C   C4283     1.0  0.81796  0.17624  0.79441  1.0000
  C   C4284     1.0  0.86254  0.33534  0.82133  1.0000
  H   H3429     1.0  0.72287  0.47826  0.97376  1.0000
  H   H3430     1.0  0.95278  0.09856  0.85482  1.0000
  H   H3431     1.0  0.57126  0.03877  0.95744  1.0000
  C   C4285     1.0  0.78531  0.06356  0.79010  1.0000
  C   C4286     1.0  0.97288  0.48164  0.96997  1.0000
  C   C4287     1.0  0.50694  0.45174  0.93750  1.0000
  C   C4288     1.0  0.50462  0.03624  0.94979  1.0000
  C   C4289     1.0  0.75248  0.11922  0.79944  1.0000
  C   C4290     1.0  0.77403  0.49444  0.97784  1.0000
  C   C4291     1.0  0.57974  0.24327  0.79378  1.0000
  H   H3432     1.0  0.81402  0.14484  0.79188  1.0000
  H   H3433     1.0  0.66456  0.05075  0.84575  1.0000
  C   C4292     1.0  0.75424  0.46568  0.96301  1.0000
  H   H3434     1.0  0.96823  0.39654  0.87565  1.0000
  C   C4293     1.0  0.51377  0.09772  0.90815  1.0000
  H   H3435     1.0  0.50709  0.04194  0.93674  1.0000
  C   C4294     1.0  0.50469  0.10703  0.89408  1.0000
  H   H3436     1.0  0.79541  0.47594  0.90346  1.0000
  H   H3437     1.0  0.59369  0.36407  0.97731  1.0000
  C   C4295     1.0  0.81917  0.49800  0.92851  1.0000
  C   C4296     1.0  0.84040  0.15733  0.82025  1.0000
  C   C4297     1.0  0.50624  0.46196  0.96899  1.0000
  H   H3438     1.0  0.53606  0.44152  0.96903  1.0000
  C   C4298     1.0  0.78471  0.49058  0.94197  1.0000
  H   H3439     1.0  0.76778  0.47622  0.92746  1.0000
  H   H3440     1.0  0.56991  0.12870  0.96996  1.0000
  C   C4299     1.0  0.59054  0.34874  0.97561  1.0000
  C   C4300     1.0  0.55801  0.07460  0.98438  1.0000
  C   C4301     1.0  0.58988  0.02075  0.91644  1.0000
  H   H3441     1.0  0.84905  0.15034  0.83035  1.0000
  C   C4302     1.0  0.67639  0.11663  0.79072  1.0000
  H   H3442     1.0  0.94096  0.49390  0.92133  1.0000
  C   C4303     1.0  0.87009  0.30361  0.80106  1.0000
  H   H3443     1.0  0.80185  0.24215  0.78949  1.0000
  H   H3444     1.0  0.92321  0.45485  0.97316  1.0000
  C   C4304     1.0  0.91667  0.15600  0.80073  1.0000
  C   C4305     1.0  0.65959  0.13244  0.78722  1.0000
  S   S577      1.0  0.98413  0.27831  0.82631  1.0000
  C   C4306     1.0  0.69844  0.14348  0.78958  1.0000
  H   H3445     1.0  0.98708  0.45106  0.98120  1.0000
  C   C4307     1.0  0.75810  0.42795  0.78933  1.0000
  H   H3446     1.0  0.88099  0.01322  0.97942  1.0000
  H   H3447     1.0  0.49890  0.37477  0.89883  1.0000
  S   S578      1.0  0.49882  0.22719  0.84779  1.0000
  C   C4308     1.0  0.83748  0.06922  0.78940  1.0000
  H   H3448     1.0  0.99517  0.33909  0.89700  1.0000
  C   C4309     1.0  0.57445  0.12606  0.98219  1.0000
  C   C4310     1.0  0.50228  0.19919  0.97782  1.0000
  C   C4311     1.0  0.93695  0.46238  0.97248  1.0000
  C   C4312     1.0  0.96472  0.00325  0.95358  1.0000
  C   C4313     1.0  0.69116  0.48464  0.81000  1.0000
  C   C4314     1.0  0.99662  0.01137  0.96095  1.0000
  C   C4315     1.0  0.95528  0.45065  0.97781  1.0000
  C   C4316     1.0  0.70239  0.48155  0.82342  1.0000
  H   H3449     1.0  0.99351  0.48238  0.88372  1.0000
  H   H3450     1.0  0.52903  0.25129  0.78671  1.0000
  C   C4317     1.0  0.97311  0.46031  0.97682  1.0000
  H   H3451     1.0  0.95578  0.43399  0.98253  1.0000
  H   H3452     1.0  0.50806  0.08702  0.93422  1.0000
  H   H3453     1.0  0.94900  0.00846  0.95047  1.0000
  C   C4318     1.0  0.97178  0.17817  0.80393  1.0000
  H   H3454     1.0  0.67943  0.25445  0.78730  1.0000
  H   H3455     1.0  0.66446  0.47680  0.80113  1.0000
  H   H3456     1.0  0.65368  0.37241  0.98211  1.0000
  C   C4319     1.0  0.98918  0.20427  0.90365  1.0000
  H   H3457     1.0  0.91625  0.00284  0.88661  1.0000
  H   H3458     1.0  0.92250  0.00140  0.98221  1.0000
  C   C4320     1.0  0.96734  0.12726  0.81065  1.0000
  H   H3459     1.0  0.97169  0.13510  0.79832  1.0000
  H   H3460     1.0  0.98318  0.08284  0.83638  1.0000
  C   C4321     1.0  0.82447  0.29447  0.78709  1.0000
  H   H3461     1.0  0.93783  0.13021  0.79049  1.0000
  C   C4322     1.0  0.98418  0.19261  0.79454  1.0000
  C   C4323     1.0  0.88382  0.16575  0.78932  1.0000
  H   H3462     1.0  0.87352  0.29146  0.79305  1.0000
  C   C4324     1.0  0.94198  0.19613  0.79060  1.0000
  H   H3463     1.0  0.86903  0.17612  0.78848  1.0000
  C   C4325     1.0  0.92273  0.14010  0.79048  1.0000
  C   C4326     1.0  0.91219  0.26127  0.78570  1.0000
  H   H3464     1.0  0.99257  0.10120  0.80815  1.0000
  H   H3465     1.0  0.92556  0.19809  0.78913  1.0000
  C   C4327     1.0  0.59449  0.11568  0.98479  1.0000
  H   H3466     1.0  0.90496  0.00038  0.94073  1.0000
  H   H3467     1.0  0.92064  0.49951  0.88752  1.0000
  H   H3468     1.0  0.83353  0.49977  0.98154  1.0000
  Fe  Fe293     1.0  0.53808  0.70546  0.11865  1.0000
  C   C4328     1.0  0.85081  0.58103  0.12361  1.0000
  S   S579      1.0  0.56915  0.69840  0.12885  1.0000
  C   C4329     1.0  0.56925  0.61558  0.10271  1.0000
  H   H3469     1.0  0.54866  0.75484  0.11454  1.0000
  Fe  Fe294     1.0  0.67429  0.99580  0.01203  1.0000
  C   C4330     1.0  0.94651  0.50750  0.09537  1.0000
  S   S580      1.0  0.53596  0.71543  0.09164  1.0000
  S   S581      1.0  0.60119  0.75424  0.17283  1.0000
  Fe  Fe295     1.0  0.96816  0.72598  0.14742  1.0000
  S   S582      1.0  0.93483  0.73589  0.15884  1.0000
  C   C4331     1.0  0.96680  0.64736  0.15994  1.0000
  Fe  Fe296     1.0  0.53193  0.84366  0.01249  1.0000
  C   C4332     1.0  0.49823  0.53096  0.99523  1.0000
  S   S583      1.0  0.54650  0.81707  0.03034  1.0000
  C   C4333     1.0  0.92877  0.65173  0.16667  1.0000
  C   C4334     1.0  0.92771  0.55390  0.99253  1.0000
  S   S584      1.0  0.52229  0.87739  0.01734  1.0000
  C   C4335     1.0  0.52931  0.86396  0.07714  1.0000
  H   H3470     1.0  0.50110  0.80401  0.10150  1.0000
  C   C4336     1.0  0.60301  0.53465  0.05851  1.0000
  C   C4337     1.0  0.86908  0.97576  0.02022  1.0000
  H   H3471     1.0  0.94287  0.52274  0.09974  1.0000
  C   C4338     1.0  0.89162  0.69451  0.11664  1.0000
  C   C4339     1.0  0.97752  0.53630  0.00295  1.0000
  S   S585      1.0  0.75387  0.51774  0.10317  1.0000
  S   S586      1.0  0.80582  0.53744  0.08035  1.0000
  H   H3472     1.0  0.86600  0.96501  0.03143  1.0000
  H   H3473     1.0  0.53951  0.57547  0.13141  1.0000
  C   C4340     1.0  0.66508  0.54306  0.05025  1.0000
  H   H3474     1.0  0.82203  0.52819  0.13176  1.0000
  C   C4341     1.0  0.97019  0.80504  0.18034  1.0000
  C   C4342     1.0  0.71407  0.94447  0.17530  1.0000
  S   S587      1.0  0.76452  0.96168  0.14341  1.0000
  H   H3475     1.0  0.56007  0.72378  0.02573  1.0000
  C   C4343     1.0  0.89903  0.50777  0.02721  1.0000
  S   S588      1.0  0.61007  0.54304  0.01391  1.0000
  C   C4344     1.0  0.87146  0.96819  0.00508  1.0000
  Fe  Fe297     1.0  0.93735  0.60014  0.07483  1.0000
  S   S589      1.0  0.94774  0.56630  0.08511  1.0000
  S   S590      1.0  0.93046  0.62817  0.08931  1.0000
  Fe  Fe298     1.0  0.93039  0.58801  0.04211  1.0000
  S   S591      1.0  0.93991  0.55332  0.04989  1.0000
  S   S592      1.0  0.91926  0.60370  0.01803  1.0000
  Fe  Fe299     1.0  0.92076  0.55906  0.07424  1.0000
  S   S593      1.0  0.90085  0.53533  0.08919  1.0000
  Fe  Fe300     1.0  0.96605  0.56323  0.05996  1.0000
  S   S594      1.0  0.66262  0.51974  0.98810  1.0000
  S   S595      1.0  0.90912  0.59296  0.06563  1.0000
  S   S596      1.0  0.95779  0.59782  0.05047  1.0000
  C   C4345     1.0  0.92093  0.58806  0.00226  1.0000
  C   C4346     1.0  0.92651  0.56613  0.00519  1.0000
  H   H3476     1.0  0.92990  0.55853  0.01720  1.0000
  H   H3477     1.0  0.56516  0.90500  0.01715  1.0000
  C   C4347     1.0  0.96877  0.80272  0.15171  1.0000
  H   H3478     1.0  0.98420  0.63941  0.18052  1.0000
  H   H3479     1.0  0.54814  0.78461  0.00065  1.0000
  Fe  Fe301     1.0  0.75192  0.99338  0.12984  1.0000
  P   P142      1.0  0.55009  0.60039  0.09906  1.0000
  H   H3480     1.0  0.92961  0.50639  0.05693  1.0000
  C   C4348     1.0  0.75768  0.93400  0.17187  1.0000
  C   C4349     1.0  0.74845  0.94976  0.16038  1.0000
  C   C4350     1.0  0.72658  0.95507  0.16223  1.0000
  C   C4351     1.0  0.52334  0.62034  0.12377  1.0000
  C   C4352     1.0  0.57278  0.78954  0.08530  1.0000
  H   H3481     1.0  0.77458  0.92975  0.17047  1.0000
  H   H3482     1.0  0.71932  0.96702  0.15338  1.0000
  C   C4353     1.0  0.55877  0.78251  0.09903  1.0000
  C   C4354     1.0  0.83178  0.53745  0.08383  1.0000
  C   C4355     1.0  0.84264  0.55392  0.07568  1.0000
  C   C4356     1.0  0.86384  0.55355  0.07719  1.0000
  C   C4357     1.0  0.87420  0.53680  0.08712  1.0000
  C   C4358     1.0  0.86320  0.52062  0.09564  1.0000
  C   C4359     1.0  0.84208  0.52091  0.09399  1.0000
  H   H3483     1.0  0.83466  0.56695  0.06807  1.0000
  H   H3484     1.0  0.87214  0.56618  0.07067  1.0000
  H   H3485     1.0  0.53733  0.62290  0.12809  1.0000
  C   C4360     1.0  0.58642  0.77498  0.07638  1.0000
  H   H3486     1.0  0.68271  0.55462  0.06595  1.0000
  C   C4361     1.0  0.52827  0.95533  0.00491  1.0000
  C   C4362     1.0  0.99467  0.50380  0.01691  1.0000
  C   C4363     1.0  0.57597  0.91533  0.01043  1.0000
  H   H3487     1.0  0.70194  0.78710  0.15085  1.0000
  H   H3488     1.0  0.92048  0.96298  0.98833  1.0000
  H   H3489     1.0  0.90007  0.57980  0.10212  1.0000
  C   C4364     1.0  0.93407  0.99083  0.98876  1.0000
  C   C4365     1.0  0.94509  0.94021  0.05932  1.0000
  C   C4366     1.0  0.77862  0.51544  0.15946  1.0000
  C   C4367     1.0  0.75717  0.51415  0.16304  1.0000
  C   C4368     1.0  0.50229  0.96783  0.98644  1.0000
  C   C4369     1.0  0.54823  0.56744  0.99314  1.0000
  C   C4370     1.0  0.54961  0.56892  0.00952  1.0000
  C   C4371     1.0  0.56869  0.56149  0.01585  1.0000
  C   C4372     1.0  0.58622  0.55213  0.00592  1.0000
  H   H3490     1.0  0.83392  0.50820  0.10042  1.0000
  H   H3491     1.0  0.55538  0.61407  0.98938  1.0000
  H   H3492     1.0  0.53601  0.57583  0.01725  1.0000
  H   H3493     1.0  0.56980  0.56262  0.02850  1.0000
  C   C4373     1.0  0.69187  0.96704  0.12487  1.0000
  H   H3494     1.0  0.81301  0.96366  0.08953  1.0000
  C   C4374     1.0  0.87551  0.60663  0.10061  1.0000
  H   H3495     1.0  0.54986  0.64574  0.09716  1.0000
  C   C4375     1.0  0.95269  0.94408  0.04253  1.0000
  H   H3496     1.0  0.65217  0.53218  0.03122  1.0000
  H   H3497     1.0  0.58874  0.91914  0.03197  1.0000
  C   C4376     1.0  0.66090  0.80297  0.17920  1.0000
  H   H3498     1.0  0.95148  0.77905  0.14754  1.0000
  C   C4377     1.0  0.97105  0.62816  0.09518  1.0000
  C   C4378     1.0  0.95038  0.63861  0.09610  1.0000
  C   C4379     1.0  0.94523  0.65773  0.10281  1.0000
  C   C4380     1.0  0.96062  0.66641  0.10850  1.0000
  H   H3499     1.0  0.61722  0.60991  0.11555  1.0000
  H   H3500     1.0  0.92931  0.66597  0.10349  1.0000
  H   H3501     1.0  0.95652  0.68127  0.11342  1.0000
  C   C4381     1.0  0.98584  0.70394  0.07643  1.0000
  C   C4382     1.0  0.55754  0.80415  0.12775  1.0000
  C   C4383     1.0  0.79202  0.57170  0.14816  1.0000
  H   H3502     1.0  0.52742  0.65001  0.04354  1.0000
  C   C4384     1.0  0.57633  0.71300  0.14274  1.0000
  C   C4385     1.0  0.59480  0.70541  0.14981  1.0000
  C   C4386     1.0  0.60191  0.71732  0.15993  1.0000
  C   C4387     1.0  0.59087  0.73720  0.16270  1.0000
  C   C4388     1.0  0.57214  0.74459  0.15595  1.0000
  C   C4389     1.0  0.56468  0.73236  0.14627  1.0000
  H   H3503     1.0  0.60386  0.69040  0.14721  1.0000
  H   H3504     1.0  0.52935  0.81124  0.07926  1.0000
  H   H3505     1.0  0.56349  0.75991  0.15813  1.0000
  H   H3506     1.0  0.55016  0.73802  0.14129  1.0000
  C   C4390     1.0  0.53052  0.80236  0.04552  1.0000
  C   C4391     1.0  0.53992  0.78421  0.05486  1.0000
  C   C4392     1.0  0.52774  0.77228  0.06725  1.0000
  H   H3507     1.0  0.53092  0.82170  0.14138  1.0000
  H   H3508     1.0  0.58679  0.78587  0.11806  1.0000
  H   H3509     1.0  0.53684  0.87915  0.09614  1.0000
  H   H3510     1.0  0.98069  0.64777  0.15076  1.0000
  H   H3511     1.0  0.78273  0.56591  0.10426  1.0000
  Fe  Fe302     1.0  0.50435  0.73312  0.09987  1.0000
  H   H3512     1.0  0.87010  0.95183  0.00476  1.0000
  H   H3513     1.0  0.68132  0.50509  0.10769  1.0000
  H   H3514     1.0  0.60595  0.60693  0.03052  1.0000
  C   C4393     1.0  0.78807  0.52548  0.16940  1.0000
  Fe  Fe303     1.0  0.63907  0.97206  0.00734  1.0000
  P   P143      1.0  0.50872  0.69450  0.00155  1.0000
  C   C4394     1.0  0.57587  0.99675  0.01388  1.0000
  C   C4395     1.0  0.99036  0.92256  0.98892  1.0000
  H   H3515     1.0  0.90406  0.72310  0.10555  1.0000
  S   S597      1.0  0.98770  0.69438  0.15266  1.0000
  C   C4396     1.0  0.63240  0.50620  0.05980  1.0000
  H   H3516     1.0  0.53785  0.72533  0.05291  1.0000
  H   H3517     1.0  0.87318  0.54227  0.15312  1.0000
  C   C4397     1.0  0.99601  0.72545  0.05069  1.0000
  C   C4398     1.0  0.56463  0.63774  0.10097  1.0000
  C   C4399     1.0  0.50109  0.93446  0.00430  1.0000
  Fe  Fe304     1.0  0.53946  0.88636  0.99205  1.0000
  H   H3518     1.0  0.89110  0.53413  0.99258  1.0000
  C   C4400     1.0  0.58473  0.55068  0.98957  1.0000
  C   C4401     1.0  0.63005  0.58716  0.07097  1.0000
  H   H3519     1.0  0.88806  0.50435  0.15606  1.0000
  C   C4402     1.0  0.53678  0.82604  0.09864  1.0000
  H   H3520     1.0  0.98182  0.70215  0.08972  1.0000
  S   S598      1.0  0.74493  0.50142  0.15086  1.0000
  C   C4403     1.0  0.66714  0.51583  0.10518  1.0000
  C   C4404     1.0  0.93376  0.99392  0.05773  1.0000
  H   H3521     1.0  0.58651  0.52729  0.09574  1.0000
  C   C4405     1.0  0.84219  0.60154  0.11720  1.0000
  C   C4406     1.0  0.78522  0.51779  0.99372  1.0000
  C   C4407     1.0  0.61260  0.61556  0.05291  1.0000
  C   C4408     1.0  0.50880  0.80850  0.04863  1.0000
  C   C4409     1.0  0.99136  0.92174  0.00580  1.0000
  C   C4410     1.0  0.54327  0.66179  0.00369  1.0000
  C   C4411     1.0  0.51916  0.79117  0.12154  1.0000
  P   P144      1.0  0.87179  0.51434  0.02430  1.0000
  C   C4412     1.0  0.85064  0.50532  0.00014  1.0000
  C   C4413     1.0  0.93325  0.65779  0.04958  1.0000
  H   H3522     1.0  0.97803  0.99166  0.00527  1.0000
  C   C4414     1.0  0.85454  0.61431  0.10580  1.0000
  C   C4415     1.0  0.86185  0.54095  0.02859  1.0000
  C   C4416     1.0  0.84011  0.54767  0.03148  1.0000
  C   C4417     1.0  0.83233  0.56853  0.03413  1.0000
  C   C4418     1.0  0.84620  0.58289  0.03369  1.0000
  C   C4419     1.0  0.86784  0.57638  0.03061  1.0000
  C   C4420     1.0  0.87565  0.55553  0.02801  1.0000
  C   C4421     1.0  0.57082  0.55920  0.09731  1.0000
  S   S599      1.0  0.61962  0.94710  0.02098  1.0000
  C   C4422     1.0  0.84485  0.50194  0.13892  1.0000
  C   C4423     1.0  0.51412  0.64635  0.05250  1.0000
  H   H3523     1.0  0.56904  0.63616  0.00577  1.0000
  C   C4424     1.0  0.77166  0.57190  0.14486  1.0000
  H   H3524     1.0  0.84882  0.73924  0.16928  1.0000
  C   C4425     1.0  0.51794  0.70414  0.01795  1.0000
  Fe  Fe305     1.0  0.78833  0.51090  0.09369  1.0000
  H   H3525     1.0  0.83846  0.60839  0.14834  1.0000
  H   H3526     1.0  0.68121  0.95609  0.15024  1.0000
  H   H3527     1.0  0.82916  0.53675  0.03187  1.0000
  H   H3528     1.0  0.81556  0.57348  0.03681  1.0000
  H   H3529     1.0  0.84023  0.59901  0.03586  1.0000
  C   C4426     1.0  0.62142  0.60843  0.06741  1.0000
  H   H3530     1.0  0.89244  0.55097  0.02543  1.0000
  H   H3531     1.0  0.71483  0.81784  0.15781  1.0000
  H   H3532     1.0  0.50321  0.71327  0.05784  1.0000
  C   C4427     1.0  0.50131  0.63252  0.04944  1.0000
  C   C4428     1.0  0.53233  0.71955  0.04311  1.0000
  C   C4429     1.0  0.86517  0.53114  0.14909  1.0000
  C   C4430     1.0  0.83645  0.52342  0.13708  1.0000
  H   H3533     1.0  0.87861  0.55717  0.12192  1.0000
  H   H3534     1.0  0.53522  0.75854  0.07450  1.0000
  H   H3535     1.0  0.95435  0.66921  0.06190  1.0000
  H   H3536     1.0  0.68580  0.52834  0.01271  1.0000
  C   C4431     1.0  0.98031  0.52715  0.98846  1.0000
  C   C4432     1.0  0.55541  0.54387  0.12967  1.0000
  H   H3537     1.0  0.54959  0.82283  0.16474  1.0000
  P   P145      1.0  0.98445  0.94570  0.01537  1.0000
  C   C4433     1.0  0.87165  0.57314  0.11779  1.0000
  H   H3538     1.0  0.59690  0.78054  0.06564  1.0000
  C   C4434     1.0  0.80919  0.56919  0.13567  1.0000
  H   H3539     1.0  0.50564  0.54037  0.00157  1.0000
  H   H3540     1.0  0.90134  0.74778  0.18408  1.0000
  C   C4435     1.0  0.55773  0.81522  0.15432  1.0000
  C   C4436     1.0  0.95654  0.78652  0.15668  1.0000
  H   H3541     1.0  0.87111  0.50770  0.10344  1.0000
  H   H3542     1.0  0.94649  0.99539  0.03215  1.0000
  C   C4437     1.0  0.98032  0.92664  0.06519  1.0000
  H   H3543     1.0  0.99442  0.52429  0.08584  1.0000
  H   H3544     1.0  0.63749  0.58219  0.08196  1.0000
  C   C4438     1.0  0.85062  0.99309  0.05563  1.0000
  H   H3545     1.0  0.53238  0.77498  0.14334  1.0000
  H   H3546     1.0  0.71620  0.55013  0.04734  1.0000
  C   C4439     1.0  0.79776  0.73172  0.18074  1.0000
  H   H3547     1.0  0.60481  0.78693  0.14154  1.0000
  H   H3548     1.0  0.66742  0.77753  0.16453  1.0000
  H   H3549     1.0  0.57367  0.72938  0.09936  1.0000
  C   C4440     1.0  0.65703  0.87151  0.18475  1.0000
  C   C4441     1.0  0.99107  0.50648  0.98796  1.0000
  H   H3550     1.0  0.62176  0.61950  0.07581  1.0000
  C   C4442     1.0  0.50478  0.76831  0.02463  1.0000
  H   H3551     1.0  0.60595  0.63206  0.05018  1.0000
  H   H3552     1.0  0.88279  0.69446  0.10670  1.0000
  C   C4443     1.0  0.96973  0.66009  0.03835  1.0000
  H   H3553     1.0  0.99447  0.62012  0.04249  1.0000
  C   C4444     1.0  0.54485  0.71857  0.02783  1.0000
  C   C4445     1.0  0.52467  0.61002  0.10990  1.0000
  H   H3554     1.0  0.85875  0.65147  0.16721  1.0000
  S   S600      1.0  0.52834  0.66956  0.07173  1.0000
  C   C4446     1.0  0.59061  0.52070  0.05520  1.0000
  H   H3555     1.0  0.78794  0.50866  0.14908  1.0000
  C   C4447     1.0  0.94691  0.65183  0.15496  1.0000
  C   C4448     1.0  0.50604  0.60668  0.10502  1.0000
  H   H3556     1.0  0.79428  0.57270  0.16061  1.0000
  C   C4449     1.0  0.98469  0.52465  0.01715  1.0000
  C   C4450     1.0  0.66598  0.53623  0.03493  1.0000
  H   H3557     1.0  0.57080  0.97374  0.99978  1.0000
  H   H3558     1.0  0.94565  0.63850  0.01300  1.0000
  C   C4451     1.0  0.76830  0.56978  0.12907  1.0000
  C   C4452     1.0  0.74529  0.52286  0.17667  1.0000
  C   C4453     1.0  0.95892  0.93160  0.07066  1.0000
  H   H3559     1.0  0.57710  0.56495  0.08480  1.0000
  H   H3560     1.0  0.83228  0.54606  0.17471  1.0000
  H   H3561     1.0  0.61505  0.95221  0.98627  1.0000
  H   H3562     1.0  0.69716  0.94843  0.17653  1.0000
  P   P146      1.0  0.99536  0.66558  0.04044  1.0000
  H   H3563     1.0  0.94164  0.95096  0.03409  1.0000
  C   C4454     1.0  0.55458  0.64203  0.00068  1.0000
  C   C4455     1.0  0.83620  0.60510  0.17455  1.0000
  H   H3564     1.0  0.98510  0.69008  0.00921  1.0000
  H   H3565     1.0  0.97321  0.80781  0.13868  1.0000
  H   H3566     1.0  0.96329  0.51938  0.07218  1.0000
  C   C4456     1.0  0.93230  0.99622  0.04093  1.0000
  H   H3567     1.0  0.62251  0.54158  0.12477  1.0000
  H   H3568     1.0  0.59257  0.58856  0.10910  1.0000
  H   H3569     1.0  0.79351  0.50363  0.01758  1.0000
  H   H3570     1.0  0.71783  0.53686  0.02070  1.0000
  C   C4457     1.0  0.60259  0.61764  0.11134  1.0000
  H   H3571     1.0  0.61157  0.59010  0.99393  1.0000
  H   H3572     1.0  0.50637  0.59893  0.09439  1.0000
  C   C4458     1.0  0.55960  0.61712  0.04887  1.0000
  C   C4459     1.0  0.96562  0.98519  0.00161  1.0000
  S   S601      1.0  0.99339  0.74448  0.14954  1.0000
  C   C4460     1.0  0.98131  0.65593  0.10757  1.0000
  C   C4461     1.0  0.51864  0.93737  0.01077  1.0000
  C   C4462     1.0  0.92549  0.50429  0.04526  1.0000
  C   C4463     1.0  0.50013  0.77133  0.14500  1.0000
  P   P147      1.0  0.64082  0.54527  0.06428  1.0000
  H   H3573     1.0  0.95316  0.92883  0.08370  1.0000
  H   H3574     1.0  0.63308  0.98128  0.07488  1.0000
  C   C4464     1.0  0.95268  0.66321  0.05087  1.0000
  C   C4465     1.0  0.98525  0.97940  0.08656  1.0000
  H   H3575     1.0  0.54373  0.84602  0.11497  1.0000
  H   H3576     1.0  0.59609  0.55094  0.05911  1.0000
  C   C4466     1.0  0.63407  0.53641  0.11473  1.0000
  C   C4467     1.0  0.77611  0.53472  0.18276  1.0000
  C   C4468     1.0  0.87361  0.50966  0.15081  1.0000
  Fe  Fe306     1.0  0.63050  0.51641  0.00162  1.0000
  C   C4469     1.0  0.55728  0.57293  0.10718  1.0000
  C   C4470     1.0  0.64576  0.53708  0.08533  1.0000
  C   C4471     1.0  0.52721  0.84479  0.07244  1.0000
  C   C4472     1.0  0.78830  0.50104  0.00643  1.0000
  C   C4473     1.0  0.97429  0.93947  0.03694  1.0000
  C   C4474     1.0  0.55913  0.61694  0.06577  1.0000
  H   H3577     1.0  0.78820  0.53336  0.99497  1.0000
  H   H3578     1.0  0.65516  0.51748  0.13075  1.0000
  C   C4475     1.0  0.65239  0.52277  0.11812  1.0000
  C   C4476     1.0  0.67298  0.79115  0.16741  1.0000
  H   H3579     1.0  0.80468  0.52637  0.16660  1.0000
  S   S602      1.0  0.97560  0.72720  0.12000  1.0000
  H   H3580     1.0  0.94902  0.99113  0.06186  1.0000
  H   H3581     1.0  0.67624  0.92098  0.14467  1.0000
  C   C4477     1.0  0.57852  0.80538  0.15441  1.0000
  H   H3582     1.0  0.87865  0.58750  0.03018  1.0000
  C   C4478     1.0  0.96475  0.96342  0.00495  1.0000
  C   C4479     1.0  0.54724  0.81459  0.14106  1.0000
  S   S603      1.0  0.70084  0.99851  0.02564  1.0000
  C   C4480     1.0  0.83598  0.57600  0.15938  1.0000
  C   C4481     1.0  0.60416  0.94207  0.99310  1.0000
  C   C4482     1.0  0.98636  0.63672  0.10102  1.0000
  C   C4483     1.0  0.51856  0.77892  0.13719  1.0000
  C   C4484     1.0  0.90467  0.50988  0.04238  1.0000
  C   C4485     1.0  0.58852  0.60559  0.10769  1.0000
  H   H3583     1.0  0.78418  0.73013  0.17536  1.0000
  C   C4486     1.0  0.93301  0.96919  0.99213  1.0000
  C   C4487     1.0  0.78527  0.56782  0.11647  1.0000
  C   C4488     1.0  0.69955  0.81409  0.16359  1.0000
  H   H3584     1.0  0.51351  0.99065  0.03328  1.0000
  H   H3585     1.0  0.89298  0.51605  0.05200  1.0000
  H   H3586     1.0  0.87365  0.96531  0.06059  1.0000
  H   H3587     1.0  0.53737  0.76446  0.02776  1.0000
  C   C4489     1.0  0.84410  0.96222  0.07571  1.0000
  H   H3588     1.0  0.88186  0.66597  0.13038  1.0000
  H   H3589     1.0  0.50043  0.76019  0.03684  1.0000
  H   H3590     1.0  0.88524  0.61666  0.09203  1.0000
  C   C4490     1.0  0.57866  0.64971  0.10466  1.0000
  C   C4491     1.0  0.59758  0.63968  0.10993  1.0000
  S   S604      1.0  0.50349  0.84215  0.00104  1.0000
  H   H3591     1.0  0.82603  0.60783  0.12130  1.0000
  H   H3592     1.0  0.98009  0.64754  0.01519  1.0000
  H   H3593     1.0  0.57462  0.66680  0.10379  1.0000
  H   H3594     1.0  0.60817  0.64905  0.11315  1.0000
  H   H3595     1.0  0.53234  0.57656  0.05009  1.0000
  C   C4492     1.0  0.58933  0.92336  0.01878  1.0000
  C   C4493     1.0  0.84656  0.53825  0.14214  1.0000
  C   C4494     1.0  0.89039  0.59695  0.16104  1.0000
  C   C4495     1.0  0.89862  0.59240  0.14517  1.0000
  C   C4496     1.0  0.90806  0.60748  0.13372  1.0000
  C   C4497     1.0  0.90905  0.62720  0.13804  1.0000
  C   C4498     1.0  0.90021  0.63219  0.15377  1.0000
  C   C4499     1.0  0.89144  0.61666  0.16541  1.0000
  P   P148      1.0  0.90332  0.65688  0.15981  1.0000
  C   C4500     1.0  0.68493  0.53431  0.02426  1.0000
  C   C4501     1.0  0.90315  0.67797  0.14270  1.0000
  C   C4502     1.0  0.91468  0.69453  0.14215  1.0000
  C   C4503     1.0  0.91499  0.71070  0.12878  1.0000
  C   C4504     1.0  0.90360  0.71063  0.11597  1.0000
  C   C4505     1.0  0.68464  0.95222  0.13778  1.0000
  C   C4506     1.0  0.85762  0.97282  0.06358  1.0000
  C   C4507     1.0  0.53083  0.82596  0.08317  1.0000
  P   P149      1.0  0.83571  0.56610  0.14024  1.0000
  H   H3596     1.0  0.50506  0.62518  0.03834  1.0000
  C   C4508     1.0  0.91646  0.59770  0.98656  1.0000
  C   C4509     1.0  0.54976  0.56516  0.12347  1.0000
  C   C4510     1.0  0.55906  0.76070  0.10392  1.0000
  H   H3597     1.0  0.61643  0.71154  0.16497  1.0000
  H   H3598     1.0  0.84794  0.63021  0.10106  1.0000
  C   C4511     1.0  0.63067  0.54338  0.09840  1.0000
  H   H3599     1.0  0.75258  0.56933  0.12666  1.0000
  H   H3600     1.0  0.56608  0.62884  0.06980  1.0000
  H   H3601     1.0  0.88348  0.58508  0.17004  1.0000
  H   H3602     1.0  0.89811  0.57704  0.14184  1.0000
  H   H3603     1.0  0.91499  0.60383  0.12153  1.0000
  H   H3604     1.0  0.91708  0.63834  0.12913  1.0000
  C   C4512     1.0  0.66372  0.52271  0.08888  1.0000
  H   H3605     1.0  0.92355  0.69497  0.15200  1.0000
  H   H3606     1.0  0.92413  0.72330  0.12841  1.0000
  C   C4513     1.0  0.81649  0.73502  0.17044  1.0000
  C   C4514     1.0  0.98803  0.93053  0.04843  1.0000
  C   C4515     1.0  0.55006  0.60252  0.04321  1.0000
  C   C4516     1.0  0.87887  0.52603  0.99032  1.0000
  C   C4517     1.0  0.50108  0.79529  0.11375  1.0000
  H   H3607     1.0  0.74348  0.84472  0.17768  1.0000
  C   C4518     1.0  0.51704  0.79073  0.99380  1.0000
  H   H3608     1.0  0.94573  0.65535  0.14193  1.0000
  H   H3609     1.0  0.52311  0.84443  0.06037  1.0000
  C   C4519     1.0  0.93067  0.64912  0.03585  1.0000
  H   H3610     1.0  0.69382  0.98248  0.12725  1.0000
  H   H3611     1.0  0.72055  0.88303  0.17882  1.0000
  C   C4520     1.0  0.68182  0.93246  0.13460  1.0000
  H   H3612     1.0  0.53228  0.57538  0.07989  1.0000
  H   H3613     1.0  0.88573  0.61961  0.17795  1.0000
  C   C4521     1.0  0.69661  0.96202  0.10881  1.0000
  C   C4522     1.0  0.69422  0.94209  0.10553  1.0000
  C   C4523     1.0  0.68632  0.92748  0.11850  1.0000
  P   P150      1.0  0.70036  0.93585  0.08469  1.0000
  C   C4524     1.0  0.70640  0.90742  0.08547  1.0000
  C   C4525     1.0  0.67816  0.94563  0.07368  1.0000
  C   C4526     1.0  0.67644  0.93714  0.05951  1.0000
  C   C4527     1.0  0.65911  0.94436  0.05112  1.0000
  C   C4528     1.0  0.64338  0.96007  0.05678  1.0000
  C   C4529     1.0  0.64506  0.96877  0.07074  1.0000
  C   C4530     1.0  0.66240  0.96163  0.07915  1.0000
  C   C4531     1.0  0.72718  0.89710  0.08539  1.0000
  C   C4532     1.0  0.73168  0.87508  0.08615  1.0000
  C   C4533     1.0  0.71548  0.86320  0.08708  1.0000
  C   C4534     1.0  0.69474  0.87332  0.08733  1.0000
  C   C4535     1.0  0.69019  0.89533  0.08658  1.0000
  C   C4536     1.0  0.72319  0.94736  0.07431  1.0000
  C   C4537     1.0  0.73920  0.94923  0.08318  1.0000
  C   C4538     1.0  0.75697  0.95790  0.07514  1.0000
  C   C4539     1.0  0.75903  0.96455  0.05817  1.0000
  C   C4540     1.0  0.74334  0.96246  0.04923  1.0000
  C   C4541     1.0  0.72543  0.95406  0.05725  1.0000
  H   H3614     1.0  0.54981  0.60313  0.03013  1.0000
  C   C4542     1.0  0.62416  0.52758  0.06048  1.0000
  C   C4543     1.0  0.86720  0.51459  0.00340  1.0000
  H   H3615     1.0  0.70219  0.97372  0.09896  1.0000
  H   H3616     1.0  0.68379  0.91221  0.11631  1.0000
  H   H3617     1.0  0.68855  0.92505  0.05486  1.0000
  H   H3618     1.0  0.65784  0.93790  0.04013  1.0000
  H   H3619     1.0  0.63000  0.96559  0.05019  1.0000
  C   C4544     1.0  0.69238  0.79661  0.15969  1.0000
  H   H3620     1.0  0.66354  0.96886  0.08976  1.0000
  H   H3621     1.0  0.73998  0.90596  0.08469  1.0000
  H   H3622     1.0  0.74777  0.86724  0.08595  1.0000
  H   H3623     1.0  0.71900  0.84616  0.08754  1.0000
  H   H3624     1.0  0.68216  0.86413  0.08801  1.0000
  H   H3625     1.0  0.67400  0.90291  0.08687  1.0000
  H   H3626     1.0  0.73796  0.94414  0.09634  1.0000
  H   H3627     1.0  0.76901  0.95972  0.08213  1.0000
  H   H3628     1.0  0.77260  0.97163  0.05199  1.0000
  H   H3629     1.0  0.74458  0.96811  0.03612  1.0000
  H   H3630     1.0  0.71328  0.95332  0.05004  1.0000
  C   C4545     1.0  0.72719  0.89516  0.15320  1.0000
  C   C4546     1.0  0.72485  0.89347  0.13709  1.0000
  C   C4547     1.0  0.71385  0.87808  0.13414  1.0000
  C   C4548     1.0  0.70538  0.86422  0.14730  1.0000
  C   C4549     1.0  0.70839  0.86529  0.16349  1.0000
  C   C4550     1.0  0.71888  0.88124  0.16636  1.0000
  P   P151      1.0  0.69705  0.84816  0.18081  1.0000
  C   C4551     1.0  0.68719  0.82641  0.17508  1.0000
  C   C4552     1.0  0.51669  0.65656  0.98825  1.0000
  H   H3631     1.0  0.94718  0.93875  0.00290  1.0000
  C   C4553     1.0  0.51268  0.71291  0.04585  1.0000
  C   C4554     1.0  0.95027  0.99886  0.99363  1.0000
  C   C4555     1.0  0.83713  0.59743  0.15959  1.0000
  H   H3632     1.0  0.81870  0.56541  0.10994  1.0000
  C   C4556     1.0  0.56861  0.53023  0.11968  1.0000
  H   H3633     1.0  0.84736  0.51572  0.05734  1.0000
  H   H3634     1.0  0.61634  0.55376  0.09596  1.0000
  C   C4557     1.0  0.94755  0.64583  0.02339  1.0000
  H   H3635     1.0  0.91580  0.64433  0.03506  1.0000
  C   C4558     1.0  0.54939  0.60188  0.07719  1.0000
  H   H3636     1.0  0.54244  0.95653  0.00955  1.0000
  C   C4559     1.0  0.83403  0.56245  0.17439  1.0000
  H   H3637     1.0  0.81729  0.73616  0.15721  1.0000
  C   C4560     1.0  0.62943  0.57274  0.06020  1.0000
  C   C4561     1.0  0.66811  0.82029  0.18324  1.0000
  H   H3638     1.0  0.73531  0.90739  0.15554  1.0000
  H   H3639     1.0  0.73123  0.90440  0.12696  1.0000
  H   H3640     1.0  0.71167  0.87709  0.12168  1.0000
  H   H3641     1.0  0.69633  0.85293  0.14479  1.0000
  C   C4562     1.0  0.51014  0.65498  0.06730  1.0000
  C   C4563     1.0  0.88393  0.58595  0.10641  1.0000
  H   H3642     1.0  0.50148  0.82255  0.04157  1.0000
  H   H3643     1.0  0.52540  0.92522  0.01979  1.0000
  H   H3644     1.0  0.96980  0.55249  0.00318  1.0000
  C   C4564     1.0  0.53506  0.86428  0.09257  1.0000
  H   H3645     1.0  0.54942  0.53794  0.14222  1.0000
  C   C4565     1.0  0.60339  0.93684  0.01015  1.0000
  H   H3646     1.0  0.59737  0.74197  0.07461  1.0000
  C   C4566     1.0  0.57631  0.53789  0.10350  1.0000
  C   C4567     1.0  0.88219  0.66579  0.17527  1.0000
  H   H3647     1.0  0.65468  0.86575  0.17378  1.0000
  C   C4568     1.0  0.80565  0.56762  0.11972  1.0000
  H   H3648     1.0  0.84973  0.94679  0.08201  1.0000
  H   H3649     1.0  0.98364  0.67170  0.07496  1.0000
  C   C4569     1.0  0.83428  0.73670  0.17720  1.0000
  H   H3650     1.0  0.75857  0.57298  0.15473  1.0000
  C   C4570     1.0  0.62108  0.58017  0.04542  1.0000
  S   S605      1.0  0.67417  0.96613  0.00147  1.0000
  C   C4571     1.0  0.56495  0.98913  0.00354  1.0000
  C   C4572     1.0  0.96704  0.65111  0.02467  1.0000
  H   H3651     1.0  0.55672  0.77942  0.05251  1.0000
  C   C4573     1.0  0.68314  0.54881  0.05438  1.0000
  H   H3652     1.0  0.54745  0.71056  0.00343  1.0000
  C   C4574     1.0  0.70304  0.53917  0.02875  1.0000
  C   C4575     1.0  0.99045  0.72332  0.06778  1.0000
  H   H3653     1.0  0.97524  0.61344  0.09005  1.0000
  C   C4576     1.0  0.53993  0.58717  0.07137  1.0000
  C   C4577     1.0  0.89123  0.67831  0.13003  1.0000
  S   S606      1.0  0.52342  0.67637  0.11954  1.0000
  C   C4578     1.0  0.53765  0.71104  0.01526  1.0000
  C   C4579     1.0  0.52585  0.77064  0.01953  1.0000
  C   C4580     1.0  0.53196  0.78198  0.00421  1.0000
  Fe  Fe307     1.0  0.51882  0.68794  0.09331  1.0000
  H   H3654     1.0  0.98247  0.53181  0.02834  1.0000
  H   H3655     1.0  0.92849  0.94416  0.06359  1.0000
  C   C4581     1.0  0.61256  0.60145  0.04187  1.0000
  C   C4582     1.0  0.52427  0.66938  0.99733  1.0000
  H   H3656     1.0  0.72871  0.52180  0.17955  1.0000
  H   H3657     1.0  0.57460  0.52642  0.05292  1.0000
  H   H3658     1.0  0.50283  0.63650  0.14246  1.0000
  H   H3659     1.0  0.83670  0.62167  0.17468  1.0000
  C   C4583     1.0  0.53887  0.84540  0.10327  1.0000
  C   C4584     1.0  0.54017  0.58759  0.05446  1.0000
  C   C4585     1.0  0.52022  0.97074  0.99265  1.0000
  H   H3660     1.0  0.98991  0.73659  0.07439  1.0000
  C   C4586     1.0  0.50606  0.77853  0.07051  1.0000
  C   C4587     1.0  0.58893  0.79518  0.14114  1.0000
  C   C4588     1.0  0.58664  0.75329  0.08137  1.0000
  H   H3661     1.0  0.57331  0.80626  0.08149  1.0000
  C   C4589     1.0  0.70212  0.54653  0.04377  1.0000
  H   H3662     1.0  0.54924  0.67069  0.01131  1.0000
  H   H3663     1.0  0.62118  0.56949  0.03662  1.0000
  C   C4590     1.0  0.57313  0.74619  0.09523  1.0000
  H   H3664     1.0  0.94244  0.76634  0.17702  1.0000
  H   H3665     1.0  0.51631  0.73938  0.99452  1.0000
  H   H3666     1.0  0.52668  0.87851  0.06872  1.0000
  H   H3667     1.0  0.93208  0.53693  0.99491  1.0000
  C   C4591     1.0  0.57656  0.92087  0.99338  1.0000
  S   S607      1.0  0.55149  0.85268  0.98827  1.0000
  P   P152      1.0  0.54304  0.80121  0.11170  1.0000
  H   H3668     1.0  0.99100  0.92001  0.07404  1.0000
  C   C4592     1.0  0.95138  0.77937  0.17342  1.0000
  H   H3669     1.0  0.98519  0.82445  0.15965  1.0000
  C   C4593     1.0  0.57853  0.79453  0.12786  1.0000
  C   C4594     1.0  0.94823  0.95551  0.00028  1.0000
  H   H3670     1.0  0.56663  0.62916  0.04019  1.0000
  C   C4595     1.0  0.95804  0.50557  0.07984  1.0000
  C   C4596     1.0  0.50378  0.62783  0.13217  1.0000
  C   C4597     1.0  0.96875  0.64258  0.17668  1.0000
  H   H3671     1.0  0.97453  0.97141  0.09584  1.0000
  H   H3672     1.0  0.92036  0.65966  0.05953  1.0000
  C   C4598     1.0  0.97553  0.81203  0.16355  1.0000
  C   C4599     1.0  0.92735  0.72328  0.17881  1.0000
  H   H3673     1.0  0.57281  0.51370  0.12447  1.0000
  C   C4600     1.0  0.50557  0.70507  0.03341  1.0000
  H   H3674     1.0  0.67523  0.51676  0.07914  1.0000
  S   S608      1.0  0.50769  0.72560  0.12699  1.0000
  H   H3675     1.0  0.58645  0.80507  0.16495  1.0000
  H   H3676     1.0  0.64863  0.50041  0.06137  1.0000
  C   C4601     1.0  0.93085  0.64623  0.18345  1.0000
  C   C4602     1.0  0.91552  0.99589  0.06915  1.0000
  H   H3677     1.0  0.58978  0.98712  0.01812  1.0000
  C   C4603     1.0  0.99267  0.68855  0.05091  1.0000
  C   C4604     1.0  0.82342  0.97166  0.07992  1.0000
  H   H3678     1.0  0.95152  0.69623  0.17724  1.0000
  C   C4605     1.0  0.86201  0.66054  0.17606  1.0000
  C   C4606     1.0  0.54699  0.62961  0.99141  1.0000
  C   C4607     1.0  0.98690  0.68668  0.06804  1.0000
  C   C4608     1.0  0.99715  0.70816  0.04226  1.0000
  C   C4609     1.0  0.87064  0.99697  0.02075  1.0000
  C   C4610     1.0  0.93827  0.70379  0.18484  1.0000
  H   H3679     1.0  0.73547  0.79087  0.18429  1.0000
  H   H3680     1.0  0.49990  0.76165  0.15696  1.0000
  S   S609      1.0  0.75074  0.99875  0.10249  1.0000
  H   H3681     1.0  0.91658  0.99499  0.08215  1.0000
  C   C4611     1.0  0.84846  0.50002  0.05412  1.0000
  H   H3682     1.0  0.90062  0.68400  0.18528  1.0000
  C   C4612     1.0  0.95802  0.78861  0.18541  1.0000
  C   C4613     1.0  0.81626  0.99167  0.07199  1.0000
  C   C4614     1.0  0.87561  0.98168  0.99037  1.0000
  C   C4615     1.0  0.74517  0.92371  0.18516  1.0000
  Fe  Fe308     1.0  0.99722  0.69678  0.12534  1.0000
  H   H3683     1.0  0.80030  0.99914  0.07547  1.0000
  H   H3684     1.0  0.64606  0.79852  0.18551  1.0000
  C   C4616     1.0  0.75477  0.67477  0.19458  1.0000
  C   C4617     1.0  0.97409  0.78090  0.29534  1.0000
  Fe  Fe309     1.0  0.96670  0.74230  0.34971  1.0000
  S   S610      1.0  0.94239  0.72432  0.34387  1.0000
  C   C4618     1.0  0.67999  0.87125  0.29803  1.0000
  Fe  Fe310     1.0  0.86966  0.73578  0.27334  1.0000
  S   S611      1.0  0.87849  0.74400  0.24600  1.0000
  S   S612      1.0  0.88475  0.75546  0.28713  1.0000
  Fe  Fe311     1.0  0.84005  0.70586  0.26841  1.0000
  S   S613      1.0  0.84705  0.71222  0.24096  1.0000
  S   S614      1.0  0.81609  0.68390  0.27892  1.0000
  Fe  Fe312     1.0  0.88039  0.70945  0.24520  1.0000
  S   S615      1.0  0.90705  0.69063  0.23060  1.0000
  Fe  Fe313     1.0  0.84422  0.74619  0.24458  1.0000
  S   S616      1.0  0.82556  0.76975  0.22733  1.0000
  S   S617      1.0  0.87391  0.70063  0.27265  1.0000
  S   S618      1.0  0.83484  0.74032  0.27189  1.0000
  Fe  Fe314     1.0  0.62861  0.76892  0.22082  1.0000
  S   S619      1.0  0.63311  0.74034  0.23996  1.0000
  S   S620      1.0  0.63027  0.80329  0.22196  1.0000
  H   H3685     1.0  0.72002  0.98194  0.21654  1.0000
  S   S621      1.0  0.62057  0.71301  0.21302  1.0000
  Fe  Fe315     1.0  0.60395  0.73180  0.23322  1.0000
  S   S622      1.0  0.57436  0.72252  0.24892  1.0000
  Fe  Fe316     1.0  0.64956  0.72376  0.21848  1.0000
  S   S623      1.0  0.68287  0.70691  0.21959  1.0000
  S   S624      1.0  0.59809  0.76182  0.21603  1.0000
  P   P153      1.0  0.98667  0.72570  0.27517  1.0000
  S   S625      1.0  0.70689  0.91523  0.20249  1.0000
  H   H3686     1.0  0.74231  0.90262  0.32782  1.0000
  H   H3687     1.0  0.69792  0.95875  0.20938  1.0000
  H   H3688     1.0  0.79725  0.68274  0.21967  1.0000
  Fe  Fe317     1.0  0.51686  0.73155  0.33420  1.0000
  S   S626      1.0  0.55066  0.71785  0.32629  1.0000
  C   C4619     1.0  0.98178  0.76010  0.29253  1.0000
  Fe  Fe318     1.0  0.77329  0.56394  0.21643  1.0000
  S   S627      1.0  0.74587  0.55636  0.23518  1.0000
  C   C4620     1.0  0.88139  0.79521  0.22637  1.0000
  Fe  Fe319     1.0  0.78494  0.59478  0.23684  1.0000
  S   S628      1.0  0.75846  0.58944  0.25741  1.0000
  S   S629      1.0  0.81161  0.61375  0.23476  1.0000
  Fe  Fe320     1.0  0.76693  0.55500  0.25425  1.0000
  S   S630      1.0  0.77168  0.52516  0.27251  1.0000
  Fe  Fe321     1.0  0.73951  0.59143  0.23664  1.0000
  S   S631      1.0  0.70574  0.60739  0.23768  1.0000
  S   S632      1.0  0.79484  0.56018  0.23534  1.0000
  S   S633      1.0  0.76544  0.59917  0.21627  1.0000
  Fe  Fe322     1.0  0.75490  0.87290  0.24345  1.0000
  S   S634      1.0  0.73324  0.86537  0.26683  1.0000
  S   S635      1.0  0.78959  0.86221  0.24403  1.0000
  Fe  Fe323     1.0  0.71969  0.89648  0.22509  1.0000
  S   S636      1.0  0.69521  0.89045  0.24703  1.0000
  Fe  Fe324     1.0  0.71783  0.89895  0.26162  1.0000
  S   S637      1.0  0.70236  0.91895  0.28142  1.0000
  Fe  Fe325     1.0  0.71257  0.85749  0.25033  1.0000
  S   S638      1.0  0.69836  0.82734  0.25899  1.0000
  S   S639      1.0  0.74103  0.90745  0.23947  1.0000
  S   S640      1.0  0.73544  0.86259  0.22719  1.0000
  H   H3689     1.0  0.93634  0.76398  0.32141  1.0000
  Fe  Fe326     1.0  0.72578  0.97649  0.34886  1.0000
  S   S641      1.0  0.69053  0.98237  0.35156  1.0000
  S   S642      1.0  0.74571  0.96400  0.32635  1.0000
  S   S643      1.0  0.64672  0.75309  0.19974  1.0000
  H   H3690     1.0  0.80059  0.93971  0.26186  1.0000
  C   C4621     1.0  0.76527  0.50384  0.32136  1.0000
  C   C4622     1.0  0.55068  0.70830  0.20837  1.0000
  C   C4623     1.0  0.53207  0.70676  0.21926  1.0000
  C   C4624     1.0  0.75227  0.82468  0.19936  1.0000
  S   S644      1.0  0.50344  0.73476  0.36067  1.0000
  S   S645      1.0  0.97082  0.77653  0.34295  1.0000
  H   H3691     1.0  0.65885  0.82847  0.19300  1.0000
  H   H3692     1.0  0.68108  0.90400  0.37190  1.0000
  H   H3693     1.0  0.96026  0.66491  0.26101  1.0000
  H   H3694     1.0  0.60860  0.96579  0.36796  1.0000
  H   H3695     1.0  0.83095  0.55971  0.20084  1.0000
  C   C4625     1.0  0.71518  0.93101  0.29362  1.0000
  C   C4626     1.0  0.73667  0.93225  0.29028  1.0000
  C   C4627     1.0  0.74589  0.94247  0.30037  1.0000
  C   C4628     1.0  0.73379  0.95110  0.31397  1.0000
  C   C4629     1.0  0.71238  0.94960  0.31730  1.0000
  C   C4630     1.0  0.70309  0.93993  0.30703  1.0000
  H   H3696     1.0  0.74604  0.92566  0.27981  1.0000
  H   H3697     1.0  0.76238  0.94384  0.29763  1.0000
  H   H3698     1.0  0.70290  0.95585  0.32778  1.0000
  H   H3699     1.0  0.68644  0.93913  0.30962  1.0000
  C   C4631     1.0  0.93004  0.67802  0.38243  1.0000
  H   H3700     1.0  0.94599  0.79678  0.26333  1.0000
  H   H3701     1.0  0.66818  0.85302  0.23915  1.0000
  C   C4632     1.0  0.67899  0.87346  0.20512  1.0000
  H   H3702     1.0  0.55257  0.76774  0.25037  1.0000
  C   C4633     1.0  0.75583  0.95844  0.24486  1.0000
  H   H3703     1.0  0.97835  0.78681  0.30561  1.0000
  C   C4634     1.0  0.76585  0.52465  0.29406  1.0000
  H   H3704     1.0  0.80807  0.50078  0.20107  1.0000
  C   C4635     1.0  0.53058  0.65146  0.36820  1.0000
  C   C4636     1.0  0.75702  0.52200  0.32867  1.0000
  C   C4637     1.0  0.75331  0.54156  0.31862  1.0000
  C   C4638     1.0  0.75760  0.54289  0.30132  1.0000
  H   H3705     1.0  0.87604  0.79604  0.20143  1.0000
  C   C4639     1.0  0.95607  0.78658  0.27141  1.0000
  H   H3706     1.0  0.75458  0.55792  0.29363  1.0000
  C   C4640     1.0  0.51177  0.68881  0.29183  1.0000
  H   H3707     1.0  0.91717  0.64534  0.19271  1.0000
  H   H3708     1.0  0.71445  0.91260  0.37702  1.0000
  C   C4641     1.0  0.97651  0.75235  0.27917  1.0000
  C   C4642     1.0  0.52334  0.79926  0.37122  1.0000
  S   S646      1.0  0.72768  0.95856  0.37433  1.0000
  C   C4643     1.0  0.68883  0.67917  0.22426  1.0000
  C   C4644     1.0  0.67314  0.66628  0.22821  1.0000
  C   C4645     1.0  0.67854  0.64427  0.23223  1.0000
  C   C4646     1.0  0.69966  0.63499  0.23214  1.0000
  C   C4647     1.0  0.71537  0.64788  0.22808  1.0000
  C   C4648     1.0  0.70992  0.66990  0.22419  1.0000
  H   H3709     1.0  0.65687  0.67325  0.22814  1.0000
  H   H3710     1.0  0.66631  0.63438  0.23537  1.0000
  H   H3711     1.0  0.73167  0.64092  0.22808  1.0000
  H   H3712     1.0  0.72204  0.67986  0.22135  1.0000
  C   C4649     1.0  0.64916  0.80970  0.23241  1.0000
  C   C4650     1.0  0.65143  0.83101  0.23164  1.0000
  C   C4651     1.0  0.66657  0.83660  0.23968  1.0000
  C   C4652     1.0  0.67941  0.82091  0.24859  1.0000
  C   C4653     1.0  0.67687  0.79963  0.24964  1.0000
  C   C4654     1.0  0.66193  0.79400  0.24142  1.0000
  H   H3713     1.0  0.55914  0.79507  0.22629  1.0000
  C   C4655     1.0  0.93180  0.69383  0.20071  1.0000
  H   H3714     1.0  0.68668  0.78744  0.25664  1.0000
  H   H3715     1.0  0.66023  0.77755  0.24210  1.0000
  C   C4656     1.0  0.56889  0.72371  0.27026  1.0000
  C   C4657     1.0  0.58419  0.71628  0.28064  1.0000
  C   C4658     1.0  0.57848  0.71454  0.29784  1.0000
  C   C4659     1.0  0.55767  0.72085  0.30471  1.0000
  C   C4660     1.0  0.54257  0.72899  0.29428  1.0000
  C   C4661     1.0  0.54813  0.73019  0.27714  1.0000
  H   H3716     1.0  0.60018  0.71108  0.27547  1.0000
  H   H3717     1.0  0.59012  0.70800  0.30585  1.0000
  H   H3718     1.0  0.52644  0.73376  0.29941  1.0000
  H   H3719     1.0  0.53619  0.73579  0.26920  1.0000
  C   C4662     1.0  0.81526  0.79499  0.23277  1.0000
  C   C4663     1.0  0.79993  0.80767  0.22404  1.0000
  C   C4664     1.0  0.79152  0.82806  0.22781  1.0000
  C   C4665     1.0  0.79905  0.83621  0.23987  1.0000
  C   C4666     1.0  0.81469  0.82367  0.24842  1.0000
  C   C4667     1.0  0.82236  0.80285  0.24522  1.0000
  H   H3720     1.0  0.79471  0.80170  0.21424  1.0000
  H   H3721     1.0  0.77978  0.83780  0.22098  1.0000
  H   H3722     1.0  0.82067  0.82997  0.25770  1.0000
  H   H3723     1.0  0.83411  0.79311  0.25208  1.0000
  C   C4668     1.0  0.81429  0.66507  0.26618  1.0000
  C   C4669     1.0  0.79650  0.65482  0.26874  1.0000
  C   C4670     1.0  0.79506  0.63949  0.25890  1.0000
  C   C4671     1.0  0.81170  0.63395  0.24670  1.0000
  C   C4672     1.0  0.82936  0.64433  0.24406  1.0000
  C   C4673     1.0  0.83064  0.65983  0.25372  1.0000
  H   H3724     1.0  0.78383  0.65874  0.27835  1.0000
  H   H3725     1.0  0.78133  0.63164  0.26100  1.0000
  H   H3726     1.0  0.84232  0.64013  0.23467  1.0000
  H   H3727     1.0  0.84461  0.66726  0.25180  1.0000
  C   C4674     1.0  0.90364  0.72293  0.20471  1.0000
  C   C4675     1.0  0.91461  0.70343  0.21072  1.0000
  C   C4676     1.0  0.70944  0.82316  0.20896  1.0000
  H   H3728     1.0  0.94015  0.73563  0.27932  1.0000
  H   H3729     1.0  0.89025  0.73038  0.21230  1.0000
  H   H3730     1.0  0.94028  0.67877  0.20534  1.0000
  H   H3731     1.0  0.57945  0.82340  0.22815  1.0000
  H   H3732     1.0  0.54165  0.80135  0.28902  1.0000
  C   C4677     1.0  0.92760  0.73281  0.32728  1.0000
  C   C4678     1.0  0.91558  0.71890  0.32319  1.0000
  C   C4679     1.0  0.90282  0.72536  0.31060  1.0000
  C   C4680     1.0  0.90177  0.74594  0.30214  1.0000
  C   C4681     1.0  0.91408  0.75974  0.30603  1.0000
  C   C4682     1.0  0.92710  0.75316  0.31843  1.0000
  H   H3733     1.0  0.91596  0.70310  0.32991  1.0000
  H   H3734     1.0  0.89344  0.71460  0.30772  1.0000
  H   H3735     1.0  0.91345  0.77566  0.29950  1.0000
  H   H3736     1.0  0.54298  0.67932  0.27971  1.0000
  C   C4683     1.0  0.74929  0.97700  0.25217  1.0000
  C   C4684     1.0  0.91760  0.78644  0.23130  1.0000
  C   C4685     1.0  0.98928  0.69355  0.32146  1.0000
  P   P154      1.0  0.95186  0.77847  0.20698  1.0000
  H   H3737     1.0  0.92693  0.83565  0.37033  1.0000
  H   H3738     1.0  0.52611  0.69179  0.22204  1.0000
  H   H3739     1.0  0.52015  0.81992  0.33674  1.0000
  C   C4686     1.0  0.52964  0.74349  0.22296  1.0000
  H   H3740     1.0  0.59196  0.82537  0.25407  1.0000
  C   C4687     1.0  0.77428  0.94507  0.24835  1.0000
  H   H3741     1.0  0.93626  0.87140  0.35979  1.0000
  C   C4688     1.0  0.95437  0.71569  0.22572  1.0000
  C   C4689     1.0  0.99646  0.70987  0.29304  1.0000
  H   H3742     1.0  0.74671  0.95410  0.23653  1.0000
  H   H3743     1.0  0.52199  0.75722  0.22861  1.0000
  C   C4690     1.0  0.67526  0.88457  0.31021  1.0000
  S   S647      1.0  0.97115  0.74160  0.37611  1.0000
  C   C4691     1.0  0.50312  0.70905  0.26059  1.0000
  C   C4692     1.0  0.70906  0.97481  0.22619  1.0000
  C   C4693     1.0  0.94855  0.73763  0.22331  1.0000
  C   C4694     1.0  0.76591  0.56964  0.35327  1.0000
  C   C4695     1.0  0.78185  0.56040  0.36266  1.0000
  C   C4696     1.0  0.80256  0.56362  0.35694  1.0000
  C   C4697     1.0  0.80738  0.57588  0.34171  1.0000
  C   C4698     1.0  0.79140  0.58534  0.33225  1.0000
  C   C4699     1.0  0.77063  0.58203  0.33810  1.0000
  P   P155      1.0  0.79807  0.59840  0.31158  1.0000
  C   C4700     1.0  0.81825  0.61465  0.31109  1.0000
  C   C4701     1.0  0.80588  0.57836  0.29798  1.0000
  C   C4702     1.0  0.80931  0.58425  0.28086  1.0000
  C   C4703     1.0  0.81520  0.56890  0.27031  1.0000
  C   C4704     1.0  0.81671  0.54747  0.27666  1.0000
  C   C4705     1.0  0.81275  0.54137  0.29365  1.0000
  C   C4706     1.0  0.80745  0.55669  0.30429  1.0000
  C   C4707     1.0  0.83131  0.62037  0.29638  1.0000
  C   C4708     1.0  0.84549  0.63442  0.29584  1.0000
  C   C4709     1.0  0.84686  0.64291  0.30994  1.0000
  C   C4710     1.0  0.83409  0.63726  0.32467  1.0000
  C   C4711     1.0  0.81977  0.62331  0.32524  1.0000
  C   C4712     1.0  0.77521  0.61609  0.30549  1.0000
  C   C4713     1.0  0.77017  0.63629  0.31045  1.0000
  C   C4714     1.0  0.75232  0.64992  0.30598  1.0000
  C   C4715     1.0  0.73939  0.64352  0.29652  1.0000
  C   C4716     1.0  0.74426  0.62346  0.29155  1.0000
  C   C4717     1.0  0.76196  0.60967  0.29617  1.0000
  H   H3744     1.0  0.75001  0.56639  0.35744  1.0000
  H   H3745     1.0  0.74539  0.54026  0.19679  1.0000
  C   C4718     1.0  0.88774  0.79367  0.20968  1.0000
  H   H3746     1.0  0.82362  0.57748  0.33711  1.0000
  H   H3747     1.0  0.75816  0.58835  0.33076  1.0000
  H   H3748     1.0  0.80703  0.60067  0.27554  1.0000
  H   H3749     1.0  0.81823  0.57374  0.25715  1.0000
  H   H3750     1.0  0.82038  0.53561  0.26840  1.0000
  H   H3751     1.0  0.81317  0.52477  0.29855  1.0000
  H   H3752     1.0  0.80404  0.55139  0.31734  1.0000
  H   H3753     1.0  0.83036  0.61466  0.28510  1.0000
  H   H3754     1.0  0.85495  0.63931  0.28428  1.0000
  H   H3755     1.0  0.85753  0.65420  0.30932  1.0000
  H   H3756     1.0  0.83497  0.64410  0.33554  1.0000
  H   H3757     1.0  0.80950  0.61980  0.33663  1.0000
  H   H3758     1.0  0.78007  0.64168  0.31763  1.0000
  H   H3759     1.0  0.74872  0.66558  0.30967  1.0000
  H   H3760     1.0  0.72566  0.65413  0.29302  1.0000
  H   H3761     1.0  0.73437  0.61858  0.28404  1.0000
  H   H3762     1.0  0.76527  0.59407  0.29242  1.0000
  C   C4719     1.0  0.71375  0.99440  0.28183  1.0000
  P   P156      1.0  0.77291  0.72420  0.21106  1.0000
  C   C4720     1.0  0.77440  0.72574  0.23231  1.0000
  C   C4721     1.0  0.90905  0.78872  0.20371  1.0000
  C   C4722     1.0  0.77918  0.74434  0.23649  1.0000
  C   C4723     1.0  0.78145  0.74554  0.25273  1.0000
  C   C4724     1.0  0.77830  0.72844  0.26499  1.0000
  C   C4725     1.0  0.77260  0.71025  0.26106  1.0000
  C   C4726     1.0  0.77071  0.70881  0.24478  1.0000
  C   C4727     1.0  0.75002  0.74278  0.20624  1.0000
  C   C4728     1.0  0.72994  0.73836  0.21346  1.0000
  C   C4729     1.0  0.71205  0.75263  0.20999  1.0000
  H   H3763     1.0  0.74513  0.91231  0.35496  1.0000
  C   C4730     1.0  0.83324  0.57015  0.18929  1.0000
  C   C4731     1.0  0.70777  0.97825  0.24264  1.0000
  C   C4732     1.0  0.93151  0.88128  0.38386  1.0000
  H   H3764     1.0  0.81471  0.72972  0.21775  1.0000
  H   H3765     1.0  0.98800  0.68456  0.26485  1.0000
  H   H3766     1.0  0.78203  0.75763  0.22708  1.0000
  H   H3767     1.0  0.78631  0.75950  0.25566  1.0000
  H   H3768     1.0  0.78076  0.72905  0.27748  1.0000
  H   H3769     1.0  0.77043  0.69695  0.27060  1.0000
  H   H3770     1.0  0.76664  0.69441  0.24203  1.0000
  H   H3771     1.0  0.72803  0.72373  0.22161  1.0000
  H   H3772     1.0  0.69658  0.74898  0.21545  1.0000
  C   C4733     1.0  0.76169  0.98213  0.26282  1.0000
  C   C4734     1.0  0.95847  0.74997  0.20978  1.0000
  C   C4735     1.0  0.78445  0.66060  0.20906  1.0000
  C   C4736     1.0  0.71614  0.83538  0.19409  1.0000
  C   C4737     1.0  0.75122  0.80904  0.35848  1.0000
  C   C4738     1.0  0.73372  0.82450  0.36125  1.0000
  C   C4739     1.0  0.72886  0.84092  0.34868  1.0000
  C   C4740     1.0  0.74155  0.84196  0.33337  1.0000
  C   C4741     1.0  0.75931  0.82661  0.33055  1.0000
  C   C4742     1.0  0.76396  0.81003  0.34317  1.0000
  P   P157      1.0  0.77546  0.82815  0.31067  1.0000
  C   C4743     1.0  0.77862  0.85553  0.30398  1.0000
  C   C4744     1.0  0.80108  0.81242  0.31192  1.0000
  C   C4745     1.0  0.81853  0.82184  0.31307  1.0000
  C   C4746     1.0  0.83844  0.80965  0.31316  1.0000
  C   C4747     1.0  0.84111  0.78804  0.31208  1.0000
  C   C4748     1.0  0.82384  0.77851  0.31104  1.0000
  C   C4749     1.0  0.80388  0.79059  0.31106  1.0000
  C   C4750     1.0  0.78090  0.86845  0.31542  1.0000
  C   C4751     1.0  0.78379  0.88953  0.31019  1.0000
  C   C4752     1.0  0.78445  0.89782  0.29353  1.0000
  C   C4753     1.0  0.78201  0.88513  0.28213  1.0000
  C   C4754     1.0  0.77917  0.86406  0.28732  1.0000
  C   C4755     1.0  0.76331  0.81826  0.29603  1.0000
  C   C4756     1.0  0.74181  0.81659  0.29886  1.0000
  C   C4757     1.0  0.73282  0.80868  0.28743  1.0000
  C   C4758     1.0  0.74509  0.80262  0.27305  1.0000
  C   C4759     1.0  0.76644  0.80428  0.27015  1.0000
  C   C4760     1.0  0.77553  0.81200  0.28159  1.0000
  H   H3773     1.0  0.75497  0.79629  0.36823  1.0000
  C   C4761     1.0  0.98010  0.71801  0.20129  1.0000
  H   H3774     1.0  0.71531  0.85290  0.35082  1.0000
  H   H3775     1.0  0.73752  0.85475  0.32371  1.0000
  H   H3776     1.0  0.77745  0.79792  0.34128  1.0000
  H   H3777     1.0  0.81700  0.83859  0.31362  1.0000
  H   H3778     1.0  0.85192  0.81699  0.31382  1.0000
  H   H3779     1.0  0.85662  0.77868  0.31186  1.0000
  H   H3780     1.0  0.82609  0.76179  0.30994  1.0000
  H   H3781     1.0  0.79073  0.78294  0.31008  1.0000
  H   H3782     1.0  0.78062  0.86221  0.32836  1.0000
  H   H3783     1.0  0.78548  0.89951  0.31903  1.0000
  H   H3784     1.0  0.78677  0.91408  0.28944  1.0000
  H   H3785     1.0  0.78239  0.89153  0.26920  1.0000
  H   H3786     1.0  0.77747  0.85452  0.27826  1.0000
  H   H3787     1.0  0.73188  0.82148  0.30972  1.0000
  H   H3788     1.0  0.71620  0.80765  0.28948  1.0000
  H   H3789     1.0  0.73794  0.79702  0.26403  1.0000
  H   H3790     1.0  0.77592  0.79989  0.25890  1.0000
  H   H3791     1.0  0.79209  0.81332  0.27909  1.0000
  C   C4762     1.0  0.64088  0.88528  0.19244  1.0000
  C   C4763     1.0  0.73396  0.77611  0.19230  1.0000
  C   C4764     1.0  0.51842  0.67107  0.37024  1.0000
  H   H3792     1.0  0.77565  0.50971  0.22014  1.0000
  C   C4765     1.0  0.65220  0.88155  0.36066  1.0000
  C   C4766     1.0  0.63018  0.88533  0.36215  1.0000
  P   P158      1.0  0.66772  0.89341  0.34258  1.0000
  C   C4767     1.0  0.67227  0.87612  0.32692  1.0000
  C   C4768     1.0  0.68172  0.84936  0.30242  1.0000
  C   C4769     1.0  0.67866  0.84075  0.31905  1.0000
  C   C4770     1.0  0.67401  0.85406  0.33127  1.0000
  C   C4771     1.0  0.65369  0.91905  0.33554  1.0000
  C   C4772     1.0  0.63817  0.92074  0.32533  1.0000
  C   C4773     1.0  0.62715  0.94052  0.32002  1.0000
  C   C4774     1.0  0.63150  0.95877  0.32488  1.0000
  C   C4775     1.0  0.64683  0.95724  0.33509  1.0000
  C   C4776     1.0  0.65778  0.93749  0.34051  1.0000
  C   C4777     1.0  0.73077  0.90753  0.35291  1.0000
  H   H3793     1.0  0.67886  0.86353  0.37161  1.0000
  C   C4778     1.0  0.96631  0.71210  0.27147  1.0000
  H   H3794     1.0  0.99195  0.71035  0.19253  1.0000
  H   H3795     1.0  0.62214  0.89637  0.35318  1.0000
  H   H3796     1.0  0.68553  0.83913  0.29291  1.0000
  H   H3797     1.0  0.67996  0.82376  0.32245  1.0000
  H   H3798     1.0  0.67189  0.84709  0.34406  1.0000
  H   H3799     1.0  0.63442  0.90673  0.32161  1.0000
  H   H3800     1.0  0.61510  0.94168  0.31225  1.0000
  C   C4779     1.0  0.72400  0.81202  0.21904  1.0000
  H   H3801     1.0  0.65007  0.97134  0.33903  1.0000
  H   H3802     1.0  0.66930  0.93680  0.34864  1.0000
  H   H3803     1.0  0.74682  0.55562  0.32421  1.0000
  C   C4780     1.0  0.96107  0.79406  0.28491  1.0000
  C   C4781     1.0  0.69426  0.96765  0.25488  1.0000
  C   C4782     1.0  0.74539  0.81281  0.21428  1.0000
  C   C4783     1.0  0.76917  0.65759  0.20009  1.0000
  H   H3804     1.0  0.94605  0.81869  0.22006  1.0000
  H   H3805     1.0  0.81495  0.55611  0.36412  1.0000
  C   C4784     1.0  0.81473  0.73151  0.20458  1.0000
  C   C4785     1.0  0.97026  0.70588  0.21483  1.0000
  C   C4786     1.0  0.64383  0.89327  0.20638  1.0000
  H   H3806     1.0  0.75242  0.91156  0.19392  1.0000
  C   C4787     1.0  0.96708  0.78902  0.21913  1.0000
  H   H3807     1.0  0.53557  0.69662  0.25232  1.0000
  C   C4788     1.0  0.92421  0.78519  0.21445  1.0000
  C   C4789     1.0  0.66292  0.88750  0.21261  1.0000
  S   S648      1.0  0.75160  0.52057  0.35032  1.0000
  C   C4790     1.0  0.71349  0.90774  0.36531  1.0000
  H   H3808     1.0  0.51281  0.81066  0.31079  1.0000
  C   C4791     1.0  0.68318  0.95111  0.23428  1.0000
  C   C4792     1.0  0.94500  0.72063  0.27471  1.0000
  C   C4793     1.0  0.92945  0.70946  0.27247  1.0000
  C   C4794     1.0  0.93492  0.68942  0.26752  1.0000
  C   C4795     1.0  0.95605  0.68051  0.26477  1.0000
  H   H3809     1.0  0.91341  0.78750  0.19076  1.0000
  C   C4796     1.0  0.75194  0.76195  0.19586  1.0000
  H   H3810     1.0  0.86484  0.79875  0.23095  1.0000
  C   C4797     1.0  0.83420  0.59147  0.18940  1.0000
  S   S649      1.0  0.78881  0.54767  0.19443  1.0000
  C   C4798     1.0  0.99091  0.80585  0.23758  1.0000
  H   H3811     1.0  0.67199  0.94567  0.26025  1.0000
  H   H3812     1.0  0.60112  0.87808  0.37649  1.0000
  H   H3813     1.0  0.62287  0.97408  0.32088  1.0000
  H   H3814     1.0  0.69357  0.96913  0.26774  1.0000
  H   H3815     1.0  0.79575  0.64731  0.21315  1.0000
  H   H3816     1.0  0.93664  0.89644  0.37918  1.0000
  C   C4799     1.0  0.55874  0.72738  0.20477  1.0000
  H   H3817     1.0  0.75705  0.99637  0.26859  1.0000
  C   C4800     1.0  0.76984  0.50524  0.30415  1.0000
  H   H3818     1.0  0.69295  0.82202  0.21265  1.0000
  H   H3819     1.0  0.91309  0.71636  0.27479  1.0000
  H   H3820     1.0  0.92278  0.68088  0.26567  1.0000
  C   C4801     1.0  0.66192  0.86703  0.37264  1.0000
  C   C4802     1.0  0.78637  0.95016  0.25911  1.0000
  C   C4803     1.0  0.90991  0.73275  0.18872  1.0000
  C   C4804     1.0  0.83335  0.73499  0.19427  1.0000
  C   C4805     1.0  0.97170  0.69177  0.26679  1.0000
  H   H3821     1.0  0.62614  0.88987  0.18753  1.0000
  C   C4806     1.0  0.84970  0.67905  0.19975  1.0000
  C   C4807     1.0  0.49984  0.59321  0.38239  1.0000
  Fe  Fe327     1.0  0.97863  0.77476  0.36868  1.0000
  H   H3822     1.0  0.96033  0.76038  0.25774  1.0000
  H   H3823     1.0  0.96611  0.71374  0.30824  1.0000
  H   H3824     1.0  0.83738  0.68381  0.20946  1.0000
  C   C4808     1.0  0.69709  0.59865  0.28232  1.0000
  C   C4809     1.0  0.70238  0.59141  0.29810  1.0000
  C   C4810     1.0  0.69663  0.60456  0.31036  1.0000
  C   C4811     1.0  0.68556  0.62493  0.30687  1.0000
  C   C4812     1.0  0.68001  0.63226  0.29105  1.0000
  C   C4813     1.0  0.68603  0.61897  0.27881  1.0000
  P   P159      1.0  0.66644  0.65887  0.28608  1.0000
  C   C4814     1.0  0.65309  0.66890  0.30475  1.0000
  C   C4815     1.0  0.68505  0.67609  0.27570  1.0000
  C   C4816     1.0  0.70392  0.66797  0.26654  1.0000
  C   C4817     1.0  0.71839  0.68137  0.25884  1.0000
  C   C4818     1.0  0.71383  0.70305  0.25975  1.0000
  C   C4819     1.0  0.69492  0.71134  0.26855  1.0000
  C   C4820     1.0  0.68063  0.69792  0.27656  1.0000
  C   C4821     1.0  0.66441  0.67674  0.31480  1.0000
  C   C4822     1.0  0.65416  0.68467  0.32918  1.0000
  C   C4823     1.0  0.63253  0.68487  0.33362  1.0000
  C   C4824     1.0  0.62115  0.67711  0.32371  1.0000
  C   C4825     1.0  0.63135  0.66911  0.30935  1.0000
  C   C4826     1.0  0.64673  0.65931  0.27303  1.0000
  C   C4827     1.0  0.63749  0.64120  0.27323  1.0000
  C   C4828     1.0  0.62114  0.64211  0.26405  1.0000
  C   C4829     1.0  0.61357  0.66118  0.25492  1.0000
  C   C4830     1.0  0.62245  0.67928  0.25487  1.0000
  C   C4831     1.0  0.63905  0.67838  0.26376  1.0000
  H   H3825     1.0  0.70167  0.58856  0.27272  1.0000
  H   H3826     1.0  0.71101  0.57564  0.30077  1.0000
  H   H3827     1.0  0.70080  0.59891  0.32259  1.0000
  H   H3828     1.0  0.68135  0.63475  0.31658  1.0000
  H   H3829     1.0  0.68219  0.62434  0.26647  1.0000
  H   H3830     1.0  0.70753  0.65139  0.26511  1.0000
  H   H3831     1.0  0.73285  0.67496  0.25172  1.0000
  H   H3832     1.0  0.72476  0.71350  0.25341  1.0000
  H   H3833     1.0  0.69122  0.72823  0.26896  1.0000
  H   H3834     1.0  0.66601  0.70464  0.28320  1.0000
  H   H3835     1.0  0.68118  0.67668  0.31152  1.0000
  H   H3836     1.0  0.66297  0.69071  0.33688  1.0000
  C   C4832     1.0  0.54820  0.74497  0.21200  1.0000
  H   H3837     1.0  0.77910  0.93066  0.24277  1.0000
  H   H3838     1.0  0.62211  0.66324  0.30189  1.0000
  H   H3839     1.0  0.64263  0.62643  0.28063  1.0000
  H   H3840     1.0  0.61419  0.62807  0.26412  1.0000
  H   H3841     1.0  0.60073  0.66205  0.24794  1.0000
  H   H3842     1.0  0.61633  0.69410  0.24799  1.0000
  H   H3843     1.0  0.64564  0.69266  0.26344  1.0000
  H   H3844     1.0  0.69379  0.86948  0.20999  1.0000
  H   H3845     1.0  0.94592  0.70620  0.23565  1.0000
  H   H3846     1.0  0.60432  0.67744  0.32709  1.0000
  H   H3847     1.0  0.56514  0.76930  0.27651  1.0000
  C   C4833     1.0  0.68194  0.95424  0.25067  1.0000
  C   C4834     1.0  0.97423  0.73994  0.19875  1.0000
  S   S650      1.0  0.50470  0.76502  0.32453  1.0000
  C   C4835     1.0  0.62816  0.74305  0.28459  1.0000
  C   C4836     1.0  0.62467  0.73240  0.30059  1.0000
  C   C4837     1.0  0.60967  0.74166  0.31240  1.0000
  C   C4838     1.0  0.59830  0.76166  0.30828  1.0000
  C   C4839     1.0  0.60195  0.77258  0.29228  1.0000
  C   C4840     1.0  0.61678  0.76301  0.28041  1.0000
  P   P160      1.0  0.58802  0.79869  0.28665  1.0000
  C   C4841     1.0  0.56629  0.80531  0.30244  1.0000
  C   C4842     1.0  0.60518  0.81844  0.28429  1.0000
  C   C4843     1.0  0.62709  0.81275  0.28308  1.0000
  C   C4844     1.0  0.64001  0.82829  0.28145  1.0000
  C   C4845     1.0  0.63127  0.84960  0.28083  1.0000
  C   C4846     1.0  0.60950  0.85541  0.28200  1.0000
  C   C4847     1.0  0.59649  0.83990  0.28376  1.0000
  C   C4848     1.0  0.57029  0.81078  0.31720  1.0000
  C   C4849     1.0  0.55371  0.81602  0.32953  1.0000
  C   C4850     1.0  0.53302  0.81602  0.32716  1.0000
  C   C4851     1.0  0.52889  0.81080  0.31249  1.0000
  C   C4852     1.0  0.54541  0.80542  0.30018  1.0000
  C   C4853     1.0  0.57868  0.79799  0.26750  1.0000
  C   C4854     1.0  0.58281  0.81311  0.25369  1.0000
  C   C4855     1.0  0.57565  0.81210  0.23891  1.0000
  C   C4856     1.0  0.56437  0.79603  0.23782  1.0000
  C   C4857     1.0  0.56065  0.78065  0.25139  1.0000
  C   C4858     1.0  0.56790  0.78151  0.26614  1.0000
  H   H3848     1.0  0.63945  0.73576  0.27533  1.0000
  H   H3849     1.0  0.63316  0.71678  0.30371  1.0000
  H   H3850     1.0  0.60635  0.73309  0.32464  1.0000
  H   H3851     1.0  0.58643  0.76824  0.31753  1.0000
  H   H3852     1.0  0.61955  0.77104  0.26790  1.0000
  H   H3853     1.0  0.63438  0.79645  0.28334  1.0000
  H   H3854     1.0  0.65689  0.82379  0.28048  1.0000
  H   H3855     1.0  0.64141  0.86156  0.27935  1.0000
  H   H3856     1.0  0.60270  0.87194  0.28153  1.0000
  H   H3857     1.0  0.57964  0.84463  0.28465  1.0000
  H   H3858     1.0  0.58624  0.81082  0.31923  1.0000
  H   H3859     1.0  0.55680  0.81997  0.34100  1.0000
  H   H3860     1.0  0.77819  0.55027  0.37417  1.0000
  C   C4859     1.0  0.69279  0.89744  0.34702  1.0000
  C   C4860     1.0  0.50282  0.80949  0.37012  1.0000
  H   H3861     1.0  0.64150  0.84323  0.22475  1.0000
  H   H3862     1.0  0.92881  0.78309  0.23997  1.0000
  H   H3863     1.0  0.66543  0.89414  0.22313  1.0000
  C   C4861     1.0  0.69665  0.96150  0.22205  1.0000
  C   C4862     1.0  0.52135  0.72438  0.22660  1.0000
  C   C4863     1.0  0.72330  0.92879  0.18680  1.0000
  C   C4864     1.0  0.77047  0.69802  0.20757  1.0000
  H   H3864     1.0  0.97435  0.68881  0.21654  1.0000
  H   H3865     1.0  0.51529  0.68160  0.30398  1.0000
  C   C4865     1.0  0.52708  0.63365  0.37973  1.0000
  H   H3866     1.0  0.84710  0.73634  0.19958  1.0000
  Fe  Fe328     1.0  0.69245  0.96618  0.37741  1.0000
  H   H3867     1.0  0.68265  0.87798  0.28516  1.0000
  C   C4866     1.0  0.78518  0.68071  0.21277  1.0000
  C   C4867     1.0  0.89629  0.79154  0.23720  1.0000
  H   H3868     1.0  0.92849  0.69048  0.37204  1.0000
  H   H3869     1.0  0.55313  0.80068  0.37872  1.0000
  H   H3870     1.0  0.67432  0.90148  0.30658  1.0000
  C   C4868     1.0  0.53731  0.80874  0.37790  1.0000
  H   H3871     1.0  0.78934  0.97254  0.27481  1.0000
  H   H3872     1.0  0.70924  0.89382  0.32248  1.0000
  C   C4869     1.0  0.72921  0.90201  0.33765  1.0000
  C   C4870     1.0  0.61732  0.95317  0.37546  1.0000
  H   H3873     1.0  0.49911  0.60862  0.37499  1.0000
  C   C4871     1.0  0.96042  0.80932  0.22367  1.0000
  C   C4872     1.0  0.96408  0.76591  0.26837  1.0000
  H   H3874     1.0  0.93605  0.74469  0.23188  1.0000
  C   C4873     1.0  0.75469  0.53331  0.18645  1.0000
  H   H3875     1.0  0.87238  0.69465  0.20729  1.0000
  H   H3876     1.0  0.62453  0.69111  0.34471  1.0000
  H   H3877     1.0  0.71870  0.80276  0.23057  1.0000
  C   C4874     1.0  0.52732  0.68744  0.27816  1.0000
  C   C4875     1.0  0.69456  0.90276  0.36239  1.0000
  H   H3878     1.0  0.54274  0.65014  0.35769  1.0000
  H   H3879     1.0  0.74441  0.70804  0.19341  1.0000
  C   C4876     1.0  0.71403  0.77146  0.19938  1.0000
  C   C4877     1.0  0.71030  0.89705  0.33467  1.0000
  H   H3880     1.0  0.75654  0.80431  0.22225  1.0000
  C   C4878     1.0  0.60797  0.93539  0.38298  1.0000
  H   H3881     1.0  0.99123  0.71651  0.24082  1.0000
  H   H3882     1.0  0.76850  0.64194  0.19739  1.0000
  C   C4879     1.0  0.52302  0.69742  0.26257  1.0000
  H   H3883     1.0  0.89122  0.79203  0.25026  1.0000
  H   H3884     1.0  0.67416  0.94021  0.23107  1.0000
  H   H3885     1.0  0.63144  0.90411  0.21227  1.0000
  H   H3886     1.0  0.83046  0.66255  0.18919  1.0000
  H   H3887     1.0  0.55897  0.69470  0.20276  1.0000
  H   H3888     1.0  0.70009  0.78249  0.19681  1.0000
  H   H3889     1.0  0.99196  0.75027  0.30075  1.0000
  H   H3890     1.0  0.55463  0.75967  0.20924  1.0000
  H   H3891     1.0  0.96379  0.67386  0.37848  1.0000
  H   H3892     1.0  0.64474  0.96879  0.37230  1.0000
  H   H3893     1.0  0.49925  0.75298  0.26235  1.0000
  Fe  Fe329     1.0  0.72749  0.99017  0.38237  1.0000
  H   H3894     1.0  0.97833  0.69127  0.33270  1.0000
  C   C4880     1.0  0.79666  0.73020  0.19790  1.0000
  C   C4881     1.0  0.75555  0.69497  0.19810  1.0000
  H   H3895     1.0  0.98183  0.74892  0.18805  1.0000
  H   H3896     1.0  0.96691  0.83322  0.23658  1.0000
  C   C4882     1.0  0.98242  0.70642  0.30759  1.0000
  C   C4883     1.0  0.50281  0.67289  0.38382  1.0000
  H   H3897     1.0  0.72394  0.82377  0.37315  1.0000
  Fe  Fe330     1.0  0.61629  0.74390  0.19617  1.0000
  H   H3898     1.0  0.76888  0.82536  0.19572  1.0000
  H   H3899     1.0  0.52843  0.78408  0.36690  1.0000
  H   H3900     1.0  0.57330  0.72849  0.19651  1.0000
  C   C4884     1.0  0.86945  0.68514  0.19855  1.0000
  C   C4885     1.0  0.61811  0.87491  0.37544  1.0000
  H   H3901     1.0  0.95494  0.81007  0.28730  1.0000
  H   H3902     1.0  0.95230  0.63801  0.20140  1.0000
  C   C4886     1.0  0.98610  0.77750  0.22349  1.0000
  C   C4887     1.0  0.97225  0.81764  0.23294  1.0000
  S   S651      1.0  0.58217  0.93390  0.38002  1.0000
  H   H3903     1.0  0.97587  0.81229  0.18923  1.0000
  H   H3904     1.0  0.72038  0.97780  0.28315  1.0000
  H   H3905     1.0  0.83296  0.59748  0.20104  1.0000
  H   H3906     1.0  0.52108  0.68490  0.36129  1.0000
  C   C4888     1.0  0.92610  0.84700  0.37876  1.0000
  C   C4889     1.0  0.78009  0.96869  0.26633  1.0000
  H   H3907     1.0  0.53679  0.61859  0.37811  1.0000
  C   C4890     1.0  0.93146  0.86710  0.37286  1.0000
  H   H3908     1.0  0.76723  0.76611  0.19062  1.0000
  H   H3909     1.0  0.74281  0.67240  0.18771  1.0000
  C   C4891     1.0  0.73773  0.83588  0.18924  1.0000
  P   P161      1.0  0.72521  0.99410  0.24797  1.0000
  C   C4892     1.0  0.84589  0.66698  0.18838  1.0000
  H   H3910     1.0  0.70649  0.99462  0.30808  1.0000
  C   C4893     1.0  0.63780  0.95485  0.37780  1.0000
  C   C4894     1.0  0.95080  0.64185  0.18842  1.0000
  C   C4895     1.0  0.51048  0.83878  0.38241  1.0000
  H   H3911     1.0  0.99184  0.76207  0.21979  1.0000
  C   C4896     1.0  0.53099  0.82852  0.38355  1.0000
  C   C4897     1.0  0.67605  0.86518  0.19124  1.0000
  C   C4898     1.0  0.88553  0.67882  0.18621  1.0000
  H   H3912     1.0  0.95533  0.74748  0.55571  1.0000
  H   H3913     1.0  0.96531  0.68518  0.42018  1.0000
  S   S652      1.0  0.97615  0.93028  0.44806  1.0000
  C   C4899     1.0  0.96304  0.58787  0.42705  1.0000
  S   S653      1.0  0.98120  0.63721  0.49388  1.0000
  S   S654      1.0  0.98114  0.66397  0.44941  1.0000
  C   C4900     1.0  0.60260  0.99793  0.57207  1.0000
  C   C4901     1.0  0.50975  0.82790  0.51562  1.0000
  S   S655      1.0  0.95036  0.58810  0.50425  1.0000
  H   H3914     1.0  0.91543  0.95614  0.50889  1.0000
  H   H3915     1.0  0.94393  0.61263  0.46198  1.0000
  H   H3916     1.0  0.96947  0.68080  0.54228  1.0000
  C   C4902     1.0  0.98349  0.87356  0.53517  1.0000
  S   S656      1.0  0.90937  0.53340  0.46452  1.0000
  C   C4903     1.0  0.76037  0.94665  0.54223  1.0000
  S   S657      1.0  0.50148  0.78520  0.57180  1.0000
  Fe  Fe331     1.0  0.86337  0.96898  0.47820  1.0000
  S   S658      1.0  0.88336  0.93782  0.48608  1.0000
  C   C4904     1.0  0.76035  0.96858  0.49506  1.0000
  S   S659      1.0  0.83000  0.97032  0.47393  1.0000
  H   H3917     1.0  0.98769  0.65389  0.52459  1.0000
  H   H3918     1.0  0.95735  0.79587  0.51361  1.0000
  C   C4905     1.0  0.98632  0.81894  0.58108  1.0000
  C   C4906     1.0  0.62787  0.86076  0.38745  1.0000
  Fe  Fe332     1.0  0.55423  0.88758  0.43255  1.0000
  S   S660      1.0  0.54557  0.92160  0.42223  1.0000
  S   S661      1.0  0.56340  0.87451  0.45788  1.0000
  Fe  Fe333     1.0  0.51816  0.91077  0.41475  1.0000
  C   C4907     1.0  0.51927  0.95043  0.53654  1.0000
  C   C4908     1.0  0.58752  0.97390  0.46313  1.0000
  H   H3919     1.0  0.53462  0.94150  0.53789  1.0000
  S   S662      1.0  0.52587  0.87703  0.42640  1.0000
  S   S663      1.0  0.57404  0.87897  0.40911  1.0000
  C   C4909     1.0  0.80365  0.98804  0.40456  1.0000
  H   H3920     1.0  0.82405  0.98353  0.52512  1.0000
  H   H3921     1.0  0.86756  0.82607  0.57959  1.0000
  Fe  Fe334     1.0  0.57250  0.91363  0.53917  1.0000
  S   S664      1.0  0.54506  0.89960  0.55427  1.0000
  S   S665      1.0  0.56981  0.92952  0.51298  1.0000
  Fe  Fe335     1.0  0.59721  0.90683  0.56858  1.0000
  Fe  Fe336     1.0  0.56943  0.87507  0.56542  1.0000
  Fe  Fe337     1.0  0.54920  0.91974  0.57284  1.0000
  H   H3922     1.0  0.95943  0.81908  0.41553  1.0000
  S   S666      1.0  0.59664  0.88734  0.54868  1.0000
  S   S667      1.0  0.57579  0.93467  0.55745  1.0000
  H   H3923     1.0  0.94023  0.98210  0.50296  1.0000
  H   H3924     1.0  0.88519  0.52622  0.57334  1.0000
  C   C4910     1.0  0.92683  0.66261  0.44438  1.0000
  H   H3925     1.0  0.51712  0.86236  0.46689  1.0000
  C   C4911     1.0  0.54543  0.58759  0.41567  1.0000
  H   H3926     1.0  0.58523  0.97429  0.56766  1.0000
  Fe  Fe338     1.0  0.56284  0.91217  0.39813  1.0000
  H   H3927     1.0  0.54539  0.98491  0.45064  1.0000
  C   C4912     1.0  0.52306  0.99882  0.56412  1.0000
  H   H3928     1.0  0.64991  0.92935  0.52941  1.0000
  C   C4913     1.0  0.52140  0.80031  0.57170  1.0000
  C   C4914     1.0  0.73221  0.52711  0.42718  1.0000
  C   C4915     1.0  0.56406  0.58362  0.42263  1.0000
  C   C4916     1.0  0.89284  0.58736  0.44752  1.0000
  C   C4917     1.0  0.56404  0.89020  0.47322  1.0000
  C   C4918     1.0  0.56030  0.91231  0.47025  1.0000
  C   C4919     1.0  0.56222  0.92420  0.48251  1.0000
  C   C4920     1.0  0.56732  0.91413  0.49793  1.0000
  C   C4921     1.0  0.57042  0.89207  0.50106  1.0000
  C   C4922     1.0  0.56888  0.88014  0.48872  1.0000
  H   H3929     1.0  0.55625  0.92020  0.45844  1.0000
  H   H3930     1.0  0.55971  0.94124  0.48006  1.0000
  H   H3931     1.0  0.57456  0.88424  0.51284  1.0000
  H   H3932     1.0  0.57182  0.86305  0.49110  1.0000
  H   H3933     1.0  0.52458  0.99888  0.39556  1.0000
  C   C4923     1.0  0.78824  0.98512  0.56005  1.0000
  C   C4924     1.0  0.89042  0.90888  0.58032  1.0000
  H   H3934     1.0  0.90019  0.65114  0.41353  1.0000
  C   C4925     1.0  0.99424  0.67210  0.42975  1.0000
  C   C4926     1.0  0.53686  0.61581  0.53630  1.0000
  H   H3935     1.0  0.96661  0.52567  0.50384  1.0000
  C   C4927     1.0  0.73008  0.52880  0.45633  1.0000
  H   H3936     1.0  0.71394  0.55247  0.43946  1.0000
  H   H3937     1.0  0.53079  0.85154  0.56326  1.0000
  H   H3938     1.0  0.96563  0.70811  0.44528  1.0000
  H   H3939     1.0  0.87353  0.97006  0.41315  1.0000
  H   H3940     1.0  0.98361  0.55803  0.42709  1.0000
  S   S668      1.0  0.67468  0.93995  0.39099  1.0000
  C   C4928     1.0  0.66686  0.95431  0.57908  1.0000
  H   H3941     1.0  0.87810  0.56870  0.43496  1.0000
  C   C4929     1.0  0.69773  0.93476  0.53799  1.0000
  H   H3942     1.0  0.55894  0.62883  0.43972  1.0000
  H   H3943     1.0  0.97168  0.81632  0.52789  1.0000
  C   C4930     1.0  0.80928  0.98724  0.53287  1.0000
  H   H3944     1.0  0.78695  0.80278  0.57519  1.0000
  C   C4931     1.0  0.93421  0.64592  0.40948  1.0000
  H   H3945     1.0  0.88613  0.58061  0.45967  1.0000
  C   C4932     1.0  0.50014  0.51553  0.50089  1.0000
  H   H3946     1.0  0.54917  0.62253  0.52775  1.0000
  C   C4933     1.0  0.52705  0.97353  0.47317  1.0000
  C   C4934     1.0  0.54021  0.60756  0.55247  1.0000
  C   C4935     1.0  0.76665  0.51632  0.48308  1.0000
  S   S669      1.0  0.99163  0.60430  0.46638  1.0000
  H   H3947     1.0  0.89674  0.67895  0.38951  1.0000
  C   C4936     1.0  0.88576  0.94249  0.40109  1.0000
  C   C4937     1.0  0.98229  0.91412  0.54287  1.0000
  H   H3948     1.0  0.99363  0.55510  0.55080  1.0000
  C   C4938     1.0  0.50617  0.54279  0.51551  1.0000
  H   H3949     1.0  0.50370  0.80667  0.48724  1.0000
  H   H3950     1.0  0.93896  0.63083  0.48639  1.0000
  H   H3951     1.0  0.85849  0.53148  0.55431  1.0000
  H   H3952     1.0  0.77345  0.95957  0.45518  1.0000
  H   H3953     1.0  0.82103  0.97220  0.55539  1.0000
  C   C4939     1.0  0.62316  0.78933  0.57619  1.0000
  C   C4940     1.0  0.97181  0.75163  0.41710  1.0000
  C   C4941     1.0  0.93883  0.57321  0.49297  1.0000
  C   C4942     1.0  0.94742  0.56981  0.47688  1.0000
  C   C4943     1.0  0.93798  0.55788  0.46829  1.0000
  C   C4944     1.0  0.92016  0.54875  0.47580  1.0000
  C   C4945     1.0  0.91143  0.55224  0.49183  1.0000
  C   C4946     1.0  0.92069  0.56449  0.50034  1.0000
  H   H3954     1.0  0.96134  0.57629  0.47100  1.0000
  H   H3955     1.0  0.94473  0.55535  0.45586  1.0000
  S   S670      1.0  0.85599  0.99515  0.49397  1.0000
  H   H3956     1.0  0.91370  0.56722  0.51269  1.0000
  C   C4947     1.0  0.53361  0.83460  0.56685  1.0000
  H   H3957     1.0  0.58014  0.96813  0.48956  1.0000
  H   H3958     1.0  0.96416  0.76165  0.40741  1.0000
  C   C4948     1.0  0.95044  0.93181  0.45866  1.0000
  C   C4949     1.0  0.93772  0.95156  0.45836  1.0000
  C   C4950     1.0  0.91725  0.95346  0.46690  1.0000
  C   C4951     1.0  0.90909  0.93552  0.47535  1.0000
  C   C4952     1.0  0.92174  0.91565  0.47555  1.0000
  C   C4953     1.0  0.94245  0.91380  0.46729  1.0000
  H   H3959     1.0  0.94377  0.96549  0.45162  1.0000
  H   H3960     1.0  0.90797  0.96890  0.46714  1.0000
  H   H3961     1.0  0.91557  0.90173  0.48213  1.0000
  H   H3962     1.0  0.95215  0.89848  0.46753  1.0000
  H   H3963     1.0  0.76193  0.88594  0.54635  1.0000
  C   C4954     1.0  0.99152  0.72565  0.44208  1.0000
  H   H3964     1.0  0.67258  0.91867  0.55139  1.0000
  C   C4955     1.0  0.51167  0.94933  0.45418  1.0000
  C   C4956     1.0  0.98227  0.68328  0.41771  1.0000
  C   C4957     1.0  0.78381  0.98934  0.39952  1.0000
  C   C4958     1.0  0.96300  0.73419  0.42572  1.0000
  H   H3965     1.0  0.91981  0.68996  0.45712  1.0000
  C   C4959     1.0  0.91513  0.74429  0.46744  1.0000
  C   C4960     1.0  0.92671  0.75741  0.45571  1.0000
  C   C4961     1.0  0.94691  0.75970  0.45788  1.0000
  C   C4962     1.0  0.95567  0.74862  0.47163  1.0000
  C   C4963     1.0  0.94397  0.73585  0.48372  1.0000
  C   C4964     1.0  0.92363  0.73367  0.48147  1.0000
  P   P162      1.0  0.95471  0.72368  0.50232  1.0000
  H   H3966     1.0  0.77578  0.54050  0.51421  1.0000
  C   C4965     1.0  0.95453  0.74349  0.51540  1.0000
  C   C4966     1.0  0.95435  0.73748  0.53243  1.0000
  C   C4967     1.0  0.90288  0.98581  0.53931  1.0000
  P   P163      1.0  0.59676  0.98137  0.42866  1.0000
  C   C4968     1.0  0.95623  0.77964  0.51895  1.0000
  C   C4969     1.0  0.95541  0.76475  0.50875  1.0000
  H   H3967     1.0  0.69683  0.96371  0.49990  1.0000
  S   S671      1.0  0.57319  0.83952  0.57189  1.0000
  C   C4970     1.0  0.99047  0.75615  0.42094  1.0000
  C   C4971     1.0  0.56887  0.59839  0.43141  1.0000
  C   C4972     1.0  0.51717  0.81174  0.47906  1.0000
  C   C4973     1.0  0.93921  0.70394  0.51357  1.0000
  C   C4974     1.0  0.94616  0.68227  0.51307  1.0000
  C   C4975     1.0  0.93411  0.66720  0.52194  1.0000
  C   C4976     1.0  0.91505  0.67363  0.53142  1.0000
  C   C4977     1.0  0.90799  0.69516  0.53203  1.0000
  C   C4978     1.0  0.91999  0.71027  0.52313  1.0000
  H   H3968     1.0  0.89948  0.74247  0.46572  1.0000
  H   H3969     1.0  0.92013  0.76570  0.44485  1.0000
  H   H3970     1.0  0.51089  0.52303  0.46734  1.0000
  P   P164      1.0  0.93631  0.62682  0.42795  1.0000
  H   H3971     1.0  0.91426  0.72383  0.49047  1.0000
  H   H3972     1.0  0.78267  0.98607  0.38739  1.0000
  H   H3973     1.0  0.90004  0.91352  0.39205  1.0000
  C   C4979     1.0  0.52775  0.53559  0.51302  1.0000
  C   C4980     1.0  0.98131  0.71118  0.49670  1.0000
  H   H3974     1.0  0.95581  0.77003  0.49573  1.0000
  H   H3975     1.0  0.50371  0.56835  0.42143  1.0000
  C   C4981     1.0  0.74746  0.93850  0.53369  1.0000
  C   C4982     1.0  0.79385  0.54181  0.49005  1.0000
  C   C4983     1.0  0.59716  0.55452  0.58400  1.0000
  H   H3976     1.0  0.87426  0.89791  0.51501  1.0000
  H   H3977     1.0  0.96101  0.67681  0.50612  1.0000
  H   H3978     1.0  0.93973  0.65048  0.52161  1.0000
  H   H3979     1.0  0.90585  0.66190  0.53843  1.0000
  H   H3980     1.0  0.89332  0.70012  0.53956  1.0000
  H   H3981     1.0  0.91439  0.72689  0.52383  1.0000
  H   H3982     1.0  0.92239  0.51322  0.56370  1.0000
  C   C4984     1.0  0.95722  0.84411  0.57141  1.0000
  C   C4985     1.0  0.58211  0.98005  0.47883  1.0000
  H   H3983     1.0  0.98261  0.70191  0.39378  1.0000
  H   H3984     1.0  0.98978  0.84228  0.55995  1.0000
  C   C4986     1.0  0.94625  0.96541  0.50302  1.0000
  C   C4987     1.0  0.97873  0.83596  0.56988  1.0000
  C   C4988     1.0  0.67809  0.92816  0.54002  1.0000
  H   H3985     1.0  0.79460  0.82966  0.55093  1.0000
  C   C4989     1.0  0.96698  0.55315  0.53926  1.0000
  C   C4990     1.0  0.53139  0.76951  0.50829  1.0000
  H   H3986     1.0  0.58144  0.95876  0.40617  1.0000
  C   C4991     1.0  0.79633  0.53552  0.47447  1.0000
  H   H3987     1.0  0.76557  0.51525  0.56583  1.0000
  H   H3988     1.0  0.78354  0.90075  0.56227  1.0000
  H   H3989     1.0  0.98404  0.85800  0.53194  1.0000
  C   C4992     1.0  0.92891  0.66157  0.47337  1.0000
  C   C4993     1.0  0.49841  0.55357  0.40147  1.0000
  C   C4994     1.0  0.99205  0.69299  0.40278  1.0000
  C   C4995     1.0  0.87803  0.87411  0.53624  1.0000
  C   C4996     1.0  0.76147  0.90290  0.54523  1.0000
  S   S672      1.0  0.82754  0.51099  0.52343  1.0000
  C   C4997     1.0  0.91422  0.65564  0.40580  1.0000
  C   C4998     1.0  0.99700  0.99334  0.54344  1.0000
  C   C4999     1.0  0.76540  0.95845  0.46774  1.0000
  C   C5000     1.0  0.95208  0.65260  0.39946  1.0000
  C   C5001     1.0  0.51814  0.51640  0.44250  1.0000
  C   C5002     1.0  0.50468  0.94802  0.47113  1.0000
  H   H3990     1.0  0.91164  0.89343  0.54326  1.0000
  H   H3991     1.0  0.88111  0.91616  0.55606  1.0000
  C   C5003     1.0  0.76373  0.52341  0.49854  1.0000
  C   C5004     1.0  0.74405  0.95639  0.50006  1.0000
  S   S673      1.0  0.69222  0.99629  0.38725  1.0000
  H   H3992     1.0  0.50901  0.53099  0.43763  1.0000
  C   C5005     1.0  0.88088  0.52201  0.53384  1.0000
  C   C5006     1.0  0.55300  0.82487  0.57152  1.0000
  H   H3993     1.0  0.99358  0.95483  0.46548  1.0000
  H   H3994     1.0  0.97146  0.75029  0.47296  1.0000
  C   C5007     1.0  0.67214  0.94700  0.51317  1.0000
  C   C5008     1.0  0.53926  0.75867  0.54093  1.0000
  C   C5009     1.0  0.77351  0.50748  0.55545  1.0000
  H   H3995     1.0  0.65729  0.84591  0.39542  1.0000
  H   H3996     1.0  0.51537  0.50261  0.53901  1.0000
  P   P165      1.0  0.98588  0.97768  0.49366  1.0000
  C   C5010     1.0  0.77372  0.91122  0.55415  1.0000
  C   C5011     1.0  0.77089  0.99642  0.55303  1.0000
  H   H3997     1.0  0.86919  0.52436  0.52556  1.0000
  H   H3998     1.0  0.94161  0.54665  0.52838  1.0000
  H   H3999     1.0  0.91641  0.85024  0.41971  1.0000
  H   H4000     1.0  0.83903  0.91418  0.52677  1.0000
  S   S674      1.0  0.96545  0.79924  0.38608  1.0000
  H   H4001     1.0  0.96681  0.90557  0.50264  1.0000
  P   P166      1.0  0.93011  0.89235  0.41502  1.0000
  C   C5012     1.0  0.92506  0.87928  0.43590  1.0000
  C   C5013     1.0  0.95753  0.89575  0.41031  1.0000
  C   C5014     1.0  0.97243  0.87988  0.40358  1.0000
  H   H4002     1.0  0.98173  0.92996  0.54573  1.0000
  C   C5015     1.0  0.51106  0.63525  0.39321  1.0000
  H   H4003     1.0  0.50002  0.55610  0.52220  1.0000
  C   C5016     1.0  0.96431  0.91410  0.41314  1.0000
  C   C5017     1.0  0.90528  0.88349  0.44536  1.0000
  C   C5018     1.0  0.90139  0.87323  0.46146  1.0000
  C   C5019     1.0  0.91707  0.85841  0.46814  1.0000
  C   C5020     1.0  0.93666  0.85385  0.45873  1.0000
  C   C5021     1.0  0.94061  0.86420  0.44263  1.0000
  C   C5022     1.0  0.91297  0.91752  0.41359  1.0000
  C   C5023     1.0  0.89983  0.92352  0.40130  1.0000
  H   H4004     1.0  0.57490  0.56916  0.42106  1.0000
  C   C5024     1.0  0.88465  0.95551  0.41315  1.0000
  C   C5025     1.0  0.89763  0.94960  0.42542  1.0000
  C   C5026     1.0  0.91161  0.93067  0.42572  1.0000
  C   C5027     1.0  0.50478  0.59911  0.55847  1.0000
  H   H4005     1.0  0.64887  0.90758  0.40161  1.0000
  C   C5028     1.0  0.66528  0.93425  0.52764  1.0000
  H   H4006     1.0  0.50670  0.95993  0.49354  1.0000
  H   H4007     1.0  0.50382  0.81103  0.45709  1.0000
  C   C5029     1.0  0.90188  0.51476  0.52830  1.0000
  C   C5030     1.0  0.88989  0.52300  0.56077  1.0000
  S   S675      1.0  0.84951  0.52431  0.47740  1.0000
  H   H4008     1.0  0.94925  0.58049  0.42762  1.0000
  H   H4009     1.0  0.80616  0.51134  0.41421  1.0000
  H   H4010     1.0  0.89280  0.89475  0.44039  1.0000
  H   H4011     1.0  0.88623  0.87695  0.46877  1.0000
  H   H4012     1.0  0.91401  0.85050  0.48060  1.0000
  H   H4013     1.0  0.94891  0.84245  0.46392  1.0000
  H   H4014     1.0  0.95577  0.86048  0.43543  1.0000
  H   H4015     1.0  0.95465  0.98500  0.47072  1.0000
  S   S676      1.0  0.52519  0.72309  0.58270  1.0000
  H   H4016     1.0  0.95352  0.92653  0.41852  1.0000
  H   H4017     1.0  0.89669  0.95952  0.43488  1.0000
  H   H4018     1.0  0.92105  0.92612  0.43567  1.0000
  H   H4019     1.0  0.62501  0.94507  0.56278  1.0000
  Fe  Fe339     1.0  0.54467  0.87100  0.40212  1.0000
  C   C5031     1.0  0.84918  0.87522  0.55885  1.0000
  H   H4020     1.0  0.61221  0.90546  0.39855  1.0000
  C   C5032     1.0  0.55510  0.61723  0.43313  1.0000
  H   H4021     1.0  0.91482  0.97209  0.53806  1.0000
  C   C5033     1.0  0.53942  0.77946  0.53314  1.0000
  H   H4022     1.0  0.98382  0.83404  0.42908  1.0000
  C   C5034     1.0  0.92603  0.87549  0.40087  1.0000
  C   C5035     1.0  0.60358  0.98648  0.54547  1.0000
  H   H4023     1.0  0.99531  0.80004  0.48989  1.0000
  C   C5036     1.0  0.92278  0.88455  0.58270  1.0000
  C   C5037     1.0  0.74606  0.50815  0.42892  1.0000
  H   H4024     1.0  0.61772  0.79640  0.56459  1.0000
  C   C5038     1.0  0.82175  0.84498  0.57755  1.0000
  C   C5039     1.0  0.51712  0.81427  0.46201  1.0000
  S   S677      1.0  0.98464  0.84204  0.49794  1.0000
  Fe  Fe340     1.0  0.99714  0.89932  0.45318  1.0000
  C   C5040     1.0  0.55253  0.97713  0.40006  1.0000
  H   H4025     1.0  0.50048  0.80375  0.53562  1.0000
  C   C5041     1.0  0.60783  0.95365  0.43073  1.0000
  C   C5042     1.0  0.59466  0.93803  0.43513  1.0000
  C   C5043     1.0  0.60323  0.91664  0.43774  1.0000
  C   C5044     1.0  0.62498  0.91070  0.43626  1.0000
  C   C5045     1.0  0.63819  0.92615  0.43198  1.0000
  C   C5046     1.0  0.62969  0.94753  0.42909  1.0000
  C   C5047     1.0  0.57017  0.97272  0.40826  1.0000
  H   H4026     1.0  0.80899  0.54008  0.46509  1.0000
  C   C5048     1.0  0.93357  0.64066  0.44560  1.0000
  C   C5049     1.0  0.95503  0.53976  0.53460  1.0000
  C   C5050     1.0  0.96784  0.95860  0.49889  1.0000
  H   H4027     1.0  0.58959  0.95723  0.46213  1.0000
  S   S678      1.0  0.82810  0.50609  0.44201  1.0000
  H   H4028     1.0  0.89419  0.58318  0.40713  1.0000
  H   H4029     1.0  0.52806  0.73670  0.50957  1.0000
  C   C5051     1.0  0.92026  0.85539  0.40667  1.0000
  C   C5052     1.0  0.98552  0.91649  0.40928  1.0000
  C   C5053     1.0  0.50339  0.59038  0.39887  1.0000
  C   C5054     1.0  0.98939  0.82748  0.41775  1.0000
  H   H4030     1.0  0.53452  0.72725  0.53866  1.0000
  H   H4031     1.0  0.57776  0.94236  0.43671  1.0000
  H   H4032     1.0  0.59302  0.90462  0.44094  1.0000
  H   H4033     1.0  0.63159  0.89411  0.43817  1.0000
  H   H4034     1.0  0.65509  0.92156  0.43033  1.0000
  H   H4035     1.0  0.64029  0.95912  0.42547  1.0000
  H   H4036     1.0  0.88298  0.97659  0.52426  1.0000
  H   H4037     1.0  0.91683  0.82538  0.40015  1.0000
  P   P167      1.0  0.50749  0.61224  0.40833  1.0000
  C   C5055     1.0  0.51898  0.51161  0.45943  1.0000
  C   C5056     1.0  0.64159  0.92280  0.58010  1.0000
  C   C5057     1.0  0.98981  0.52271  0.55067  1.0000
  H   H4038     1.0  0.52605  0.63605  0.42739  1.0000
  C   C5058     1.0  0.92461  0.67301  0.45821  1.0000
  C   C5059     1.0  0.99359  0.88239  0.39970  1.0000
  H   H4039     1.0  0.99065  0.93050  0.41185  1.0000
  H   H4040     1.0  0.61839  0.85289  0.39782  1.0000
  C   C5060     1.0  0.53421  0.82107  0.45126  1.0000
  H   H4041     1.0  0.99110  0.79603  0.55013  1.0000
  H   H4042     1.0  0.75249  0.50028  0.41827  1.0000
  H   H4043     1.0  0.95599  0.76973  0.44872  1.0000
  C   C5061     1.0  0.92038  0.84121  0.39563  1.0000
  H   H4044     1.0  0.66205  0.95203  0.50369  1.0000
  S   S679      1.0  0.83076  0.99109  0.42586  1.0000
  H   H4045     1.0  0.91018  0.60643  0.45703  1.0000
  C   C5062     1.0  0.50215  0.57055  0.40847  1.0000
  C   C5063     1.0  0.91092  0.51567  0.55527  1.0000
  C   C5064     1.0  0.77749  0.53586  0.50204  1.0000
  H   H4046     1.0  0.82280  0.89984  0.55426  1.0000
  C   C5065     1.0  0.50771  0.91582  0.50555  1.0000
  H   H4047     1.0  0.92730  0.66958  0.48407  1.0000
  H   H4048     1.0  0.96772  0.64582  0.40188  1.0000
  C   C5066     1.0  0.80090  0.82975  0.56219  1.0000
  S   S680      1.0  0.62662  0.90239  0.58080  1.0000
  C   C5067     1.0  0.58517  0.55164  0.57231  1.0000
  H   H4049     1.0  0.99173  0.93113  0.49626  1.0000
  C   C5068     1.0  0.98596  0.69899  0.48369  1.0000
  H   H4050     1.0  0.50196  0.95899  0.39723  1.0000
  H   H4051     1.0  0.65662  0.81564  0.57847  1.0000
  C   C5069     1.0  0.52174  0.50817  0.49832  1.0000
  H   H4052     1.0  0.73910  0.90985  0.52806  1.0000
  C   C5070     1.0  0.56456  0.56219  0.57232  1.0000
  S   S681      1.0  0.98443  0.70678  0.56107  1.0000
  C   C5071     1.0  0.78294  0.52268  0.47104  1.0000
  Fe  Fe341     1.0  0.88409  0.51273  0.47499  1.0000
  H   H4053     1.0  0.96786  0.86544  0.40135  1.0000
  H   H4054     1.0  0.54237  0.57617  0.40856  1.0000
  H   H4055     1.0  0.97229  0.52316  0.47414  1.0000
  C   C5072     1.0  0.64003  0.92044  0.39442  1.0000
  C   C5073     1.0  0.70516  0.94677  0.52319  1.0000
  C   C5074     1.0  0.79658  0.81460  0.57584  1.0000
  C   C5075     1.0  0.74976  0.94557  0.47280  1.0000
  H   H4056     1.0  0.70525  0.50245  0.47605  1.0000
  H   H4057     1.0  0.92856  0.91796  0.50914  1.0000
  C   C5076     1.0  0.93217  0.95075  0.50669  1.0000
  C   C5077     1.0  0.55129  0.82544  0.45757  1.0000
  C   C5078     1.0  0.55141  0.82295  0.47461  1.0000
  C   C5079     1.0  0.53448  0.81571  0.48552  1.0000
  C   C5080     1.0  0.51717  0.96717  0.52379  1.0000
  P   P168      1.0  0.53394  0.81254  0.50764  1.0000
  C   C5081     1.0  0.93832  0.62945  0.46079  1.0000
  C   C5082     1.0  0.55577  0.82190  0.51352  1.0000
  C   C5083     1.0  0.57632  0.81188  0.50910  1.0000
  C   C5084     1.0  0.59327  0.81804  0.51447  1.0000
  C   C5085     1.0  0.58978  0.83392  0.52456  1.0000
  C   C5086     1.0  0.56936  0.84370  0.52922  1.0000
  C   C5087     1.0  0.55240  0.83778  0.52374  1.0000
  H   H4058     1.0  0.51489  0.62197  0.51870  1.0000
  C   C5088     1.0  0.99007  0.98359  0.51326  1.0000
  H   H4059     1.0  0.52656  0.90008  0.52409  1.0000
  C   C5089     1.0  0.92489  0.88240  0.56593  1.0000
  H   H4060     1.0  0.87545  0.94701  0.39173  1.0000
  C   C5090     1.0  0.93958  0.92918  0.50676  1.0000
  H   H4061     1.0  0.53101  0.54226  0.58410  1.0000
  C   C5091     1.0  0.96019  0.51368  0.49950  1.0000
  C   C5092     1.0  0.50280  0.89344  0.47224  1.0000
  C   C5093     1.0  0.86916  0.86608  0.55204  1.0000
  H   H4062     1.0  0.53839  0.54323  0.51794  1.0000
  C   C5094     1.0  0.53646  0.62124  0.42618  1.0000
  S   S682      1.0  0.98796  0.75883  0.57678  1.0000
  H   H4063     1.0  0.56427  0.83130  0.44922  1.0000
  H   H4064     1.0  0.56452  0.82725  0.47906  1.0000
  C   C5095     1.0  0.77329  0.93308  0.55256  1.0000
  H   H4065     1.0  0.57919  0.79920  0.50161  1.0000
  H   H4066     1.0  0.60911  0.81035  0.51095  1.0000
  H   H4067     1.0  0.60281  0.83856  0.52896  1.0000
  H   H4068     1.0  0.56665  0.85573  0.53730  1.0000
  H   H4069     1.0  0.53676  0.84535  0.52787  1.0000
  C   C5096     1.0  0.57121  0.64766  0.58138  1.0000
  C   C5097     1.0  0.53504  0.74329  0.53247  1.0000
  H   H4070     1.0  0.80480  0.55101  0.49295  1.0000
  H   H4071     1.0  0.64953  0.76898  0.56509  1.0000
  H   H4072     1.0  0.96277  0.57017  0.53652  1.0000
  C   C5098     1.0  0.91144  0.60330  0.41626  1.0000
  H   H4073     1.0  0.54367  0.77368  0.57977  1.0000
  H   H4074     1.0  0.59178  0.54102  0.56334  1.0000
  C   C5099     1.0  0.94995  0.66859  0.38604  1.0000
  C   C5100     1.0  0.51757  0.61553  0.53119  1.0000
  C   C5101     1.0  0.92340  0.82598  0.53291  1.0000
  C   C5102     1.0  0.92548  0.83573  0.51657  1.0000
  C   C5103     1.0  0.93356  0.85482  0.51240  1.0000
  C   C5104     1.0  0.93993  0.86395  0.52451  1.0000
  C   C5105     1.0  0.93859  0.85389  0.54088  1.0000
  C   C5106     1.0  0.92986  0.83503  0.54504  1.0000
  P   P169      1.0  0.94711  0.86556  0.55651  1.0000
  C   C5107     1.0  0.80542  0.99217  0.42034  1.0000
  C   C5108     1.0  0.96738  0.88140  0.54698  1.0000
  C   C5109     1.0  0.96037  0.51771  0.53792  1.0000
  C   C5110     1.0  0.98297  0.80984  0.39553  1.0000
  S   S683      1.0  0.53450  0.90394  0.38972  1.0000
  Fe  Fe342     1.0  0.82336  0.99854  0.48757  1.0000
  S   S684      1.0  0.74012  0.99851  0.40420  1.0000
  H   H4075     1.0  0.61304  0.54609  0.58415  1.0000
  C   C5111     1.0  0.88503  0.98836  0.53151  1.0000
  C   C5112     1.0  0.61930  0.91915  0.39263  1.0000
  C   C5113     1.0  0.96691  0.90183  0.55082  1.0000
  H   H4076     1.0  0.55016  0.96640  0.39202  1.0000
  H   H4077     1.0  0.54195  0.75464  0.55366  1.0000
  H   H4078     1.0  0.81773  0.98385  0.39617  1.0000
  C   C5114     1.0  0.51073  0.90582  0.52135  1.0000
  H   H4079     1.0  0.54235  0.79124  0.54001  1.0000
  H   H4080     1.0  0.91715  0.81116  0.53616  1.0000
  H   H4081     1.0  0.92106  0.82837  0.50712  1.0000
  H   H4082     1.0  0.93564  0.86225  0.49968  1.0000
  H   H4083     1.0  0.94636  0.87859  0.52093  1.0000
  H   H4084     1.0  0.92833  0.82699  0.55755  1.0000
  H   H4085     1.0  0.59869  0.97635  0.53810  1.0000
  H   H4086     1.0  0.79965  0.52496  0.55119  1.0000
  C   C5115     1.0  0.50157  0.60715  0.54226  1.0000
  H   H4087     1.0  0.78561  0.51739  0.45905  1.0000
  C   C5116     1.0  0.91217  0.67150  0.39229  1.0000
  H   H4088     1.0  0.81651  0.85657  0.55235  1.0000
  C   C5117     1.0  0.53129  0.74867  0.51612  1.0000
  H   H4089     1.0  0.50542  0.85401  0.38665  1.0000
  C   C5118     1.0  0.79282  0.51300  0.54709  1.0000
  H   H4090     1.0  0.57158  0.79515  0.57939  1.0000
  H   H4091     1.0  0.76480  0.97739  0.50360  1.0000
  C   C5119     1.0  0.52859  0.50212  0.43187  1.0000
  H   H4092     1.0  0.52760  0.50560  0.41877  1.0000
  C   C5120     1.0  0.63762  0.94225  0.57018  1.0000
  H   H4093     1.0  0.95467  0.90839  0.55983  1.0000
  C   C5121     1.0  0.84741  0.90071  0.53384  1.0000
  C   C5122     1.0  0.53515  0.78515  0.51685  1.0000
  C   C5123     1.0  0.80332  0.50325  0.53348  1.0000
  H   H4094     1.0  0.72735  0.93412  0.49268  1.0000
  H   H4095     1.0  0.55225  0.51267  0.50309  1.0000
  C   C5124     1.0  0.91704  0.51129  0.53901  1.0000
  C   C5125     1.0  0.95607  0.77348  0.53589  1.0000
  H   H4096     1.0  0.55517  0.60802  0.55628  1.0000
  H   H4097     1.0  0.87802  0.85284  0.55881  1.0000
  C   C5126     1.0  0.96347  0.51229  0.48262  1.0000
  H   H4098     1.0  0.90610  0.51198  0.51564  1.0000
  H   H4099     1.0  0.72781  0.53379  0.41517  1.0000
  C   C5127     1.0  0.59604  0.98525  0.56230  1.0000
  H   H4100     1.0  0.99415  0.72139  0.51609  1.0000
  C   C5128     1.0  0.52629  0.96268  0.44679  1.0000
  H   H4101     1.0  0.71904  0.97110  0.55277  1.0000
  C   C5129     1.0  0.90666  0.60204  0.44593  1.0000
  C   C5130     1.0  0.99670  0.66203  0.53062  1.0000
  H   H4102     1.0  0.51569  0.89519  0.47832  1.0000
  C   C5131     1.0  0.98836  0.81614  0.52695  1.0000
  C   C5132     1.0  0.80752  0.98084  0.54999  1.0000
  H   H4103     1.0  0.58337  0.59535  0.43671  1.0000
  C   C5133     1.0  0.97264  0.72145  0.43843  1.0000
  C   C5134     1.0  0.89751  0.58867  0.41792  1.0000
  H   H4104     1.0  0.50029  0.60988  0.44486  1.0000
  C   C5135     1.0  0.76552  0.99519  0.41015  1.0000
  C   C5136     1.0  0.96150  0.60984  0.42693  1.0000
  H   H4105     1.0  0.99689  0.76991  0.41422  1.0000
  C   C5137     1.0  0.52780  0.97676  0.56828  1.0000
  S   S685      1.0  0.68218  0.97448  0.57828  1.0000
  C   C5138     1.0  0.98642  0.67725  0.54065  1.0000
  H   H4106     1.0  0.54067  0.96801  0.56112  1.0000
  C   C5139     1.0  0.95503  0.75244  0.54261  1.0000
  C   C5140     1.0  0.65036  0.95787  0.56957  1.0000
  H   H4107     1.0  0.97892  0.63512  0.42736  1.0000
  C   C5141     1.0  0.87485  0.52605  0.55008  1.0000
  C   C5142     1.0  0.99732  0.71267  0.50566  1.0000
  C   C5143     1.0  0.50363  0.87462  0.46585  1.0000
  H   H4108     1.0  0.70688  0.93074  0.54812  1.0000
  H   H4109     1.0  0.52135  0.91742  0.49635  1.0000
  C   C5144     1.0  0.50412  0.84862  0.50798  1.0000
  H   H4110     1.0  0.75121  0.51932  0.50807  1.0000
  H   H4111     1.0  0.53305  0.98286  0.48052  1.0000
  H   H4112     1.0  0.72413  0.53718  0.46681  1.0000
  H   H4113     1.0  0.92358  0.67185  0.43278  1.0000
  C   C5145     1.0  0.71897  0.98477  0.54331  1.0000
  H   H4114     1.0  0.76043  0.96347  0.54095  1.0000
  H   H4115     1.0  0.53092  0.97079  0.51523  1.0000
  C   C5146     1.0  0.74849  0.91648  0.53493  1.0000
  P   P170      1.0  0.73020  0.95598  0.52078  1.0000
  Fe  Fe343     1.0  0.97955  0.60294  0.49318  1.0000
  C   C5147     1.0  0.53130  0.60629  0.41765  1.0000
  H   H4116     1.0  0.95419  0.72112  0.53787  1.0000
  S   S686      1.0  0.87179  0.99011  0.45466  1.0000
  C   C5148     1.0  0.52422  0.59901  0.56365  1.0000
  H   H4117     1.0  0.55970  0.65287  0.57298  1.0000
  C   C5149     1.0  0.83832  0.89253  0.54951  1.0000
  C   C5150     1.0  0.53406  0.97465  0.45630  1.0000
  H   H4118     1.0  0.53138  0.96389  0.43364  1.0000
  H   H4119     1.0  0.78284  0.93962  0.55939  1.0000
  C   C5151     1.0  0.97982  0.61845  0.42675  1.0000
  H   H4120     1.0  0.64749  0.97275  0.56166  1.0000
  C   C5152     1.0  0.55657  0.80286  0.57602  1.0000
  C   C5153     1.0  0.54077  0.79063  0.57626  1.0000
  C   C5154     1.0  0.90994  0.89419  0.55633  1.0000
  C   C5155     1.0  0.72413  0.98223  0.52662  1.0000
  C   C5156     1.0  0.97518  0.93686  0.49920  1.0000
  H   H4121     1.0  0.58594  0.62064  0.56949  1.0000
  C   C5157     1.0  0.72435  0.53754  0.44087  1.0000
  S   S687      1.0  0.98792  0.86745  0.45403  1.0000
  C   C5158     1.0  0.97568  0.81886  0.41011  1.0000
  Fe  Fe344     1.0  0.84673  0.50000  0.50004  1.0000
  C   C5159     1.0  0.91618  0.61009  0.43026  1.0000
  H   H4122     1.0  0.51443  0.85540  0.49765  1.0000
  C   C5160     1.0  0.53556  0.51827  0.50452  1.0000
  H   H4123     1.0  0.52842  0.77322  0.49566  1.0000
  C   C5161     1.0  0.49901  0.65508  0.39523  1.0000
  C   C5162     1.0  0.81343  0.84493  0.56302  1.0000
  H   H4124     1.0  0.53416  0.82325  0.43802  1.0000
  C   C5163     1.0  0.86727  0.89151  0.52720  1.0000
  H   H4125     1.0  0.94870  0.73057  0.42255  1.0000
  C   C5164     1.0  0.77076  0.96985  0.47891  1.0000
  H   H4126     1.0  0.97380  0.69726  0.47678  1.0000
  C   C5165     1.0  0.51789  0.82227  0.56680  1.0000
  H   H4127     1.0  0.89741  0.54570  0.49756  1.0000
  C   C5166     1.0  0.64977  0.85686  0.38608  1.0000
  H   H4128     1.0  0.98870  0.56190  0.49038  1.0000
  C   C5167     1.0  0.73922  0.94437  0.48896  1.0000
  C   C5168     1.0  0.88835  0.58058  0.43357  1.0000
  C   C5169     1.0  0.98436  0.54465  0.54729  1.0000
  H   H4129     1.0  0.89334  0.86695  0.53102  1.0000
  C   C5170     1.0  0.69193  0.95343  0.51101  1.0000
  C   C5171     1.0  0.93563  0.63978  0.47466  1.0000
  H   H4130     1.0  0.55547  0.55972  0.56319  1.0000
  C   C5172     1.0  0.51571  0.96615  0.58149  1.0000
  C   C5173     1.0  0.74344  0.50936  0.45825  1.0000
  C   C5174     1.0  0.96107  0.92224  0.50303  1.0000
  H   H4131     1.0  0.74579  0.93660  0.46413  1.0000
  H   H4132     1.0  0.78294  0.97979  0.47507  1.0000
  H   H4133     1.0  0.95707  0.78486  0.54384  1.0000
  P   P171      1.0  0.83712  0.86500  0.57919  1.0000
  H   H4134     1.0  0.91896  0.60884  0.40408  1.0000
  C   C5175     1.0  0.50173  0.94556  0.54767  1.0000
  H   H4135     1.0  0.50355  0.93278  0.55774  1.0000
  C   C5176     1.0  0.98261  0.57496  0.42675  1.0000
  C   C5177     1.0  0.97783  0.50926  0.54608  1.0000
  H   H4136     1.0  0.52386  0.63510  0.57667  1.0000
  C   C5178     1.0  0.51234  0.96033  0.48055  1.0000
  C   C5179     1.0  0.89269  0.90725  0.56353  1.0000
  H   H4137     1.0  0.72621  0.99877  0.50162  1.0000
  C   C5180     1.0  0.94825  0.49999  0.51045  1.0000
  C   C5181     1.0  0.59023  0.98913  0.44910  1.0000
  Fe  Fe345     1.0  0.83773  0.99358  0.45145  1.0000
  S   S688      1.0  0.78621  0.97613  0.58132  1.0000
  C   C5182     1.0  0.57332  0.98639  0.41880  1.0000
  H   H4138     1.0  0.64115  0.85210  0.58369  1.0000
  C   C5183     1.0  0.78711  0.99754  0.43110  1.0000
  S   S689      1.0  0.54931  0.83963  0.39187  1.0000
  H   H4139     1.0  0.50556  0.94038  0.44661  1.0000
  C   C5184     1.0  0.64101  0.77394  0.57648  1.0000
  P   P172      1.0  0.52863  0.58835  0.58450  1.0000
  C   C5185     1.0  0.79178  0.99817  0.52581  1.0000
  Fe  Fe346     1.0  0.99542  0.63770  0.46734  1.0000
  C   C5186     1.0  0.55563  0.57549  0.58422  1.0000
  H   H4140     1.0  0.50291  0.82979  0.56319  1.0000
  C   C5187     1.0  0.64920  0.93844  0.38731  1.0000
  C   C5188     1.0  0.58599  0.62955  0.57942  1.0000
  C   C5189     1.0  0.76730  0.99922  0.42596  1.0000
  H   H4141     1.0  0.60516  0.99461  0.39296  1.0000
  C   C5190     1.0  0.61547  0.99689  0.41605  1.0000
  H   H4142     1.0  0.84358  0.90729  0.58276  1.0000
  C   C5191     1.0  0.94341  0.83453  0.58415  1.0000
  P   P173      1.0  0.94408  0.50082  0.53238  1.0000
  C   C5192     1.0  0.53810  0.99542  0.40204  1.0000
  H   H4143     1.0  0.91927  0.99921  0.55461  1.0000
  H   H4144     1.0  0.65140  0.49980  0.56334  1.0000
  H   H4145     1.0  0.92666  0.83994  0.58537  1.0000
  C   C5193     1.0  0.80660  0.88486  0.68736  1.0000
  S   S690      1.0  0.97181  0.76040  0.62464  1.0000
  Fe  Fe347     1.0  0.84894  0.78361  0.64589  1.0000
  S   S691      1.0  0.85456  0.80349  0.66405  1.0000
  S   S692      1.0  0.87289  0.77212  0.62491  1.0000
  Fe  Fe348     1.0  0.80162  0.78686  0.65824  1.0000
  S   S693      1.0  0.80370  0.80768  0.67685  1.0000
  S   S694      1.0  0.76829  0.78171  0.65753  1.0000
  Fe  Fe349     1.0  0.82510  0.82423  0.65702  1.0000
  S   S695      1.0  0.82301  0.85973  0.65140  1.0000
  Fe  Fe350     1.0  0.83255  0.78504  0.68239  1.0000
  S   S696      1.0  0.83503  0.77012  0.70888  1.0000
  S   S697      1.0  0.82064  0.80558  0.63782  1.0000
  S   S698      1.0  0.82936  0.76313  0.66473  1.0000
  S   S699      1.0  0.83581  0.82516  0.76533  1.0000
  Fe  Fe351     1.0  0.72106  0.98622  0.62296  1.0000
  S   S700      1.0  0.75126  0.96376  0.62233  1.0000
  Fe  Fe352     1.0  0.70771  0.96952  0.59458  1.0000
  C   C5194     1.0  0.60586  0.85703  0.61686  1.0000
  Fe  Fe353     1.0  0.73236  0.93941  0.61901  1.0000
  S   S701      1.0  0.73501  0.90560  0.63168  1.0000
  S   S702      1.0  0.70158  0.96111  0.62200  1.0000
  H   H4146     1.0  0.60634  0.81254  0.65420  1.0000
  C   C5195     1.0  0.73212  0.51217  0.71604  1.0000
  H   H4147     1.0  0.67751  0.54975  0.69474  1.0000
  H   H4148     1.0  0.76100  0.74522  0.78485  1.0000
  H   H4149     1.0  0.58260  0.76513  0.61109  1.0000
  Fe  Fe354     1.0  0.70933  0.52745  0.60939  1.0000
  S   S703      1.0  0.71249  0.56144  0.61134  1.0000
  Fe  Fe355     1.0  0.70533  0.68984  0.65573  1.0000
  S   S704      1.0  0.69540  0.66860  0.67894  1.0000
  S   S705      1.0  0.73932  0.69542  0.64971  1.0000
  Fe  Fe356     1.0  0.66093  0.69907  0.64593  1.0000
  S   S706      1.0  0.64770  0.67949  0.66879  1.0000
  S   S707      1.0  0.64187  0.71746  0.62620  1.0000
  Fe  Fe357     1.0  0.66762  0.69408  0.68213  1.0000
  S   S708      1.0  0.65656  0.71094  0.70455  1.0000
  Fe  Fe358     1.0  0.67671  0.65571  0.66331  1.0000
  S   S709      1.0  0.67163  0.62131  0.66573  1.0000
  S   S710      1.0  0.67849  0.71587  0.65961  1.0000
  S   S711      1.0  0.68902  0.67478  0.63974  1.0000
  H   H4150     1.0  0.72370  0.69336  0.69184  1.0000
  H   H4151     1.0  0.71394  0.83217  0.59507  1.0000
  H   H4152     1.0  0.69171  0.52722  0.65831  1.0000
  H   H4153     1.0  0.79999  0.97242  0.62003  1.0000
  Fe  Fe359     1.0  0.52423  0.71634  0.61024  1.0000
  S   S712      1.0  0.54986  0.69803  0.62476  1.0000
  H   H4154     1.0  0.51739  0.79006  0.62106  1.0000
  C   C5196     1.0  0.61637  0.71189  0.62573  1.0000
  C   C5197     1.0  0.60784  0.69609  0.63704  1.0000
  C   C5198     1.0  0.58744  0.69221  0.63657  1.0000
  C   C5199     1.0  0.57529  0.70406  0.62482  1.0000
  C   C5200     1.0  0.58389  0.71967  0.61331  1.0000
  C   C5201     1.0  0.60440  0.72350  0.61374  1.0000
  H   H4155     1.0  0.61696  0.68676  0.64613  1.0000
  H   H4156     1.0  0.58104  0.67992  0.64541  1.0000
  H   H4157     1.0  0.57482  0.72864  0.60401  1.0000
  H   H4158     1.0  0.61104  0.73551  0.60477  1.0000
  C   C5202     1.0  0.70106  0.57738  0.62693  1.0000
  C   C5203     1.0  0.70839  0.59660  0.62670  1.0000
  C   C5204     1.0  0.69960  0.61009  0.63855  1.0000
  C   C5205     1.0  0.68326  0.60456  0.65075  1.0000
  C   C5206     1.0  0.67598  0.58525  0.65108  1.0000
  C   C5207     1.0  0.68478  0.57174  0.63919  1.0000
  H   H4159     1.0  0.72098  0.60110  0.61728  1.0000
  H   H4160     1.0  0.70549  0.62478  0.63824  1.0000
  H   H4161     1.0  0.66334  0.58083  0.66047  1.0000
  H   H4162     1.0  0.67877  0.55719  0.63934  1.0000
  C   C5208     1.0  0.66396  0.67639  0.75655  1.0000
  C   C5209     1.0  0.65644  0.69804  0.75404  1.0000
  C   C5210     1.0  0.65438  0.70846  0.73802  1.0000
  C   C5211     1.0  0.66002  0.69737  0.72439  1.0000
  C   C5212     1.0  0.66785  0.67578  0.72687  1.0000
  C   C5213     1.0  0.66965  0.66530  0.74292  1.0000
  H   H4163     1.0  0.65171  0.70661  0.76448  1.0000
  H   H4164     1.0  0.64814  0.72511  0.73618  1.0000
  H   H4165     1.0  0.67217  0.66707  0.71646  1.0000
  H   H4166     1.0  0.67542  0.64852  0.74478  1.0000
  C   C5214     1.0  0.69113  0.55773  0.69287  1.0000
  C   C5215     1.0  0.77743  0.99132  0.69632  1.0000
  C   C5216     1.0  0.58863  0.56815  0.59560  1.0000
  C   C5217     1.0  0.81715  0.82981  0.59126  1.0000
  H   H4167     1.0  0.74432  0.50651  0.73925  1.0000
  C   C5218     1.0  0.71565  0.73221  0.61721  1.0000
  C   C5219     1.0  0.52142  0.60456  0.61433  1.0000
  H   H4168     1.0  0.76350  0.68590  0.77082  1.0000
  C   C5220     1.0  0.79502  0.96865  0.66191  1.0000
  C   C5221     1.0  0.67285  0.66958  0.60153  1.0000
  C   C5222     1.0  0.78131  0.98992  0.72496  1.0000
  C   C5223     1.0  0.76079  0.75728  0.65589  1.0000
  C   C5224     1.0  0.73935  0.75538  0.65883  1.0000
  C   C5225     1.0  0.73258  0.73636  0.65744  1.0000
  C   C5226     1.0  0.74721  0.71916  0.65277  1.0000
  C   C5227     1.0  0.76868  0.72101  0.64996  1.0000
  C   C5228     1.0  0.77548  0.73995  0.65161  1.0000
  H   H4169     1.0  0.72796  0.76866  0.66231  1.0000
  H   H4170     1.0  0.71604  0.73516  0.65964  1.0000
  H   H4171     1.0  0.78011  0.70778  0.64634  1.0000
  H   H4172     1.0  0.79204  0.74123  0.64933  1.0000
  C   C5229     1.0  0.83466  0.78581  0.72444  1.0000
  C   C5230     1.0  0.82967  0.77735  0.74104  1.0000
  C   C5231     1.0  0.82962  0.78933  0.75373  1.0000
  C   C5232     1.0  0.83547  0.80951  0.74989  1.0000
  C   C5233     1.0  0.84100  0.81774  0.73332  1.0000
  C   C5234     1.0  0.84017  0.80612  0.72061  1.0000
  H   H4173     1.0  0.82585  0.76147  0.74408  1.0000
  H   H4174     1.0  0.82535  0.78288  0.76645  1.0000
  H   H4175     1.0  0.84557  0.83333  0.73029  1.0000
  H   H4176     1.0  0.84429  0.81266  0.70788  1.0000
  C   C5235     1.0  0.79852  0.87250  0.64607  1.0000
  C   C5236     1.0  0.79493  0.89460  0.64215  1.0000
  C   C5237     1.0  0.77544  0.90497  0.63783  1.0000
  C   C5238     1.0  0.75951  0.89326  0.63734  1.0000
  C   C5239     1.0  0.76315  0.87120  0.64122  1.0000
  C   C5240     1.0  0.78256  0.86082  0.64561  1.0000
  H   H4177     1.0  0.80724  0.90370  0.64243  1.0000
  H   H4178     1.0  0.77282  0.92196  0.63479  1.0000
  H   H4179     1.0  0.75095  0.86211  0.64069  1.0000
  H   H4180     1.0  0.78519  0.84378  0.64865  1.0000
  C   C5241     1.0  0.53363  0.79091  0.62175  1.0000
  C   C5242     1.0  0.94436  0.76396  0.62441  1.0000
  C   C5243     1.0  0.93067  0.77137  0.63785  1.0000
  C   C5244     1.0  0.90873  0.77404  0.63817  1.0000
  C   C5245     1.0  0.90033  0.76929  0.62502  1.0000
  C   C5246     1.0  0.91402  0.76225  0.61145  1.0000
  C   C5247     1.0  0.93594  0.75959  0.61113  1.0000
  H   H4181     1.0  0.93707  0.77479  0.64816  1.0000
  H   H4182     1.0  0.89836  0.77947  0.64868  1.0000
  H   H4183     1.0  0.90765  0.75850  0.60124  1.0000
  H   H4184     1.0  0.94631  0.75379  0.60074  1.0000
  C   C5248     1.0  0.80290  0.97486  0.63202  1.0000
  H   H4185     1.0  0.67914  0.50331  0.73597  1.0000
  H   H4186     1.0  0.56365  0.63231  0.66341  1.0000
  C   C5249     1.0  0.97650  0.73309  0.76812  1.0000
  C   C5250     1.0  0.60682  0.82461  0.64354  1.0000
  C   C5251     1.0  0.78081  0.96911  0.69788  1.0000
  C   C5252     1.0  0.79852  0.88544  0.59317  1.0000
  C   C5253     1.0  0.76110  0.51087  0.63810  1.0000
  H   H4187     1.0  0.67425  0.84487  0.62511  1.0000
  H   H4188     1.0  0.70808  0.64265  0.77015  1.0000
  P   P174      1.0  0.59294  0.99605  0.59384  1.0000
  C   C5254     1.0  0.72941  0.69901  0.71549  1.0000
  H   H4189     1.0  0.61251  0.60922  0.58821  1.0000
  C   C5255     1.0  0.81771  0.98754  0.63319  1.0000
  C   C5256     1.0  0.79251  0.92201  0.59783  1.0000
  C   C5257     1.0  0.77933  0.74968  0.76090  1.0000
  S   S713      1.0  0.72486  0.99658  0.59561  1.0000
  C   C5258     1.0  0.71150  0.72440  0.74707  1.0000
  C   C5259     1.0  0.69807  0.72404  0.76209  1.0000
  C   C5260     1.0  0.67887  0.73753  0.76335  1.0000
  C   C5261     1.0  0.67273  0.75116  0.74957  1.0000
  C   C5262     1.0  0.68611  0.75181  0.73461  1.0000
  C   C5263     1.0  0.70557  0.73877  0.73344  1.0000
  H   H4190     1.0  0.66873  0.73736  0.77503  1.0000
  H   H4191     1.0  0.71279  0.70234  0.71994  1.0000
  C   C5264     1.0  0.78475  0.96781  0.72667  1.0000
  C   C5265     1.0  0.61191  0.79536  0.59092  1.0000
  H   H4192     1.0  0.77219  0.72960  0.72743  1.0000
  H   H4193     1.0  0.89055  0.80728  0.59973  1.0000
  C   C5266     1.0  0.60781  0.86146  0.63237  1.0000
  Fe  Fe360     1.0  0.99460  0.74946  0.60284  1.0000
  H   H4194     1.0  0.65764  0.76123  0.75053  1.0000
  H   H4195     1.0  0.68139  0.76235  0.72391  1.0000
  H   H4196     1.0  0.71586  0.73973  0.72186  1.0000
  C   C5267     1.0  0.64154  0.64339  0.61010  1.0000
  H   H4197     1.0  0.77624  0.82114  0.76425  1.0000
  H   H4198     1.0  0.72357  0.54731  0.65495  1.0000
  H   H4199     1.0  0.57856  0.62621  0.63504  1.0000
  C   C5268     1.0  0.86907  0.84982  0.61915  1.0000
  C   C5269     1.0  0.74783  0.52999  0.63968  1.0000
  H   H4200     1.0  0.84587  0.87497  0.61076  1.0000
  C   C5270     1.0  0.60998  0.63079  0.63743  1.0000
  H   H4201     1.0  0.66138  0.90415  0.59720  1.0000
  C   C5271     1.0  0.73547  0.69352  0.69961  1.0000
  H   H4202     1.0  0.61206  0.58791  0.63848  1.0000
  H   H4203     1.0  0.52182  0.58828  0.62013  1.0000
  C   C5272     1.0  0.65147  0.50291  0.67972  1.0000
  H   H4204     1.0  0.81224  0.86802  0.68815  1.0000
  H   H4205     1.0  0.55498  0.93427  0.60536  1.0000
  H   H4206     1.0  0.68451  0.51962  0.75930  1.0000
  C   C5273     1.0  0.74254  0.84034  0.59995  1.0000
  C   C5274     1.0  0.90548  0.89756  0.58988  1.0000
  H   H4207     1.0  0.67359  0.77036  0.62330  1.0000
  H   H4208     1.0  0.70913  0.67618  0.75128  1.0000
  C   C5275     1.0  0.85594  0.85277  0.59298  1.0000
  C   C5276     1.0  0.96547  0.73208  0.75527  1.0000
  C   C5277     1.0  0.86851  0.83341  0.59019  1.0000
  C   C5278     1.0  0.88168  0.83073  0.61615  1.0000
  S   S714      1.0  0.69175  0.50510  0.62794  1.0000
  H   H4209     1.0  0.68486  0.67977  0.59854  1.0000
  C   C5279     1.0  0.93459  0.75289  0.76856  1.0000
  H   H4210     1.0  0.87140  0.79526  0.78197  1.0000
  H   H4211     1.0  0.97313  0.72373  0.74509  1.0000
  C   C5280     1.0  0.92016  0.82402  0.77423  1.0000
  C   C5281     1.0  0.71141  0.54688  0.68878  1.0000
  H   H4212     1.0  0.63878  0.98944  0.59089  1.0000
  H   H4213     1.0  0.60930  0.84878  0.65783  1.0000
  C   C5282     1.0  0.68819  0.57932  0.69413  1.0000
  C   C5283     1.0  0.70540  0.59023  0.69132  1.0000
  C   C5284     1.0  0.72565  0.57950  0.68743  1.0000
  C   C5285     1.0  0.72868  0.55788  0.68622  1.0000
  H   H4214     1.0  0.73159  0.52910  0.71498  1.0000
  C   C5286     1.0  0.68784  0.50261  0.75994  1.0000
  H   H4215     1.0  0.67249  0.58790  0.69667  1.0000
  H   H4216     1.0  0.70293  0.60715  0.69171  1.0000
  H   H4217     1.0  0.73892  0.58809  0.68499  1.0000
  H   H4218     1.0  0.74444  0.54983  0.68294  1.0000
  H   H4219     1.0  0.58643  0.63956  0.68237  1.0000
  C   C5287     1.0  0.59296  0.63696  0.66989  1.0000
  C   C5288     1.0  0.60818  0.84527  0.64573  1.0000
  H   H4220     1.0  0.62182  0.95950  0.60745  1.0000
  H   H4221     1.0  0.82636  0.99489  0.62211  1.0000
  H   H4222     1.0  0.81935  0.93829  0.59207  1.0000
  C   C5289     1.0  0.73173  0.74410  0.61663  1.0000
  S   S715      1.0  0.52091  0.93830  0.58677  1.0000
  C   C5290     1.0  0.75370  0.95734  0.67648  1.0000
  H   H4223     1.0  0.77758  0.88115  0.70330  1.0000
  C   C5291     1.0  0.62415  0.58360  0.62852  1.0000
  C   C5292     1.0  0.97255  0.80980  0.59381  1.0000
  H   H4224     1.0  0.62030  0.67205  0.60331  1.0000
  C   C5293     1.0  0.69080  0.51199  0.68355  1.0000
  C   C5294     1.0  0.96666  0.74395  0.78119  1.0000
  H   H4225     1.0  0.78148  0.99801  0.73539  1.0000
  C   C5295     1.0  0.51908  0.62062  0.62417  1.0000
  C   C5296     1.0  0.63218  0.56218  0.62806  1.0000
  H   H4226     1.0  0.51714  0.65415  0.62446  1.0000
  C   C5297     1.0  0.73462  0.64572  0.78141  1.0000
  H   H4227     1.0  0.74179  0.98706  0.68601  1.0000
  H   H4228     1.0  0.58608  0.66189  0.61475  1.0000
  C   C5298     1.0  0.81027  0.98104  0.66299  1.0000
  C   C5299     1.0  0.58613  0.92600  0.61204  1.0000
  C   C5300     1.0  0.88147  0.82259  0.60164  1.0000
  S   S716      1.0  0.69605  0.52082  0.58773  1.0000
  C   C5301     1.0  0.64756  0.76460  0.59153  1.0000
  C   C5302     1.0  0.69473  0.74186  0.61929  1.0000
  C   C5303     1.0  0.58867  0.62955  0.64308  1.0000
  C   C5304     1.0  0.67811  0.64822  0.60756  1.0000
  H   H4229     1.0  0.50481  0.51814  0.59290  1.0000
  H   H4230     1.0  0.80060  0.84294  0.74606  1.0000
  H   H4231     1.0  0.66685  0.61895  0.61732  1.0000
  C   C5305     1.0  0.74844  0.94178  0.66855  1.0000
  H   H4232     1.0  0.74793  0.54280  0.62949  1.0000
  H   H4233     1.0  0.82306  0.82972  0.60273  1.0000
  C   C5306     1.0  0.63271  0.99863  0.60084  1.0000
  H   H4234     1.0  0.62432  0.64071  0.67271  1.0000
  P   P175      1.0  0.71544  0.51928  0.68616  1.0000
  H   H4235     1.0  0.73973  0.77416  0.61846  1.0000
  H   H4236     1.0  0.67956  0.78783  0.77088  1.0000
  C   C5307     1.0  0.60690  0.95451  0.60732  1.0000
  C   C5308     1.0  0.58621  0.65264  0.60498  1.0000
  C   C5309     1.0  0.67443  0.80950  0.59887  1.0000
  H   H4237     1.0  0.76009  0.92868  0.66498  1.0000
  C   C5310     1.0  0.94459  0.74189  0.75548  1.0000
  C   C5311     1.0  0.61425  0.63776  0.66444  1.0000
  C   C5312     1.0  0.89018  0.75091  0.78381  1.0000
  C   C5313     1.0  0.63638  0.66496  0.60420  1.0000
  C   C5314     1.0  0.79113  0.83736  0.72369  1.0000
  C   C5315     1.0  0.79022  0.83538  0.74076  1.0000
  C   C5316     1.0  0.77641  0.82311  0.75103  1.0000
  C   C5317     1.0  0.76296  0.81338  0.74429  1.0000
  C   C5318     1.0  0.76317  0.81597  0.72712  1.0000
  C   C5319     1.0  0.77767  0.82772  0.71687  1.0000
  P   P176      1.0  0.74451  0.80541  0.71810  1.0000
  C   C5320     1.0  0.75602  0.78129  0.70980  1.0000
  C   C5321     1.0  0.72297  0.79939  0.73390  1.0000
  C   C5322     1.0  0.72593  0.78118  0.74552  1.0000
  C   C5323     1.0  0.71039  0.77720  0.75884  1.0000
  C   C5324     1.0  0.69151  0.79106  0.76047  1.0000
  C   C5325     1.0  0.68812  0.80890  0.74870  1.0000
  C   C5326     1.0  0.70381  0.81312  0.73545  1.0000
  C   C5327     1.0  0.74295  0.76891  0.70511  1.0000
  C   C5328     1.0  0.75163  0.75088  0.69770  1.0000
  C   C5329     1.0  0.77339  0.74522  0.69477  1.0000
  C   C5330     1.0  0.78646  0.75725  0.69967  1.0000
  C   C5331     1.0  0.77784  0.77521  0.70721  1.0000
  C   C5332     1.0  0.73608  0.82565  0.70176  1.0000
  C   C5333     1.0  0.73739  0.82103  0.68565  1.0000
  C   C5334     1.0  0.73280  0.83719  0.67282  1.0000
  C   C5335     1.0  0.72682  0.85810  0.67593  1.0000
  C   C5336     1.0  0.72549  0.86286  0.69190  1.0000
  C   C5337     1.0  0.73020  0.84674  0.70476  1.0000
  H   H4238     1.0  0.80251  0.84614  0.71577  1.0000
  C   C5338     1.0  0.75016  0.65802  0.78156  1.0000
  H   H4239     1.0  0.78761  0.95876  0.73847  1.0000
  H   H4240     1.0  0.75234  0.80419  0.75261  1.0000
  H   H4241     1.0  0.77843  0.82964  0.70361  1.0000
  H   H4242     1.0  0.74057  0.77045  0.74457  1.0000
  H   H4243     1.0  0.61813  0.92227  0.61666  1.0000
  H   H4244     1.0  0.68171  0.79408  0.59580  1.0000
  H   H4245     1.0  0.67344  0.81961  0.74997  1.0000
  H   H4246     1.0  0.70098  0.82718  0.72666  1.0000
  H   H4247     1.0  0.72609  0.77359  0.70669  1.0000
  H   H4248     1.0  0.74159  0.74163  0.69368  1.0000
  H   H4249     1.0  0.78014  0.73170  0.68850  1.0000
  H   H4250     1.0  0.80333  0.75278  0.69746  1.0000
  H   H4251     1.0  0.78832  0.78438  0.71074  1.0000
  H   H4252     1.0  0.74260  0.80513  0.68271  1.0000
  H   H4253     1.0  0.73441  0.83348  0.66039  1.0000
  H   H4254     1.0  0.72367  0.87068  0.66588  1.0000
  H   H4255     1.0  0.72129  0.87915  0.69421  1.0000
  H   H4256     1.0  0.72978  0.85078  0.71697  1.0000
  C   C5339     1.0  0.75726  0.83730  0.61090  1.0000
  C   C5340     1.0  0.71287  0.96018  0.66884  1.0000
  C   C5341     1.0  0.71789  0.97566  0.67677  1.0000
  C   C5342     1.0  0.73825  0.97441  0.68043  1.0000
  C   C5343     1.0  0.67069  0.93493  0.58911  1.0000
  H   H4257     1.0  0.78197  0.93558  0.60185  1.0000
  C   C5344     1.0  0.80472  0.81463  0.59036  1.0000
  H   H4258     1.0  0.93643  0.74092  0.74537  1.0000
  H   H4259     1.0  0.87713  0.91907  0.58591  1.0000
  C   C5345     1.0  0.57138  0.96121  0.60065  1.0000
  C   C5346     1.0  0.72070  0.67126  0.75966  1.0000
  H   H4260     1.0  0.90379  0.89891  0.60289  1.0000
  H   H4261     1.0  0.77780  0.69241  0.72756  1.0000
  P   P177      1.0  0.78047  0.95606  0.68025  1.0000
  H   H4262     1.0  0.86252  0.76428  0.77221  1.0000
  H   H4263     1.0  0.51985  0.66305  0.59411  1.0000
  C   C5347     1.0  0.54952  0.77573  0.61551  1.0000
  C   C5348     1.0  0.81875  0.89915  0.67751  1.0000
  C   C5349     1.0  0.81126  0.92085  0.67578  1.0000
  H   H4264     1.0  0.81361  0.98340  0.67484  1.0000
  H   H4265     1.0  0.76415  0.91946  0.70044  1.0000
  C   C5350     1.0  0.82144  0.99056  0.64867  1.0000
  C   C5351     1.0  0.64760  0.59293  0.60359  1.0000
  C   C5352     1.0  0.74467  0.70015  0.72535  1.0000
  C   C5353     1.0  0.65578  0.57155  0.60330  1.0000
  S   S717      1.0  0.73710  0.94596  0.59136  1.0000
  H   H4266     1.0  0.69730  0.96170  0.66543  1.0000
  H   H4267     1.0  0.71298  0.76336  0.76798  1.0000
  H   H4268     1.0  0.74792  0.73637  0.61562  1.0000
  Fe  Fe361     1.0  0.75378  0.97214  0.59480  1.0000
  H   H4269     1.0  0.69422  0.64182  0.60917  1.0000
  S   S718      1.0  0.66582  0.66254  0.77653  1.0000
  C   C5354     1.0  0.72812  0.94320  0.66479  1.0000
  H   H4270     1.0  0.79480  0.75132  0.73584  1.0000
  C   C5355     1.0  0.66251  0.63522  0.61202  1.0000
  C   C5356     1.0  0.68282  0.51856  0.66856  1.0000
  C   C5357     1.0  0.60486  0.93326  0.61264  1.0000
  C   C5358     1.0  0.81976  0.88682  0.58742  1.0000
  H   H4271     1.0  0.83373  0.89323  0.67079  1.0000
  H   H4272     1.0  0.82079  0.93155  0.66780  1.0000
  C   C5359     1.0  0.85623  0.86082  0.60765  1.0000
  H   H4273     1.0  0.72431  0.93136  0.65840  1.0000
  H   H4274     1.0  0.89098  0.82174  0.62536  1.0000
  C   C5360     1.0  0.50091  0.53451  0.59511  1.0000
  H   H4275     1.0  0.94047  0.80994  0.60506  1.0000
  P   P178      1.0  0.69935  0.80269  0.62430  1.0000
  C   C5361     1.0  0.69102  0.80323  0.64618  1.0000
  C   C5362     1.0  0.72225  0.81590  0.61862  1.0000
  C   C5363     1.0  0.73723  0.81282  0.62941  1.0000
  C   C5364     1.0  0.75471  0.82337  0.62552  1.0000
  C   C5365     1.0  0.73355  0.51584  0.66744  1.0000
  C   C5366     1.0  0.72514  0.82958  0.60372  1.0000
  C   C5367     1.0  0.81367  0.92344  0.59241  1.0000
  C   C5368     1.0  0.68577  0.78500  0.65669  1.0000
  C   C5369     1.0  0.68064  0.78523  0.67369  1.0000
  C   C5370     1.0  0.68062  0.80366  0.68037  1.0000
  C   C5371     1.0  0.68582  0.82185  0.67007  1.0000
  C   C5372     1.0  0.69113  0.82162  0.65308  1.0000
  H   H4276     1.0  0.73536  0.80223  0.64087  1.0000
  H   H4277     1.0  0.76623  0.82083  0.63396  1.0000
  H   H4278     1.0  0.93363  0.83233  0.77182  1.0000
  H   H4279     1.0  0.55772  0.99553  0.62077  1.0000
  H   H4280     1.0  0.68622  0.77029  0.65203  1.0000
  H   H4281     1.0  0.67703  0.77095  0.68171  1.0000
  H   H4282     1.0  0.67683  0.80375  0.69356  1.0000
  H   H4283     1.0  0.68616  0.83605  0.67528  1.0000
  H   H4284     1.0  0.69594  0.83565  0.64543  1.0000
  C   C5373     1.0  0.53875  0.80711  0.62887  1.0000
  C   C5374     1.0  0.55976  0.80804  0.62985  1.0000
  C   C5375     1.0  0.57581  0.79298  0.62336  1.0000
  C   C5376     1.0  0.57050  0.77691  0.61612  1.0000
  P   P179      1.0  0.60295  0.79325  0.62512  1.0000
  C   C5377     1.0  0.61092  0.77377  0.64210  1.0000
  C   C5378     1.0  0.61849  0.78630  0.60609  1.0000
  C   C5379     1.0  0.63635  0.77073  0.60626  1.0000
  H   H4285     1.0  0.70249  0.71358  0.77291  1.0000
  H   H4286     1.0  0.54565  0.76307  0.61006  1.0000
  C   C5380     1.0  0.78492  0.90308  0.59813  1.0000
  Fe  Fe362     1.0  0.50336  0.75308  0.58749  1.0000
  C   C5381     1.0  0.62930  0.77462  0.64857  1.0000
  C   C5382     1.0  0.63588  0.75916  0.66129  1.0000
  C   C5383     1.0  0.62447  0.74253  0.66742  1.0000
  C   C5384     1.0  0.60645  0.74131  0.66085  1.0000
  C   C5385     1.0  0.59966  0.75684  0.64827  1.0000
  C   C5386     1.0  0.60562  0.81983  0.62785  1.0000
  C   C5387     1.0  0.60476  0.83636  0.61459  1.0000
  H   H4287     1.0  0.52642  0.81889  0.63368  1.0000
  H   H4288     1.0  0.56338  0.82055  0.63559  1.0000
  H   H4289     1.0  0.64130  0.76266  0.61772  1.0000
  H   H4290     1.0  0.97854  0.79655  0.60238  1.0000
  H   H4291     1.0  0.59801  0.57043  0.60461  1.0000
  C   C5388     1.0  0.75669  0.68809  0.69374  1.0000
  H   H4292     1.0  0.65730  0.51906  0.65499  1.0000
  H   H4293     1.0  0.63870  0.78703  0.64362  1.0000
  H   H4294     1.0  0.65005  0.75970  0.66625  1.0000
  H   H4295     1.0  0.62983  0.73034  0.67707  1.0000
  H   H4296     1.0  0.59801  0.72801  0.66522  1.0000
  H   H4297     1.0  0.58592  0.75514  0.64321  1.0000
  H   H4298     1.0  0.60300  0.83360  0.60246  1.0000
  H   H4299     1.0  0.68227  0.73249  0.62009  1.0000
  H   H4300     1.0  0.63926  0.63552  0.64434  1.0000
  H   H4301     1.0  0.62632  0.55022  0.63755  1.0000
  P   P180      1.0  0.73694  0.70805  0.74569  1.0000
  C   C5389     1.0  0.73402  0.53246  0.65422  1.0000
  C   C5390     1.0  0.64798  0.55616  0.61545  1.0000
  H   H4302     1.0  0.65437  0.53959  0.61517  1.0000
  H   H4303     1.0  0.77061  0.84574  0.60816  1.0000
  C   C5391     1.0  0.67863  0.50125  0.69674  1.0000
  H   H4304     1.0  0.68694  0.57867  0.77328  1.0000
  C   C5392     1.0  0.69186  0.54491  0.78081  1.0000
  C   C5393     1.0  0.72695  0.76561  0.61831  1.0000
  H   H4305     1.0  0.78066  0.95525  0.64523  1.0000
  H   H4306     1.0  0.51754  0.61677  0.63745  1.0000
  C   C5394     1.0  0.59005  0.96877  0.60152  1.0000
  C   C5395     1.0  0.66043  0.82183  0.58877  1.0000
  C   C5396     1.0  0.65200  0.67795  0.59991  1.0000
  C   C5397     1.0  0.78453  0.95741  0.71320  1.0000
  H   H4307     1.0  0.65018  0.86654  0.60689  1.0000
  C   C5398     1.0  0.75106  0.67690  0.77071  1.0000
  C   C5399     1.0  0.79175  0.96533  0.64633  1.0000
  C   C5400     1.0  0.56939  0.93998  0.60608  1.0000
  H   H4308     1.0  0.86847  0.85561  0.63078  1.0000
  C   C5401     1.0  0.51880  0.64167  0.61688  1.0000
  C   C5402     1.0  0.73605  0.68385  0.75988  1.0000
  C   C5403     1.0  0.66325  0.51401  0.66665  1.0000
  H   H4309     1.0  0.66098  0.75216  0.59190  1.0000
  C   C5404     1.0  0.60121  0.63452  0.60309  1.0000
  C   C5405     1.0  0.63181  0.59917  0.61628  1.0000
  H   H4310     1.0  0.60885  0.87747  0.63403  1.0000
  C   C5406     1.0  0.95110  0.81748  0.59531  1.0000
  C   C5407     1.0  0.67033  0.83802  0.61522  1.0000
  C   C5408     1.0  0.92248  0.80306  0.77121  1.0000
  C   C5409     1.0  0.72560  0.50303  0.70387  1.0000
  S   S719      1.0  0.73848  0.50345  0.60503  1.0000
  H   H4311     1.0  0.68337  0.93203  0.59648  1.0000
  H   H4312     1.0  0.78735  0.94032  0.71485  1.0000
  H   H4313     1.0  0.93778  0.79559  0.76615  1.0000
  H   H4314     1.0  0.80140  0.80289  0.60098  1.0000
  C   C5410     1.0  0.82729  0.90591  0.58721  1.0000
  C   C5411     1.0  0.49897  0.97788  0.59060  1.0000
  C   C5412     1.0  0.56799  0.57863  0.59572  1.0000
  P   P181      1.0  0.62117  0.62687  0.61659  1.0000
  H   H4315     1.0  0.70645  0.54255  0.77252  1.0000
  H   H4316     1.0  0.71943  0.71536  0.61658  1.0000
  H   H4317     1.0  0.93449  0.87626  0.59025  1.0000
  C   C5413     1.0  0.88663  0.75229  0.72857  1.0000
  C   C5414     1.0  0.88692  0.77117  0.71773  1.0000
  C   C5415     1.0  0.89341  0.78849  0.72240  1.0000
  C   C5416     1.0  0.89967  0.78695  0.73791  1.0000
  C   C5417     1.0  0.89936  0.76804  0.74892  1.0000
  C   C5418     1.0  0.89297  0.75064  0.74406  1.0000
  P   P182      1.0  0.90762  0.76579  0.76894  1.0000
  C   C5419     1.0  0.90506  0.79221  0.77424  1.0000
  H   H4318     1.0  0.76129  0.68390  0.68138  1.0000
  H   H4319     1.0  0.73827  0.72322  0.77669  1.0000
  C   C5420     1.0  0.78250  0.74505  0.74476  1.0000
  C   C5421     1.0  0.70594  0.77546  0.62042  1.0000
  H   H4320     1.0  0.78829  0.68284  0.69946  1.0000
  H   H4321     1.0  0.56186  0.58906  0.60485  1.0000
  C   C5422     1.0  0.77951  0.91396  0.69410  1.0000
  C   C5423     1.0  0.76976  0.73246  0.74005  1.0000
  H   H4322     1.0  0.55840  0.97157  0.59557  1.0000
  C   C5424     1.0  0.77187  0.68762  0.70390  1.0000
  H   H4323     1.0  0.74452  0.85119  0.58862  1.0000
  C   C5425     1.0  0.68988  0.76334  0.62100  1.0000
  C   C5426     1.0  0.79145  0.92840  0.68391  1.0000
  C   C5427     1.0  0.67936  0.81740  0.61233  1.0000
  H   H4324     1.0  0.79226  0.87096  0.59364  1.0000
  H   H4325     1.0  0.58476  0.90943  0.61577  1.0000
  C   C5428     1.0  0.58018  0.63283  0.65921  1.0000
  H   H4326     1.0  0.88115  0.73909  0.72496  1.0000
  H   H4327     1.0  0.88162  0.77253  0.70584  1.0000
  H   H4328     1.0  0.89319  0.80323  0.71408  1.0000
  H   H4329     1.0  0.90444  0.80066  0.74128  1.0000
  H   H4330     1.0  0.89269  0.73587  0.75230  1.0000
  C   C5429     1.0  0.75394  0.72406  0.75150  1.0000
  C   C5430     1.0  0.62272  0.63476  0.64828  1.0000
  C   C5431     1.0  0.88301  0.82379  0.78298  1.0000
  C   C5432     1.0  0.76587  0.69329  0.71974  1.0000
  H   H4331     1.0  0.59774  0.80672  0.59048  1.0000
  C   C5433     1.0  0.78705  0.89226  0.69576  1.0000
  C   C5434     1.0  0.65818  0.91918  0.58953  1.0000
  C   C5435     1.0  0.68085  0.56540  0.78119  1.0000
  C   C5436     1.0  0.51047  0.56971  0.59247  1.0000
  C   C5437     1.0  0.65171  0.84235  0.59169  1.0000
  H   H4332     1.0  0.70621  0.98918  0.67943  1.0000
  S   S720      1.0  0.50486  0.74767  0.61475  1.0000
  H   H4333     1.0  0.60541  0.86960  0.60648  1.0000
  H   H4334     1.0  0.76847  0.90207  0.60237  1.0000
  H   H4335     1.0  0.77151  0.50883  0.62670  1.0000
  C   C5438     1.0  0.65674  0.85046  0.60486  1.0000
  C   C5439     1.0  0.90041  0.83441  0.78004  1.0000
  C   C5440     1.0  0.72009  0.65222  0.77032  1.0000
  C   C5441     1.0  0.52052  0.64668  0.59976  1.0000
  H   H4336     1.0  0.65382  0.60460  0.59400  1.0000
  C   C5442     1.0  0.60103  0.62307  0.59015  1.0000
  C   C5443     1.0  0.52283  0.63068  0.58988  1.0000
  C   C5444     1.0  0.94587  0.75390  0.78136  1.0000
  C   C5445     1.0  0.52356  0.60945  0.59709  1.0000
  H   H4337     1.0  0.55987  0.67323  0.59577  1.0000
  H   H4338     1.0  0.78914  0.75954  0.76452  1.0000
  C   C5446     1.0  0.88528  0.80282  0.78006  1.0000
  C   C5447     1.0  0.57130  0.65916  0.59419  1.0000
  H   H4339     1.0  0.64780  0.69469  0.59581  1.0000
  C   C5448     1.0  0.75068  0.72906  0.76766  1.0000
  H   H4340     1.0  0.66849  0.56690  0.59381  1.0000
  C   C5449     1.0  0.51573  0.54834  0.59009  1.0000
  H   H4341     1.0  0.99267  0.72552  0.76792  1.0000
  H   H4342     1.0  0.89849  0.85074  0.78216  1.0000
  C   C5450     1.0  0.76344  0.74167  0.77233  1.0000
  C   C5451     1.0  0.86874  0.75346  0.78225  1.0000
  S   S721      1.0  0.57074  0.89361  0.58559  1.0000
  H   H4343     1.0  0.66357  0.99975  0.60633  1.0000
  H   H4344     1.0  0.49995  0.86161  0.91549  1.0000
  C   C5452     1.0  0.63834  0.99895  0.91748  1.0000
  C   C5453     1.0  0.92610  0.82999  0.84636  1.0000
  H   H4345     1.0  0.71083  0.51404  0.89184  1.0000
  C   C5454     1.0  0.85539  0.88675  0.86555  1.0000
  C   C5455     1.0  0.99377  0.97528  0.95811  1.0000
  C   C5456     1.0  0.93224  0.99513  0.88367  1.0000
  S   S722      1.0  0.52976  0.76062  0.86120  1.0000
  Fe  Fe363     1.0  0.79383  0.51116  0.85442  1.0000
  C   C5457     1.0  0.64587  0.98923  0.93221  1.0000
  C   C5458     1.0  0.85534  0.59518  0.87929  1.0000
  H   H4346     1.0  0.58641  0.68396  0.96864  1.0000
  Fe  Fe364     1.0  0.65447  0.50186  0.96977  1.0000
  C   C5459     1.0  0.99550  0.99887  0.90782  1.0000
  C   C5460     1.0  0.94620  0.86981  0.85522  1.0000
  C   C5461     1.0  0.79447  0.59155  0.84561  1.0000
  Fe  Fe365     1.0  0.66986  0.98750  0.97763  1.0000
  S   S723      1.0  0.69181  0.97390  0.95638  1.0000
  H   H4347     1.0  0.52604  0.74264  0.82289  1.0000
  Fe  Fe366     1.0  0.75072  0.52794  0.84366  1.0000
  H   H4348     1.0  0.53752  0.95860  0.96212  1.0000
  S   S724      1.0  0.73143  0.55459  0.82897  1.0000
  C   C5462     1.0  0.85507  0.74225  0.79376  1.0000
  H   H4349     1.0  0.87308  0.91081  0.86804  1.0000
  S   S725      1.0  0.76365  0.52712  0.86729  1.0000
  C   C5463     1.0  0.95036  0.84830  0.88157  1.0000
  Fe  Fe367     1.0  0.93591  0.53924  0.90355  1.0000
  S   S726      1.0  0.91167  0.53191  0.92505  1.0000
  S   S727      1.0  0.96008  0.51594  0.89062  1.0000
  Fe  Fe368     1.0  0.92197  0.58663  0.90160  1.0000
  S   S728      1.0  0.89638  0.58325  0.92340  1.0000
  S   S729      1.0  0.92697  0.61556  0.88277  1.0000
  Fe  Fe369     1.0  0.92063  0.55875  0.93501  1.0000
  S   S730      1.0  0.92552  0.54722  0.96148  1.0000
  Fe  Fe370     1.0  0.88931  0.55653  0.91200  1.0000
  S   S731      1.0  0.85554  0.55129  0.91334  1.0000
  S   S732      1.0  0.94677  0.56435  0.91420  1.0000
  S   S733      1.0  0.91283  0.56168  0.88946  1.0000
  S   S734      1.0  0.69811  0.68417  0.80430  1.0000
  C   C5464     1.0  0.55813  0.68190  0.95928  1.0000
  S   S735      1.0  0.78106  0.97916  0.88119  1.0000
  C   C5465     1.0  0.78082  0.57123  0.88293  1.0000
  Fe  Fe371     1.0  0.79174  0.97390  0.85483  1.0000
  S   S736      1.0  0.80666  0.94078  0.84941  1.0000
  H   H4350     1.0  0.83852  0.74452  0.79256  1.0000
  H   H4351     1.0  0.94087  0.77212  0.89788  1.0000
  C   C5466     1.0  0.93899  0.81232  0.81692  1.0000
  Fe  Fe372     1.0  0.79067  0.83973  0.81823  1.0000
  S   S737      1.0  0.79541  0.81128  0.83741  1.0000
  S   S738      1.0  0.76868  0.86955  0.82419  1.0000
  Fe  Fe373     1.0  0.82961  0.80949  0.82725  1.0000
  S   S739      1.0  0.85217  0.80519  0.84604  1.0000
  Fe  Fe374     1.0  0.79309  0.79213  0.81767  1.0000
  S   S740      1.0  0.77774  0.76226  0.82452  1.0000
  S   S741      1.0  0.82498  0.83919  0.80930  1.0000
  S   S742      1.0  0.78533  0.82076  0.79918  1.0000
  C   C5467     1.0  0.61584  0.59008  0.98076  1.0000
  H   H4352     1.0  0.94252  0.79865  0.87334  1.0000
  H   H4353     1.0  0.88972  0.71556  0.81907  1.0000
  Fe  Fe375     1.0  0.96645  0.74660  0.84521  1.0000
  S   S743      1.0  0.94250  0.75368  0.82745  1.0000
  S   S744      1.0  0.96003  0.74350  0.87276  1.0000
  Fe  Fe376     1.0  0.64209  0.69569  0.82945  1.0000
  S   S745      1.0  0.65689  0.66347  0.82323  1.0000
  S   S746      1.0  0.61175  0.69361  0.84719  1.0000
  Fe  Fe377     1.0  0.68056  0.71515  0.81123  1.0000
  C   C5468     1.0  0.90183  0.96778  0.91310  1.0000
  C   C5469     1.0  0.77803  0.51455  0.97951  1.0000
  C   C5470     1.0  0.55160  0.96593  0.95887  1.0000
  Fe  Fe378     1.0  0.68627  0.67063  0.83012  1.0000
  S   S747      1.0  0.70492  0.64743  0.84784  1.0000
  C   C5471     1.0  0.91176  0.83049  0.83536  1.0000
  S   S748      1.0  0.67117  0.70210  0.83775  1.0000
  C   C5472     1.0  0.87732  0.79098  0.84100  1.0000
  C   C5473     1.0  0.89111  0.78522  0.85285  1.0000
  C   C5474     1.0  0.91118  0.77368  0.84894  1.0000
  C   C5475     1.0  0.91749  0.76792  0.83315  1.0000
  C   C5476     1.0  0.90366  0.77378  0.82140  1.0000
  C   C5477     1.0  0.88368  0.78523  0.82528  1.0000
  H   H4354     1.0  0.88629  0.78971  0.86504  1.0000
  H   H4355     1.0  0.92177  0.76937  0.85807  1.0000
  H   H4356     1.0  0.90848  0.76985  0.80913  1.0000
  H   H4357     1.0  0.87324  0.78973  0.81605  1.0000
  C   C5478     1.0  0.75460  0.75811  0.81778  1.0000
  C   C5479     1.0  0.74781  0.73830  0.82253  1.0000
  C   C5480     1.0  0.72950  0.73421  0.81753  1.0000
  C   C5481     1.0  0.71761  0.75004  0.80795  1.0000
  H   H4358     1.0  0.97613  0.85318  0.89303  1.0000
  C   C5482     1.0  0.74292  0.77386  0.80791  1.0000
  H   H4359     1.0  0.75680  0.72603  0.83008  1.0000
  H   H4360     1.0  0.72454  0.71883  0.82116  1.0000
  H   H4361     1.0  0.96535  0.96055  0.92366  1.0000
  H   H4362     1.0  0.96960  0.80486  0.82459  1.0000
  C   C5483     1.0  0.79563  0.92177  0.84180  1.0000
  C   C5484     1.0  0.80829  0.90247  0.83909  1.0000
  C   C5485     1.0  0.80026  0.88655  0.83352  1.0000
  C   C5486     1.0  0.77942  0.88977  0.83052  1.0000
  C   C5487     1.0  0.76670  0.90912  0.83317  1.0000
  C   C5488     1.0  0.77480  0.92513  0.83871  1.0000
  H   H4363     1.0  0.82449  0.89982  0.84115  1.0000
  H   H4364     1.0  0.81017  0.87172  0.83168  1.0000
  H   H4365     1.0  0.75056  0.91175  0.83088  1.0000
  H   H4366     1.0  0.76496  0.94002  0.84052  1.0000
  C   C5489     1.0  0.94208  0.63466  0.88525  1.0000
  C   C5490     1.0  0.95116  0.63340  0.89954  1.0000
  C   C5491     1.0  0.96291  0.64905  0.90115  1.0000
  C   C5492     1.0  0.96568  0.66602  0.88851  1.0000
  C   C5493     1.0  0.95668  0.66722  0.87417  1.0000
  C   C5494     1.0  0.94490  0.65159  0.87256  1.0000
  H   H4367     1.0  0.94907  0.62045  0.90938  1.0000
  H   H4368     1.0  0.90680  0.82127  0.81278  1.0000
  H   H4369     1.0  0.95873  0.68022  0.86437  1.0000
  H   H4370     1.0  0.93798  0.65264  0.86145  1.0000
  C   C5495     1.0  0.72347  0.57994  0.83498  1.0000
  C   C5496     1.0  0.72782  0.58476  0.84976  1.0000
  C   C5497     1.0  0.72174  0.60543  0.85379  1.0000
  C   C5498     1.0  0.71152  0.62138  0.84299  1.0000
  C   C5499     1.0  0.70693  0.61644  0.82835  1.0000
  C   C5500     1.0  0.71286  0.59579  0.82439  1.0000
  H   H4371     1.0  0.73610  0.57265  0.85792  1.0000
  H   H4372     1.0  0.72508  0.60907  0.86523  1.0000
  H   H4373     1.0  0.69902  0.62861  0.81996  1.0000
  H   H4374     1.0  0.70945  0.59216  0.81294  1.0000
  C   C5501     1.0  0.83454  0.52743  0.87056  1.0000
  C   C5502     1.0  0.82048  0.53099  0.88476  1.0000
  C   C5503     1.0  0.82699  0.53874  0.89765  1.0000
  C   C5504     1.0  0.84774  0.54248  0.89658  1.0000
  C   C5505     1.0  0.86184  0.53887  0.88237  1.0000
  C   C5506     1.0  0.85521  0.53149  0.86938  1.0000
  H   H4375     1.0  0.80468  0.52750  0.88587  1.0000
  H   H4376     1.0  0.81598  0.54154  0.90858  1.0000
  H   H4377     1.0  0.87786  0.54169  0.88138  1.0000
  H   H4378     1.0  0.62030  0.76898  0.82291  1.0000
  H   H4379     1.0  0.72130  0.52994  0.80375  1.0000
  C   C5507     1.0  0.83385  0.59664  0.87867  1.0000
  H   H4380     1.0  0.73376  0.63120  0.78991  1.0000
  H   H4381     1.0  0.86758  0.83194  0.78716  1.0000
  H   H4382     1.0  0.73895  0.66312  0.86025  1.0000
  H   H4383     1.0  0.91452  0.59295  0.96169  1.0000
  C   C5508     1.0  0.86174  0.60343  0.84963  1.0000
  C   C5509     1.0  0.89279  0.88051  0.86696  1.0000
  C   C5510     1.0  0.63600  0.98616  0.90596  1.0000
  H   H4384     1.0  0.95866  0.82045  0.85032  1.0000
  C   C5511     1.0  0.70259  0.98725  0.93739  1.0000
  C   C5512     1.0  0.71998  0.97663  0.92809  1.0000
  C   C5513     1.0  0.72766  0.98559  0.91211  1.0000
  H   H4385     1.0  0.78553  0.56224  0.81061  1.0000
  C   C5514     1.0  0.91304  0.78885  0.91053  1.0000
  H   H4386     1.0  0.72728  0.96117  0.93316  1.0000
  H   H4387     1.0  0.74071  0.97699  0.90495  1.0000
  C   C5515     1.0  0.55291  0.74229  0.85776  1.0000
  C   C5516     1.0  0.55413  0.72142  0.86562  1.0000
  C   C5517     1.0  0.57236  0.70683  0.86227  1.0000
  C   C5518     1.0  0.58955  0.71293  0.85108  1.0000
  C   C5519     1.0  0.58850  0.73386  0.84333  1.0000
  C   C5520     1.0  0.57020  0.74852  0.84667  1.0000
  H   H4388     1.0  0.54095  0.71647  0.87419  1.0000
  H   H4389     1.0  0.57306  0.69068  0.86833  1.0000
  H   H4390     1.0  0.60164  0.73861  0.83465  1.0000
  H   H4391     1.0  0.56934  0.76465  0.84055  1.0000
  H   H4392     1.0  0.50586  0.56866  0.95447  1.0000
  C   C5521     1.0  0.55948  0.65213  0.94468  1.0000
  C   C5522     1.0  0.91623  0.50043  0.87538  1.0000
  H   H4393     1.0  0.90253  0.50385  0.83123  1.0000
  C   C5523     1.0  0.64069  0.96411  0.90926  1.0000
  H   H4394     1.0  0.78364  0.61857  0.89461  1.0000
  H   H4395     1.0  0.59155  0.93820  0.97162  1.0000
  H   H4396     1.0  0.55620  0.66836  0.81607  1.0000
  H   H4397     1.0  0.73414  0.86907  0.96646  1.0000
  S   S749      1.0  0.82697  0.51775  0.85414  1.0000
  C   C5524     1.0  0.88158  0.96289  0.91910  1.0000
  S   S750      1.0  0.64988  0.71144  0.80341  1.0000
  S   S751      1.0  0.98443  0.78638  0.88762  1.0000
  S   S752      1.0  0.63434  0.99128  0.98278  1.0000
  H   H4398     1.0  0.89955  0.93824  0.84401  1.0000
  H   H4399     1.0  0.75494  0.62608  0.86711  1.0000
  C   C5525     1.0  0.86958  0.97209  0.93238  1.0000
  H   H4400     1.0  0.85259  0.98229  0.86830  1.0000
  C   C5526     1.0  0.51692  0.81428  0.93420  1.0000
  H   H4401     1.0  0.87261  0.60583  0.83839  1.0000
  H   H4402     1.0  0.65368  0.58479  0.79222  1.0000
  S   S753      1.0  0.52712  0.84096  0.95283  1.0000
  C   C5527     1.0  0.87790  0.98576  0.94007  1.0000
  S   S754      1.0  0.99171  0.76677  0.84325  1.0000
  C   C5528     1.0  0.68523  0.53077  0.84013  1.0000
  H   H4403     1.0  0.56412  0.73190  0.81897  1.0000
  H   H4404     1.0  0.50652  0.68478  0.85022  1.0000
  C   C5529     1.0  0.54846  0.67050  0.95058  1.0000
  C   C5530     1.0  0.97373  0.97603  0.87596  1.0000
  C   C5531     1.0  0.96751  0.85804  0.88262  1.0000
  C   C5532     1.0  0.77774  0.59934  0.83650  1.0000
  H   H4405     1.0  0.69750  0.84639  0.82111  1.0000
  C   C5533     1.0  0.50666  0.72305  0.95392  1.0000
  C   C5534     1.0  0.66209  0.56885  0.79187  1.0000
  S   S755      1.0  0.51146  0.74327  0.90815  1.0000
  H   H4406     1.0  0.76145  0.69069  0.84844  1.0000
  H   H4407     1.0  0.86125  0.59099  0.89103  1.0000
  C   C5535     1.0  0.84025  0.60497  0.84895  1.0000
  C   C5536     1.0  0.73892  0.51917  0.93924  1.0000
  P   P183      1.0  0.79822  0.60446  0.86243  1.0000
  H   H4408     1.0  0.73623  0.83891  0.82012  1.0000
  C   C5537     1.0  0.87455  0.52755  0.97419  1.0000
  H   H4409     1.0  0.66241  0.64138  0.90563  1.0000
  H   H4410     1.0  0.61971  0.54036  0.93698  1.0000
  H   H4411     1.0  0.59569  0.52932  0.89458  1.0000
  H   H4412     1.0  0.53987  0.57829  0.94892  1.0000
  H   H4413     1.0  0.76153  0.59471  0.81708  1.0000
  H   H4414     1.0  0.65906  0.51837  0.81004  1.0000
  H   H4415     1.0  0.59824  0.54390  0.98173  1.0000
  C   C5538     1.0  0.58903  0.98311  0.95078  1.0000
  C   C5539     1.0  0.66529  0.53127  0.80184  1.0000
  C   C5540     1.0  0.51092  0.74333  0.95423  1.0000
  H   H4416     1.0  0.76673  0.61323  0.83919  1.0000
  C   C5541     1.0  0.89366  0.85905  0.86546  1.0000
  H   H4417     1.0  0.81536  0.54847  0.82633  1.0000
  H   H4418     1.0  0.82085  0.56654  0.84878  1.0000
  C   C5542     1.0  0.84958  0.66451  0.90758  1.0000
  C   C5543     1.0  0.85887  0.64371  0.90597  1.0000
  C   C5544     1.0  0.87538  0.63975  0.89336  1.0000
  C   C5545     1.0  0.88263  0.65651  0.88227  1.0000
  C   C5546     1.0  0.87291  0.67740  0.88345  1.0000
  C   C5547     1.0  0.85667  0.68130  0.89644  1.0000
  P   P184      1.0  0.88205  0.69956  0.86962  1.0000
  C   C5548     1.0  0.89441  0.71281  0.88202  1.0000
  C   C5549     1.0  0.90116  0.69198  0.85248  1.0000
  C   C5550     1.0  0.91896  0.70218  0.84748  1.0000
  C   C5551     1.0  0.93332  0.69687  0.83382  1.0000
  C   C5552     1.0  0.93000  0.68147  0.82497  1.0000
  C   C5553     1.0  0.91211  0.67158  0.82963  1.0000
  C   C5554     1.0  0.89759  0.67700  0.84322  1.0000
  C   C5555     1.0  0.88792  0.73422  0.88390  1.0000
  C   C5556     1.0  0.89841  0.74402  0.89322  1.0000
  C   C5557     1.0  0.91520  0.73246  0.90086  1.0000
  C   C5558     1.0  0.92156  0.71112  0.89918  1.0000
  C   C5559     1.0  0.91114  0.70131  0.88988  1.0000
  C   C5560     1.0  0.86067  0.71616  0.86032  1.0000
  C   C5561     1.0  0.84089  0.70960  0.86200  1.0000
  C   C5562     1.0  0.82452  0.72263  0.85469  1.0000
  C   C5563     1.0  0.82784  0.74210  0.84548  1.0000
  C   C5564     1.0  0.84762  0.74834  0.84329  1.0000
  C   C5565     1.0  0.86408  0.73536  0.85048  1.0000
  H   H4419     1.0  0.83712  0.66764  0.91761  1.0000
  H   H4420     1.0  0.85366  0.63066  0.91470  1.0000
  H   H4421     1.0  0.88299  0.62366  0.89243  1.0000
  H   H4422     1.0  0.89611  0.65301  0.87315  1.0000
  H   H4423     1.0  0.84960  0.69739  0.89801  1.0000
  H   H4424     1.0  0.92183  0.71439  0.85395  1.0000
  H   H4425     1.0  0.94703  0.70482  0.83013  1.0000
  H   H4426     1.0  0.94128  0.67728  0.81448  1.0000
  H   H4427     1.0  0.90951  0.65970  0.82272  1.0000
  H   H4428     1.0  0.88364  0.66946  0.84653  1.0000
  H   H4429     1.0  0.87492  0.74349  0.87821  1.0000
  H   H4430     1.0  0.89363  0.76064  0.89434  1.0000
  H   H4431     1.0  0.92351  0.73998  0.90796  1.0000
  H   H4432     1.0  0.93483  0.70221  0.90486  1.0000
  H   H4433     1.0  0.91631  0.68474  0.88868  1.0000
  H   H4434     1.0  0.83800  0.69445  0.86882  1.0000
  H   H4435     1.0  0.80919  0.71776  0.85614  1.0000
  H   H4436     1.0  0.81515  0.75233  0.83994  1.0000
  H   H4437     1.0  0.85016  0.76332  0.83600  1.0000
  H   H4438     1.0  0.87939  0.74044  0.84844  1.0000
  C   C5566     1.0  0.59000  0.65668  0.95609  1.0000
  C   C5567     1.0  0.78691  0.63209  0.85911  1.0000
  C   C5568     1.0  0.86928  0.59860  0.86481  1.0000
  S   S756      1.0  0.52502  0.57725  0.98445  1.0000
  S   S757      1.0  0.81497  0.99698  0.85044  1.0000
  C   C5569     1.0  0.80498  0.56282  0.82906  1.0000
  C   C5570     1.0  0.60552  0.60536  0.96970  1.0000
  C   C5571     1.0  0.63095  0.57398  0.97493  1.0000
  H   H4439     1.0  0.91209  0.61469  0.98424  1.0000
  C   C5572     1.0  0.91618  0.51859  0.84748  1.0000
  C   C5573     1.0  0.51875  0.71138  0.82189  1.0000
  H   H4440     1.0  0.51742  0.76490  0.96908  1.0000
  C   C5574     1.0  0.54943  0.68453  0.81756  1.0000
  C   C5575     1.0  0.52762  0.69054  0.81951  1.0000
  Fe  Fe379     1.0  0.98737  0.76124  0.87086  1.0000
  C   C5576     1.0  0.97335  0.98189  0.95443  1.0000
  C   C5577     1.0  0.51105  0.82399  0.94852  1.0000
  H   H4441     1.0  0.98750  0.88092  0.87088  1.0000
  H   H4442     1.0  0.85484  0.51958  0.95851  1.0000
  P   P185      1.0  0.69922  0.50141  0.79123  1.0000
  S   S758      1.0  0.50464  0.68377  0.92265  1.0000
  H   H4443     1.0  0.51764  0.67886  0.81939  1.0000
  C   C5578     1.0  0.51023  0.71361  0.98299  1.0000
  C   C5579     1.0  0.80806  0.57318  0.84177  1.0000
  Fe  Fe380     1.0  0.98425  0.71437  0.87218  1.0000
  H   H4444     1.0  0.50884  0.79372  0.91899  1.0000
  C   C5580     1.0  0.77202  0.56118  0.89805  1.0000
  C   C5581     1.0  0.76746  0.57176  0.91186  1.0000
  C   C5582     1.0  0.72444  0.76984  0.80308  1.0000
  H   H4445     1.0  0.59391  0.52594  0.92496  1.0000
  H   H4446     1.0  0.96983  0.64804  0.91227  1.0000
  H   H4447     1.0  0.67822  0.52786  0.90934  1.0000
  H   H4448     1.0  0.56493  0.94542  0.94069  1.0000
  C   C5583     1.0  0.77140  0.59255  0.91050  1.0000
  C   C5584     1.0  0.79037  0.66891  0.84893  1.0000
  H   H4449     1.0  0.93838  0.87417  0.84436  1.0000
  H   H4450     1.0  0.71538  0.78217  0.79560  1.0000
  H   H4451     1.0  0.65148  0.93756  0.92669  1.0000
  H   H4452     1.0  0.78474  0.56255  0.87250  1.0000
  H   H4453     1.0  0.59317  0.61703  0.97456  1.0000
  S   S759      1.0  0.66151  0.51640  0.94312  1.0000
  C   C5585     1.0  0.87371  0.89426  0.86701  1.0000
  C   C5586     1.0  0.55390  0.72032  0.81925  1.0000
  H   H4454     1.0  0.78587  0.50723  0.78802  1.0000
  S   S760      1.0  0.78165  0.51479  0.83027  1.0000
  C   C5587     1.0  0.67970  0.55267  0.83687  1.0000
  C   C5588     1.0  0.67048  0.56426  0.84964  1.0000
  C   C5589     1.0  0.66633  0.55389  0.86579  1.0000
  C   C5590     1.0  0.67179  0.53182  0.86897  1.0000
  P   P186      1.0  0.65612  0.56873  0.88269  1.0000
  C   C5591     1.0  0.63659  0.55504  0.89626  1.0000
  C   C5592     1.0  0.67738  0.57248  0.89280  1.0000
  C   C5593     1.0  0.69819  0.56378  0.88759  1.0000
  C   C5594     1.0  0.71469  0.56845  0.89447  1.0000
  C   C5595     1.0  0.71059  0.58186  0.90656  1.0000
  C   C5596     1.0  0.68994  0.59058  0.91183  1.0000
  C   C5597     1.0  0.67341  0.58607  0.90486  1.0000
  C   C5598     1.0  0.62210  0.54645  0.88953  1.0000
  C   C5599     1.0  0.60666  0.53614  0.89983  1.0000
  C   C5600     1.0  0.60560  0.53425  0.91693  1.0000
  C   C5601     1.0  0.62008  0.54252  0.92371  1.0000
  C   C5602     1.0  0.63566  0.55266  0.91345  1.0000
  C   C5603     1.0  0.64421  0.59480  0.87463  1.0000
  C   C5604     1.0  0.65699  0.61046  0.86834  1.0000
  C   C5605     1.0  0.64826  0.63039  0.86129  1.0000
  C   C5606     1.0  0.62676  0.63486  0.86036  1.0000
  C   C5607     1.0  0.61386  0.61955  0.86681  1.0000
  C   C5608     1.0  0.62252  0.59954  0.87392  1.0000
  H   H4455     1.0  0.68361  0.56079  0.82454  1.0000
  H   H4456     1.0  0.66723  0.58129  0.84682  1.0000
  H   H4457     1.0  0.66926  0.52356  0.88140  1.0000
  H   H4458     1.0  0.70191  0.55372  0.87798  1.0000
  H   H4459     1.0  0.73068  0.56178  0.89023  1.0000
  H   H4460     1.0  0.72341  0.58558  0.91177  1.0000
  H   H4461     1.0  0.68678  0.60108  0.92112  1.0000
  H   H4462     1.0  0.65755  0.59345  0.90862  1.0000
  H   H4463     1.0  0.62280  0.54767  0.87630  1.0000
  H   H4464     1.0  0.50359  0.71877  0.94257  1.0000
  S   S761      1.0  0.98026  0.68546  0.89122  1.0000
  H   H4465     1.0  0.68595  0.50338  0.85875  1.0000
  H   H4466     1.0  0.64729  0.55788  0.91906  1.0000
  H   H4467     1.0  0.67382  0.60720  0.86847  1.0000
  H   H4468     1.0  0.65827  0.64233  0.85646  1.0000
  H   H4469     1.0  0.62010  0.65022  0.85463  1.0000
  H   H4470     1.0  0.59717  0.62320  0.86611  1.0000
  H   H4471     1.0  0.61227  0.58788  0.87860  1.0000
  H   H4472     1.0  0.88596  0.80946  0.92025  1.0000
  H   H4473     1.0  0.91251  0.77704  0.92139  1.0000
  S   S762      1.0  0.98882  0.71603  0.84462  1.0000
  C   C5609     1.0  0.99396  0.52556  0.92221  1.0000
  C   C5610     1.0  0.92347  0.89246  0.90485  1.0000
  C   C5611     1.0  0.91586  0.91361  0.89951  1.0000
  C   C5612     1.0  0.92648  0.92990  0.90163  1.0000
  C   C5613     1.0  0.94400  0.92470  0.91008  1.0000
  P   P187      1.0  0.91658  0.95733  0.89502  1.0000
  C   C5614     1.0  0.90030  0.95905  0.87907  1.0000
  H   H4474     1.0  0.52174  0.80000  0.98207  1.0000
  C   C5615     1.0  0.87498  0.85153  0.86454  1.0000
  C   C5616     1.0  0.92887  0.78594  0.89724  1.0000
  C   C5617     1.0  0.89815  0.80714  0.90989  1.0000
  C   C5618     1.0  0.97397  0.87369  0.87008  1.0000
  H   H4475     1.0  0.74803  0.78914  0.80410  1.0000
  C   C5619     1.0  0.90718  0.94711  0.86600  1.0000
  C   C5620     1.0  0.89425  0.94754  0.85404  1.0000
  C   C5621     1.0  0.87444  0.95998  0.85499  1.0000
  C   C5622     1.0  0.86782  0.97241  0.86765  1.0000
  C   C5623     1.0  0.88083  0.97229  0.87946  1.0000
  C   C5624     1.0  0.65038  0.96719  0.93551  1.0000
  C   C5625     1.0  0.95788  0.96348  0.88160  1.0000
  H   H4476     1.0  0.82357  0.59345  0.89010  1.0000
  H   H4477     1.0  0.76802  0.60071  0.92123  1.0000
  C   C5626     1.0  0.57886  0.67493  0.96210  1.0000
  C   C5627     1.0  0.95349  0.81218  0.82755  1.0000
  C   C5628     1.0  0.68450  0.50585  0.93096  1.0000
  H   H4478     1.0  0.53130  0.81712  0.92620  1.0000
  H   H4479     1.0  0.91546  0.87993  0.90296  1.0000
  H   H4480     1.0  0.90167  0.91716  0.89381  1.0000
  H   H4481     1.0  0.95203  0.93690  0.91244  1.0000
  C   C5629     1.0  0.89931  0.82269  0.89608  1.0000
  C   C5630     1.0  0.92981  0.80120  0.88327  1.0000
  H   H4482     1.0  0.94739  0.87108  0.91681  1.0000
  H   H4483     1.0  0.59672  0.60495  0.90772  1.0000
  H   H4484     1.0  0.89550  0.83725  0.83792  1.0000
  H   H4485     1.0  0.92249  0.93739  0.86513  1.0000
  C   C5631     1.0  0.76856  0.67446  0.85170  1.0000
  H   H4486     1.0  0.86428  0.96023  0.84583  1.0000
  C   C5632     1.0  0.51455  0.74897  0.96890  1.0000
  H   H4487     1.0  0.96437  0.97051  0.95191  1.0000
  H   H4488     1.0  0.96211  0.94648  0.88270  1.0000
  H   H4489     1.0  0.74865  0.51281  0.92883  1.0000
  H   H4490     1.0  0.90669  0.88675  0.86817  1.0000
  H   H4491     1.0  0.64687  0.55998  0.95361  1.0000
  H   H4492     1.0  0.93866  0.76239  0.79152  1.0000
  C   C5633     1.0  0.55186  0.58456  0.93974  1.0000
  C   C5634     1.0  0.55620  0.57806  0.92416  1.0000
  C   C5635     1.0  0.57225  0.58565  0.91261  1.0000
  C   C5636     1.0  0.58393  0.59978  0.91664  1.0000
  C   C5637     1.0  0.57931  0.60672  0.93217  1.0000
  C   C5638     1.0  0.56337  0.59879  0.94377  1.0000
  P   P188      1.0  0.59566  0.62285  0.93836  1.0000
  C   C5639     1.0  0.58031  0.64501  0.94750  1.0000
  H   H4493     1.0  0.87558  0.98261  0.88879  1.0000
  C   C5640     1.0  0.85603  0.86540  0.86429  1.0000
  H   H4494     1.0  0.54732  0.56690  0.92115  1.0000
  C   C5641     1.0  0.56587  0.55847  0.98317  1.0000
  H   H4495     1.0  0.85363  0.96897  0.93647  1.0000
  C   C5642     1.0  0.78515  0.59198  0.88151  1.0000
  C   C5643     1.0  0.61056  0.60484  0.95266  1.0000
  C   C5644     1.0  0.91782  0.58545  0.97380  1.0000
  C   C5645     1.0  0.61168  0.63494  0.92069  1.0000
  C   C5646     1.0  0.60185  0.64802  0.90806  1.0000
  C   C5647     1.0  0.61377  0.65856  0.89471  1.0000
  C   C5648     1.0  0.63558  0.65609  0.89384  1.0000
  C   C5649     1.0  0.64550  0.64314  0.90636  1.0000
  C   C5650     1.0  0.63359  0.63279  0.91987  1.0000
  H   H4496     1.0  0.50064  0.73285  0.78944  1.0000
  H   H4497     1.0  0.50659  0.64391  0.94385  1.0000
  S   S763      1.0  0.51132  0.88817  0.97916  1.0000
  C   C5651     1.0  0.76504  0.63793  0.86226  1.0000
  H   H4498     1.0  0.56008  0.60321  0.95608  1.0000
  C   C5652     1.0  0.78824  0.57059  0.82016  1.0000
  H   H4499     1.0  0.56495  0.55731  0.97049  1.0000
  C   C5653     1.0  0.68122  0.52032  0.85616  1.0000
  H   H4500     1.0  0.50155  0.66133  0.98401  1.0000
  C   C5654     1.0  0.58585  0.96706  0.94252  1.0000
  H   H4501     1.0  0.60629  0.65187  0.95787  1.0000
  C   C5655     1.0  0.50820  0.52479  0.98023  1.0000
  H   H4502     1.0  0.58491  0.65035  0.90864  1.0000
  H   H4503     1.0  0.60613  0.66877  0.88500  1.0000
  H   H4504     1.0  0.64475  0.66428  0.88343  1.0000
  H   H4505     1.0  0.88596  0.59729  0.86537  1.0000
  H   H4506     1.0  0.99178  0.81303  0.90979  1.0000
  Fe  Fe381     1.0  0.66712  0.67965  0.79795  1.0000
  H   H4507     1.0  0.63886  0.95437  0.90032  1.0000
  C   C5656     1.0  0.78019  0.60265  0.89538  1.0000
  C   C5657     1.0  0.68900  0.51484  0.91445  1.0000
  C   C5658     1.0  0.71186  0.53508  0.96560  1.0000
  C   C5659     1.0  0.96329  0.87960  0.85640  1.0000
  C   C5660     1.0  0.95162  0.90358  0.91536  1.0000
  H   H4508     1.0  0.57587  0.58030  0.90064  1.0000
  H   H4509     1.0  0.52192  0.62706  0.97832  1.0000
  C   C5661     1.0  0.65171  0.77604  0.82096  1.0000
  C   C5662     1.0  0.63242  0.77146  0.82955  1.0000
  C   C5663     1.0  0.62892  0.76970  0.84673  1.0000
  C   C5664     1.0  0.64469  0.77262  0.85531  1.0000
  C   C5665     1.0  0.66407  0.77749  0.84673  1.0000
  C   C5666     1.0  0.66752  0.77891  0.82949  1.0000
  P   P189      1.0  0.68506  0.77998  0.85769  1.0000
  C   C5667     1.0  0.70141  0.79825  0.84529  1.0000
  C   C5668     1.0  0.67375  0.78984  0.87688  1.0000
  C   C5669     1.0  0.67161  0.81145  0.87829  1.0000
  C   C5670     1.0  0.66242  0.81883  0.89313  1.0000
  C   C5671     1.0  0.65531  0.80474  0.90665  1.0000
  C   C5672     1.0  0.65745  0.78321  0.90539  1.0000
  C   C5673     1.0  0.66665  0.77577  0.89059  1.0000
  C   C5674     1.0  0.72338  0.79401  0.84436  1.0000
  C   C5675     1.0  0.73578  0.80865  0.83531  1.0000
  C   C5676     1.0  0.72648  0.82756  0.82703  1.0000
  C   C5677     1.0  0.70467  0.83175  0.82763  1.0000
  C   C5678     1.0  0.69217  0.81714  0.83667  1.0000
  C   C5679     1.0  0.70049  0.75438  0.86251  1.0000
  C   C5680     1.0  0.71336  0.75117  0.87494  1.0000
  C   C5681     1.0  0.72502  0.73131  0.87905  1.0000
  C   C5682     1.0  0.72384  0.71449  0.87082  1.0000
  C   C5683     1.0  0.71122  0.71758  0.85834  1.0000
  C   C5684     1.0  0.69963  0.73748  0.85413  1.0000
  H   H4510     1.0  0.71791  0.53915  0.92387  1.0000
  H   H4511     1.0  0.65468  0.77679  0.80767  1.0000
  H   H4512     1.0  0.61404  0.76579  0.85340  1.0000
  H   H4513     1.0  0.64166  0.77088  0.86860  1.0000
  H   H4514     1.0  0.68259  0.78177  0.82262  1.0000
  H   H4515     1.0  0.67692  0.82272  0.86804  1.0000
  H   H4516     1.0  0.66072  0.83553  0.89411  1.0000
  H   H4517     1.0  0.64805  0.81052  0.91810  1.0000
  H   H4518     1.0  0.65183  0.77230  0.91586  1.0000
  H   H4519     1.0  0.66798  0.75905  0.88978  1.0000
  H   H4520     1.0  0.73115  0.77939  0.85039  1.0000
  H   H4521     1.0  0.75270  0.80514  0.83454  1.0000
  C   C5685     1.0  0.77471  0.58890  0.82383  1.0000
  H   H4522     1.0  0.98888  0.52305  0.91102  1.0000
  H   H4523     1.0  0.67527  0.82069  0.83709  1.0000
  H   H4524     1.0  0.71447  0.76409  0.88139  1.0000
  H   H4525     1.0  0.73498  0.72898  0.88860  1.0000
  H   H4526     1.0  0.73276  0.69907  0.87408  1.0000
  H   H4527     1.0  0.71050  0.70457  0.85184  1.0000
  H   H4528     1.0  0.69018  0.73962  0.84425  1.0000
  C   C5686     1.0  0.89843  0.98986  0.93472  1.0000
  C   C5687     1.0  0.56257  0.69940  0.81756  1.0000
  C   C5688     1.0  0.79847  0.85787  0.88387  1.0000
  C   C5689     1.0  0.78659  0.85557  0.87192  1.0000
  C   C5690     1.0  0.76819  0.86963  0.86962  1.0000
  C   C5691     1.0  0.76191  0.88636  0.87891  1.0000
  C   C5692     1.0  0.77402  0.88908  0.89068  1.0000
  C   C5693     1.0  0.79210  0.87443  0.89334  1.0000
  P   P190      1.0  0.76565  0.90989  0.90344  1.0000
  C   C5694     1.0  0.74539  0.92929  0.89500  1.0000
  C   C5695     1.0  0.75601  0.89691  0.92350  1.0000
  C   C5696     1.0  0.73828  0.88673  0.92533  1.0000
  C   C5697     1.0  0.73040  0.87678  0.94079  1.0000
  C   C5698     1.0  0.94141  0.88745  0.91270  1.0000
  C   C5699     1.0  0.75842  0.88610  0.95264  1.0000
  C   C5700     1.0  0.76635  0.89606  0.93719  1.0000
  C   C5701     1.0  0.72584  0.93486  0.90442  1.0000
  C   C5702     1.0  0.71061  0.95026  0.89764  1.0000
  C   C5703     1.0  0.71495  0.96051  0.88159  1.0000
  C   C5704     1.0  0.73442  0.95521  0.87223  1.0000
  C   C5705     1.0  0.74961  0.93973  0.87892  1.0000
  C   C5706     1.0  0.78688  0.92433  0.90375  1.0000
  C   C5707     1.0  0.78474  0.93875  0.91506  1.0000
  C   C5708     1.0  0.80084  0.95050  0.91501  1.0000
  C   C5709     1.0  0.81892  0.94836  0.90342  1.0000
  C   C5710     1.0  0.82083  0.93460  0.89176  1.0000
  C   C5711     1.0  0.80486  0.92269  0.89188  1.0000
  H   H4529     1.0  0.81260  0.84678  0.88575  1.0000
  H   H4530     1.0  0.79165  0.84297  0.86435  1.0000
  H   H4531     1.0  0.75898  0.86778  0.86036  1.0000
  H   H4532     1.0  0.74768  0.89710  0.87676  1.0000
  H   H4533     1.0  0.80135  0.87593  0.90267  1.0000
  H   H4534     1.0  0.73042  0.88672  0.91482  1.0000
  H   H4535     1.0  0.97213  0.56276  0.87984  1.0000
  H   H4536     1.0  0.87506  0.83493  0.86382  1.0000
  H   H4537     1.0  0.78054  0.90295  0.93606  1.0000
  H   H4538     1.0  0.72246  0.92804  0.91715  1.0000
  H   H4539     1.0  0.69585  0.95504  0.90514  1.0000
  H   H4540     1.0  0.70352  0.97309  0.87660  1.0000
  H   H4541     1.0  0.73793  0.96343  0.85989  1.0000
  H   H4542     1.0  0.76483  0.93612  0.87166  1.0000
  H   H4543     1.0  0.77042  0.94131  0.92363  1.0000
  H   H4544     1.0  0.79891  0.96203  0.92345  1.0000
  H   H4545     1.0  0.83096  0.95813  0.90297  1.0000
  H   H4546     1.0  0.83423  0.93388  0.88215  1.0000
  H   H4547     1.0  0.80623  0.91298  0.88221  1.0000
  H   H4548     1.0  0.98275  0.59766  0.88006  1.0000
  C   C5712     1.0  0.68424  0.52768  0.79121  1.0000
  H   H4549     1.0  0.76917  0.54497  0.89913  1.0000
  Fe  Fe382     1.0  0.82032  0.81798  0.79168  1.0000
  C   C5713     1.0  0.86262  0.72853  0.80700  1.0000
  C   C5714     1.0  0.57349  0.99066  0.96299  1.0000
  H   H4550     1.0  0.75858  0.53279  0.80185  1.0000
  H   H4551     1.0  0.50708  0.50734  0.96072  1.0000
  C   C5715     1.0  0.88389  0.72589  0.80866  1.0000
  C   C5716     1.0  0.75404  0.52075  0.79610  1.0000
  H   H4552     1.0  0.76100  0.56376  0.92362  1.0000
  S   S764      1.0  0.82795  0.78808  0.80890  1.0000
  C   C5717     1.0  0.75591  0.65897  0.85842  1.0000
  C   C5718     1.0  0.91516  0.81983  0.88261  1.0000
  H   H4553     1.0  0.59810  0.96086  0.93333  1.0000
  C   C5719     1.0  0.94714  0.82098  0.84219  1.0000
  H   H4554     1.0  0.64855  0.99837  0.94121  1.0000
  H   H4555     1.0  0.86619  0.52876  0.85841  1.0000
  C   C5720     1.0  0.82609  0.60164  0.86348  1.0000
  H   H4556     1.0  0.60366  0.98948  0.94798  1.0000
  H   H4557     1.0  0.85194  0.72017  0.81607  1.0000
  H   H4558     1.0  0.92940  0.52905  0.86630  1.0000
  H   H4559     1.0  0.96855  0.89148  0.84655  1.0000
  H   H4560     1.0  0.64151  0.62348  0.92970  1.0000
  C   C5721     1.0  0.53212  0.72633  0.82149  1.0000
  C   C5722     1.0  0.91820  0.82162  0.82078  1.0000
  H   H4561     1.0  0.83344  0.50440  0.92852  1.0000
  C   C5723     1.0  0.55466  0.98212  0.96717  1.0000
  C   C5724     1.0  0.62546  0.58833  0.94693  1.0000
  P   P191      1.0  0.91814  0.84088  0.86558  1.0000
  C   C5725     1.0  0.91043  0.98078  0.92138  1.0000
  C   C5726     1.0  0.50425  0.80105  0.93010  1.0000
  H   H4562     1.0  0.69378  0.55319  0.94717  1.0000
  C   C5727     1.0  0.50613  0.70834  0.96823  1.0000
  C   C5728     1.0  0.52811  0.63694  0.98514  1.0000
  H   H4563     1.0  0.62868  0.58700  0.93392  1.0000
  C   C5729     1.0  0.99159  0.51073  0.93638  1.0000
  C   C5730     1.0  0.92128  0.51723  0.86334  1.0000
  H   H4564     1.0  0.88360  0.53655  0.96419  1.0000
  C   C5731     1.0  0.93948  0.85419  0.86786  1.0000
  H   H4565     1.0  0.52330  0.52952  0.97501  1.0000
  C   C5732     1.0  0.63572  0.57301  0.95802  1.0000
  C   C5733     1.0  0.64780  0.95463  0.92407  1.0000
  H   H4566     1.0  0.91401  0.73456  0.79876  1.0000
  C   C5734     1.0  0.74037  0.87660  0.95446  1.0000
  S   S765      1.0  0.76553  0.99794  0.84519  1.0000
  H   H4567     1.0  0.71647  0.86930  0.94218  1.0000
  H   H4568     1.0  0.88806  0.83705  0.89613  1.0000
  H   H4569     1.0  0.53252  0.67611  0.94810  1.0000
  H   H4570     1.0  0.65619  0.95985  0.94693  1.0000
  H   H4571     1.0  0.76624  0.88582  0.96322  1.0000
  C   C5735     1.0  0.70745  0.50707  0.90455  1.0000
  H   H4572     1.0  0.55180  0.64396  0.93757  1.0000
  H   H4573     1.0  0.84070  0.89752  0.86530  1.0000
  C   C5736     1.0  0.98865  0.56428  0.87829  1.0000
  S   S766      1.0  0.69420  0.74564  0.80183  1.0000
  H   H4574     1.0  0.57949  0.69477  0.81627  1.0000
  H   H4575     1.0  0.98990  0.96866  0.87329  1.0000
  C   C5737     1.0  0.93711  0.97296  0.88606  1.0000
  H   H4576     1.0  0.87483  0.95247  0.91320  1.0000
  H   H4577     1.0  0.96554  0.89978  0.92148  1.0000
  H   H4578     1.0  0.94610  0.83588  0.89131  1.0000
  H   H4579     1.0  0.87756  0.97575  0.97867  1.0000
  H   H4580     1.0  0.83466  0.60869  0.83708  1.0000
  C   C5738     1.0  0.85833  0.51799  0.97101  1.0000
  H   H4581     1.0  0.81642  0.64388  0.85005  1.0000
  C   C5739     1.0  0.72146  0.53434  0.93632  1.0000
  H   H4582     1.0  0.84190  0.85960  0.86290  1.0000
  H   H4583     1.0  0.80014  0.68093  0.84363  1.0000
  C   C5740     1.0  0.97924  0.96747  0.91833  1.0000
  C   C5741     1.0  0.92352  0.56351  0.97680  1.0000
  C   C5742     1.0  0.59076  0.93416  0.98480  1.0000
  H   H4584     1.0  0.54971  0.69632  0.96358  1.0000
  C   C5743     1.0  0.56714  0.95846  0.94658  1.0000
  C   C5744     1.0  0.79954  0.64781  0.85258  1.0000
  H   H4585     1.0  0.94374  0.80473  0.80593  1.0000
  C   C5745     1.0  0.51414  0.73425  0.98326  1.0000
  C   C5746     1.0  0.70783  0.54218  0.94947  1.0000
  H   H4586     1.0  0.97410  0.53627  0.97771  1.0000
  C   C5747     1.0  0.97768  0.98945  0.91425  1.0000
  C   C5748     1.0  0.72924  0.51980  0.96861  1.0000
  S   S767      1.0  0.62116  0.50104  0.98222  1.0000
  C   C5749     1.0  0.89767  0.73685  0.79706  1.0000
  C   C5750     1.0  0.90637  0.50290  0.84355  1.0000
  C   C5751     1.0  0.74289  0.51164  0.95544  1.0000
  H   H4587     1.0  0.69328  0.52213  0.83029  1.0000
  H   H4588     1.0  0.96264  0.99901  0.91617  1.0000
  Fe  Fe383     1.0  0.50468  0.75070  0.88199  1.0000
  H   H4589     1.0  0.92003  0.53170  0.83822  1.0000
  C   C5752     1.0  0.73282  0.51912  0.79707  1.0000
  H   H4590     1.0  0.63978  0.55451  0.81048  1.0000
  C   C5753     1.0  0.65428  0.55179  0.80214  1.0000
  H   H4591     1.0  0.51112  0.75479  0.94315  1.0000
  H   H4592     1.0  0.95371  0.50996  0.96004  1.0000
  H   H4593     1.0  0.73150  0.51375  0.98126  1.0000
  H   H4594     1.0  0.92629  0.98418  0.91745  1.0000
  H   H4595     1.0  0.77547  0.52773  0.96983  1.0000
  H   H4596     1.0  0.97507  0.74473  0.79125  1.0000
  C   C5754     1.0  0.99465  0.58391  0.87844  1.0000
  H   H4597     1.0  0.50533  0.60619  0.94171  1.0000
  H   H4598     1.0  0.86840  0.99329  0.95007  1.0000
  C   C5755     1.0  0.76938  0.50652  0.78817  1.0000
  H   H4599     1.0  0.50228  0.69295  0.96769  1.0000
  H   H4600     1.0  0.63838  0.56185  0.98362  1.0000
  H   H4601     1.0  0.98519  0.93731  0.98158  1.0000
  C   C5756     1.0  0.84636  0.50687  0.98398  1.0000
  C   C5757     1.0  0.49885  0.51232  0.97217  1.0000
  H   H4602     1.0  0.80600  0.50495  0.95266  1.0000
  H   H4603     1.0  0.70111  0.54083  0.97584  1.0000
  H   H4604     1.0  0.63050  0.99324  0.89441  1.0000
  C   C5758     1.0  0.99649  0.90435  0.98125  1.0000
  H   H4605     1.0  0.87205  0.50914  0.92947  1.0000
  S   S768      1.0  0.55940  0.91239  0.98230  1.0000
  C   C5759     1.0  0.72671  0.50355  0.78969  1.0000
  H   H4606     1.0  0.76149  0.65291  0.79011  1.0000
  P   P192      1.0  0.53458  0.99209  0.98293  1.0000
  Fe  Fe384     1.0  0.52224  0.85376  0.97715  1.0000
  H   H4607     1.0  0.49773  0.74452  0.84785  1.0000
  H   H4608     1.0  0.99618  0.90519  0.96814  1.0000
  C   C5760     1.0  0.96888  0.99807  0.87431  1.0000
