data_image0
_chemical_formula_structural       HFeSC2H2C2HC2SC2FeS2FeS2FeCFeS3FeS2FeS2FeSFeS3C3H2SC6H4CH3CH2C2H2C6H4CSC7H3CHC4H5CH3C2HC6PC5HC9H7C2PH7C2H3CH2C7PC14HCH2CH13C2H2CH4CHC2H5CHC2H3C6HCSCHCPC5H2CSC6HFeC2H4C7H2CHCHCHC2H4C2HFeC3HC5HC3HPHSH6C2H2C2HC2HCHC2HC2HC2HC4SCH2CH2CH4PCH3CHCHCH2CSHCH3C4P2HC4HC3H2C2H2CH2C3H2CHC6PC12H12CHCFeCH3CHC2HCH2CHCH3C2HCH2CFeH2CHC2HC2HSH2CSCSH2C5HCSCFe2S2FeS3FeS2FeS2FeSFeCS2CSHC6H3C6H4CHCHCHCSC2H2FeC7H4C4H3CH2CH5CH2CFeC3H2CH2C5HC4H2CH4C2H4C5PC15H12PH3C6PC18H6FeH13FeH2CHC3HC3HC4HC2HCSC2H2C2HCHCHCHFeHCHCSC3SC2PC6PHSH2C2FeC2H2CSCH2C3H2C3HC2SHCHPCHCHCH3C2HCH2SHCSHCH2CHC2H3CH3CH2C6HCHC2HCHCH2CFeH5CH3C2FeCFeCHCHCHCHCH6C2HCHC4HCH2C2H4CHC2SH3SCH2C2SHC2HCHSHC2HCHC2H2CPSHC2SFeHFeC2FeS2C3HCHCHSFeS2FeS2FeSFeS3FeSCHSFeSFeS3FeHSFeC2HCHCSC3H4FeC6H3C7H4PCH5C3FeCHC5H3S2C3HCHC3FeC6H4C2H9C2H2C2HSHC4HC3HC2HCHCHC2HCH5CHCH2CH2CHCH4C9H6CH3CHC2H2CHC2HC4SHPHC4H2CH2C4H2C3SC2HC4H2FeH3C2HCHC9PC8HCH5C2H3C2HPCH3C2H3C3HPC3HSC4HPHC3PC12HCH2SH3CHCH6C2SH3C2HCH2CH4C6HPC5HC2PH3C3H3C2H5CHCHC2HCH3C10HC3HCHCHCHCH3CH2CHC4H3C3PFeSCHSHSCFeSCSC3HCS2CSHSFeS2FeS2FeSFeS3FeHCFeHSH2FeCS3HCFePC4HCH3SH7C2H2C2HSHCHC6H4C6H4C4HC2SC5HCH6FeC3HCHC2H2C5HC5H4C2FePCFeCHSH2CH5C2HC2SC2HSCSCH2CH2CHCSH4C7PC18H21C4HC4HCHCH2CHCHC2HC2H3C3FeH3CHC6PC17H8CH11FeC3SHSFeC6H2CHCSC3HCSH2C2HCHCSCH2CH2C2HC2HC2SC3H2SC2HC2SC2HSC7H4C2H2CHCSPH5CHC3HC2HC7HCSFeCH2C4HPCHCH2CH3Fe2C2HC2FeHC5PC4HC10FeHC2H6C2H8C2HCH3C2PHC2H2C5H2C2H2C2H4C2H2CHCHCHCH3CH2C2FeS2C4H4C4SCFeS2FeSC3FeS3CHC2SCHC2HC2FeC7H3FeCHC4H3C2SH2C2HC3HC5H2C6H4CHC2H2C2SFeC2SHC2H5C3PC9HC3H7CH3C3PC7H4SC4H12CHC3HC2HPCHC2H3C4SCHCH2CHCH2C3H3C7HCHSHSCH2CH4CH4C2HCFeCHC4HC2H3C6PC4H3CSH2C7H6CHCSH4CHCH3C4SH2C3PC4HC2SCHC3FeH3CHC3HC2PC2HFeSH2C2HC2HCH3C3HSFeH3SHCHCHC2H4C3HCH2CHCPS2CSFeSFeSHC2FeS2CSFeSFeS4C4SCHFeS2FeS2FeCFeS3CHC4HC5H2C6H4C7H3C6H4C7H4C2HC6H4C4H4C2SC7H6C2H2C2H3CH2CHC3H3FeH2FeHSHC3HCH2SCHC4HCSHC7PC18H20C2HCHCHCHC5HFeC5FeC2H3CHCPCH3CH2CH7C5HFeCHC2HC4HC3PC8HC5SC3PCH16CHSCHSPC3H4CHFeC4FeC2H3CH2CHCHC4HCHCHCPHSH2C2HC4H2CHC5HSFeC2SHCHCHCPC4HCHC2HCHCH3C3HCH4CHCH3CHC3HC2HC2H2CH4CSC4H6CHC2HCH3CH2CS2H3CH2C4FeCH3FeCHC2SFeS2CFeS2CFeS2FeS2FeSFeS4FeHCFeSCSFeSCFeSFeS3C4SH2CHC6H2CHC5H2C6H4C6H4SH3C5HCHC5HCHC6H4C6H4CHC4H2C3H2CFeHC2HC4HCH3C2H2C10PC18H2CH6SH4CH5CHFeCH2C2HCH2CH2C2FeCHSHCHCH2C3H2CHCH2C7HCH6CHCH3C2H7C7PC17H20CH2CPC8HCH2C2HC3H2C3H2CHC4H4CH2CSHSC3HCHCSCSC4H2C2HC2H2C3S2CHCH4CPH2PH3FeHC4SHCFePC5H2SH3C2HC3HPCSHCHCH2C6HCHCH4CH2PC2H2FeHCHC3H3C2H6SHCHCSH2CHC2HCH2CHC3FeH2FeS2FeSHFeS2C2H2SCFeS2FeS2FeSFeS3C3HC3HCH3C2SH6C2HCHSC2HCH4C2HC7H3C5H3FeC7H3CHSC6H7SC2HCFeSC2HC5PC9HC2H2CHC4H9CFeCH3C2HCH3C4H2CH6C2HC6PC18H12CH7CHCHSHC2HFeC2HC2HCSHSCHCHSC6SHC6PC8HC9HCH9C2H7CHSHC6H4CHFeH3CHCHCSCH2CH2CH7CFe2HCH2CH2C5SC2HSHCHCHSCFeSCFeCFeSCSFeS2FeS2FeSFeS4C5H2C2HC5H5CHC6H4CHC4HC2HCHC3SCSHC3H2C6H4CH2C4HC2HCHC2H2CPHCPHC2H2C4HC2FeCHCH2C6H2CH3C2HC7PC8HSC5HCH7CH4FeH5SC2H3CH2C3H5C2HC3FeC4HPC10H3CH2CH3C2HCH3FeCHC6PC14FeCH17SHPCH2SC6HCHCH7CH2C3HCHC2HSCFeC2HSCHCH3CH2C3HCH2SHC3HCHPH2C5HCFeCHCSFeC2HCHCH2SH2PH3C5HCH4C5HCHC2H3CSHCSH2CH2CHSCHCH2CH2C3HCH2CHCHSHCH2CHCPCFeS2CH2CHFeC2HC2HC2H2C2FeS2FeS2HCSHC2HFeHCFeS2FeS2FeSFeS3H3CSFeCS2C4H2CH3SC3SFeCSHSH3S2C3HCH2CHC6H2C2H3C8H4C6H4C4H2C3H6CHFeH2C4H2SC7H2SFeHCHC3H5SH2CHC10H2CH3C2HCHC7HC2H3C2H2PC13H10CHSHC2PC2HC10HC3H3CH6C5PC14HCH3C2H6CH7CFeH4CH2C3HPC14HCHSHCH8CH2C9H7C2HSC2PC13H2CH9CH2C2H4SPHC6FeCH3CSHCHC4HC4HC3HCH2CH2CPCHCH4C5HC2HC6H2CHCHC2HCH5CH5C3H3C2H2C6SC2HCHCSH6CHPCH3CHCSPC3SHCH4C2H2C3H4FeS3FeSC3SCHCPHSFeSC3S2HFeS2FeS2FeSFeS3HC3H2C4HCFeH3C2H2CH2S2CSC6H4CHCH2CHCHCPC6H4CSC4HSCHC2H5CHCHC6HCHC4HPCH4C2H2CSH3C2HC3HC2H2CHC2HC2H3PHPHC2HC2HC3HCH2C5SHCH3CH2CHCHC2H6C2H2C2HCHSCHCH3CH2C3HC7SCH2FePH5C5PC3SC14HCH4SCFeH11C10HCHC6HCSH8CH6C7FeH2C3HCH2FeH2PCFeHC2H6CH4C3HCHCHC2HC3HC3HC3HS2HSCH9CHC4H2CHC4FeCHCHCH2C8HC2HC2HCPC7SH3CHCH3C4HCH4C5HC3H2CHC2H3C2HC2H3C2HC2HC3H3C2HC2HCHCH2CFeS2FeS2FeSFeS3HCHFeS2HFeSHSFeC2HCH2FeSHSHCH2FeSFeS2FeCFeS3HCH2FeSHCSH2CFeSCSHCSHCH2C2HPCFeC2HCH2CH2C2H3CHC4HC9H2C7H4C2H2SC9H4C6H4C6H4C4HCPCHC2HCHCH2C2HCH2CSC8HFeC2HCH5C5FeC4HCHC2SC2HC3HS3HCH2CFeCH3C2H2C3HC2HSHC2H2C2H2CSHC2H5FePC2HCHCH2CH3C6H4CHCHCH2CH4C7PC18H20C2PCH2CH2C13H7CH4C2HCH3SHC2H2CHCPH4C3HCH2C2PCH2CHCHCSC2H2C2HC2HC4H2CPC8HC9HC3H8C3H2CH4C2HC2HPHC2H3C2FeCHCH2CHCHCHC2HC3HCHC2SC2S2CFeSFeSFeCH2SFeHCHSHCHFeS2C2SHC2HC2H2C2FeS2FeSFeS3FeS2FeS2FeSFeS3C3H2CS2H2C6H4CHCHC6H4C3HC4H2SC2HSHC2HC6H4CFeHC3HCHC5H3CHFeC3H2FeHC4PHSH2C2H2C2HC2HC3H4C3HPCPCH3C3HCH2C2H2CH2C7PC18H21CHCSC3FeC4H3PC2HSHC4H3C2HC3HCHCHC3FeHSH3C10H4SHCH2CHC2PC7PC3HC14H7C2H9C6PC7HCHCHC2H2C2H10CHCHCHC2H3CHPHC2HC2HC2H2C3H2C2H3C2HCFeHC5H2CHSH2CHSHSH3CHC4HCHCFeHC2HCHC2HC2SCHC3H2CHCH2CSCHC3HCSCH2CH5C2H2CHCH3SHC2HPCH2CH3C5HC2SCH3FeHCFeSFeS2FeS2H3SHC2FeCSHC2SHFeSHS3CFeS2C2SFeSH2SCPSCH3C5HFeH3C7H4C6H3C8H4C6H4CHC2HCH3CH3C3HCH3CH5CH5CSC2H3C2H2CPCH2C2HCSCH2C11HCH7CH9C2HC3SFeC5HFeHCHC2H3CFeH4CHC2H2C2H3C4HC4H2C4HC2HCH3C4SC3HPH2C2H2CH2PSHCHC2PHC8HC4FeHCHC4H5C2H3CSC2H2CH2C9H2C4SH3C5SC3HCFeHSFeS2FeS2FeSFeS3CFeHC2H2SH3FeH5CH2SHFeHFeS3FeSFeSFeS2C2HSC2S3FeSHC8H2C6H2C2H2SH2CHC3H2C8H4C6H4C6H4C6H3CHCHC4HC2HC4SHCHCH3C2H3FeC8HSHCSCHSHC2HCH2CSHC3PC6PC18H20SCHCSC2HCHC3HFeHCHCH5CHCH2C6PC18H18C2HC2H2CHFeCH3C4PCHSHCH2C11HC2H3CHCH2CH4CH3C3HS3CHCHC7H2CPC2H5CSC10H7C3H2CPC3FeH2C4SCHCHCH2PCHSHCH2CFeHC2H3CPC4SC2FeH3CH2CPCHC2HCHCHCH2C3HCH3C4HCH3CH2CHC3H3C3SH2CHCSCH4C2HCH2CHCHFeHSCH3CH4C2HCHCFeS2FeS2FeSFeCS2CHSHSFeS2FeS2FeCFeS3C5H3CH4Fe2S2C3FeCFeHS2HC2H2FeC2HC4H2FeCH2CH2PSH5C3PH3C6H2CSC5H4CHC2HC6H4CSCHC2HCS2HC6H5C2FeH3C6H4C2HC2H2C4HC6PC18H7CH4CH5C12H8C7PC18H20CHCH2CH5SCH6CHC3HC3HCH2C2H2C2H2C2H2CHC2HC6SC3H2SC4HSC7H2C2H6C2HC2H4C5HPHSC4H2C7HCSHC2HCHCHCHCHCH4CH2C3PC6HCHC4HCHC2HCH3C3H3CHC3SPC2HCHC10HC3HCH5CPCH4CH2CH3CH2C2HCH2C2H2C4H2CHC6PC2HC2H4CHCHCH2C2HC2H3CHCH4C2HCH2C2H3SHCH2C3HCHCH3CH2C3HCHCH3C2HC2HCH4C2SFe2SC2HFeHSHSPFeSHSFeSFeHSC2FeCHCH2SFeHC4H3CSC2HC2HC2HCH3C3HCH2CHC2H4CH4CHCHCHC2HCSHCH3CHC2HCHSH2C2H3C3HC6HCH2CHC4HC11H4CSHC4PHFeC2H2CFeHC4H3C4HCHC2FeC4H2C3H2FeCHC3HC2HPSCH5CHC6HC2H3CHSC4HPHC2PC2HCH4C2HC3HCH2SH2C3HCHC2H7C3HSC3HCHC3HCHCPHCSC3HC4H4CFeC6HCHCHC5HC3SCFeHCHCHCHSC2HCH2SHC2SCSC3H3SHC4HC2HPH7C4H2CHCSC4H2CHC3H2SHCSHC3HCH2C6SH2CHC3H2CH3C2H2C2H2SCH2CH4C2H4CHCH2C2HCSC4HCH3FeH5CHFeS2FeSCFeSFeS3HSFeS2FeS2FeSFePS2FeS2FeSHFe2S3H3C2HFeC6HC6H5C8H5PHC7H6C4HC2HC8H4CHCH2C2FeHCHC5H5C4HC2H2C2H2CHC3SC2H2CHCHC2H3CH3C2HCPC2HCSCSHFeCHCHC2HCHC3H2CSH3CH3C7PC10HC7H13SH6SCHCHCH2C2HSHC3HCH2CH2CHC2H2C3HC2SH2CHC5HC2HC2H3CHFeC3H2PSH3C2HCH2C3H2SC2HC2HCH4C6PC18SPH18C6HC2H2CHC3HSCHCHC3PC5H2C2H2C3H2C3HCFeH2CHCH4CH3CHC3H3CSC2H2C2H3CHCH2CHCH2CSC2PHC4HSC2HC3HCSHSCFeS2FeSHFeSFeS5FeSFeCFeS2CSC2SHCHC2HSC4HC9H3C5HCH2CHC6H5FeHC2H2C2HCHC4HCH5SC10PC10H13CH4C2HC2H5CH2C3HC2HCHC2SHFeH2C5H3CSC7H2CSCHCHFeHFeH3CH2C2HCHFeH3CH2C2PC3H2C14H2CH2C2H2CH5CH3FeC2HCSCH3C3HC2PHC2HC5H2C2H4C2HC2H2C2H2C2SH2C2HSHC3SC2HCHCHCFeH2CHC2H2CHC12H2CSC2H2C2H2CH2C2H3CH2CH2SC6PC18H20CHC4PC9HCH2C4H5C2H3SHPCPHC3HC2H2SH4FeCPC3HCH2C4HCH3C2HCHCFeHSFeHCHCH2C2HFeS2FeS2FeSFeS3CHCFeH2FeS2FeSCFeHFeS2CH2FeCFeSHSHC2HSH2CH2CH2C2HC4SHFeC2H2SC2H2CPH2C2H2C6H4C6H6C3HCHC2HC4H4CH5C4H2C2SC2HC2SC2HCH2CHCH2C6PCH3PCHC3HC5HCHSHC2H4C2HSH4C4HCHC2HC3H2PHC2HCH3CH3CHCH4CHC5HC2HCH3CH2C4H4CHC2PHC2H2CHCHC3HC2HCHCHSH5C7HCH2C3H4C3HCH2C2SCSHC5H2C2HC9H4C4HCH2C2H2C2H3CHC2HCPSHC4H2C6HC3HC2H2C4HPCHC2H3C2H2CFeSHFeSHFeSFeCSH2C2FeS2FeS2FeSHCS2FeS2FeS2FeHFeS3FeSCSC4H3FeCHC6H5C2HCHSC2HCHC2H2C2HCHC2HSC2HPC4HCPHCHCH2C6H5C2HC2HC3HCHC4H6CHC4H3CHCHCH3C2H2CHC2HCHC2HSCH2C2H3C2H3C2HCHCHFeC2H3CHPHCH4C9PC18H6CH5CH6C5HC6PC14HCHCH16PHCHC2SC3PC4H3C6HC5H3CH2CSCH5C2HC3SCHCH3CHC3H2SHCHC2H2CSCH2CSHC2H2C3HSHC4FeC4H2CH2CHC2PHC3H2CHC2H2FeHC2HCH3SHCFeC5H2CH2CH3C4HC2HCH2C2SCHCHCSC6H2CHCH2SHCHCHCHC2HCHCSCH7C2H3C2H2CFe2S2FeSCFeSFeS2HCH2CHC6HC2SFeS2FeS2Fe2S3H2C2H3FeS2FeS2FeSFeCS2H2C5HCHC6H4CHCHFeSHCHC6H3SCH2CH3C5H5C6H6C3HC2H2CH4C6H4C2SHSCHC2HC3SC6PC18H19C6PC8HFeC2H20CHCHCH2C2H2CH2CHC2H2CH2C3H4C4H2C3HSCH2CHC7PC18H21C2S2HC7PFeCHCH2C2HCSC4HCH6CH3FeCH5C10PC18SH19C6PC3HC2HC12SC2HC5H2CHC3H3C2HCFeCHCH4CFeH2CH4CHC5HPC5HS2C2HCHCHC3HSC3H3CHC5HC2HCH8CHC3HC2S2HCHC3HFeSHFeS2FeSFeS3CHSC4SHCSH2C2H2C5H2CHCH2C3H2C6H4C2H3C2FeC6PC18H11CH11C3H3CPHPCHSCH3CSCH2PHCHPSH4FeC3H2CHCSCH2CPCHC12SCH7C2HCH4PC3HC2HC9H2CH8CH3C8H2C3FeHCSCFeCSHC3H3CHCHPHCHC2HC4HCH2CHCH2CFeHC6HC2H6CH2C2FeCSHCHSHCHC7HC6PC15HC2SHCH4C2H9CH3S2C6H2C2HCH3C4HC3HC5H2CHC2H4C2H3CHC2HC2H2FeS2FeS2FeSFeS3CFeS2FeS2Fe2HS2HCFeS2FeS2FeHFeS3H2FeCH2C2HC3SC9H2C2HCHC2SCH3C2HCH6PC7HCSHC6H4C6H4C2HC2H4CSCH3C2HC2H3CH7C2HSCFeHSCH2CHC5H2CHCHC2HC3HC2HCHCHCFeH3CS2C2H2SFeHC3PC8HC4HC7H5C2H3C3H2C5PC16H7CH6C6PC18H20C3HCPC3HCH2CHCHC2H2C3HC3HCH5SH2C2HC4H2CPH4C2H2CHC5SHCH2C2FeHCHCHCH2CSCHCH3PC5HC13HC2HC2HC4HCHC2H2CH2C2H2PCHC2HCHCH2C2H2C4H2CH4CHCHCHC2H2CHPH2CFeHCH2C4H6C3H5
_chemical_formula_sum              "H4608 Fe384 S768 C5760 P192"
_cell_length_a       56.9181
_cell_length_b       57.2273
_cell_length_c       97.4012
_cell_angle_alpha    76.1346
_cell_angle_beta     76.1599
_cell_angle_gamma    75.9968

_space_group_name_H-M_alt    "P 1"
_space_group_IT_number       1

loop_
  _space_group_symop_operation_xyz
  'x, y, z'

loop_
  _atom_site_type_symbol
  _atom_site_label
  _atom_site_symmetry_multiplicity
  _atom_site_fract_x
  _atom_site_fract_y
  _atom_site_fract_z
  _atom_site_occupancy
  H   H1        1.0  0.43382  0.31364  0.08712  1.0000
  Fe  Fe1       1.0  0.17230  0.05856  0.00529  1.0000
  S   S1        1.0  0.15077  0.07450  0.02503  1.0000
  C   C1        1.0  0.13259  0.05291  0.09677  1.0000
  C   C2        1.0  0.17250  0.18360  0.98561  1.0000
  H   H2        1.0  0.00904  0.02173  0.20172  1.0000
  H   H3        1.0  0.18082  0.20007  0.10006  1.0000
  C   C3        1.0  0.05300  0.25564  0.00622  1.0000
  C   C4        1.0  0.06459  0.07362  0.19052  1.0000
  H   H4        1.0  0.07163  0.19096  0.97876  1.0000
  C   C5        1.0  0.32069  0.29200  0.21734  1.0000
  C   C6        1.0  0.30111  0.10180  0.22316  1.0000
  S   S2        1.0  0.02908  0.24544  0.13350  1.0000
  C   C7        1.0  0.27495  0.13496  0.20997  1.0000
  C   C8        1.0  0.47625  0.19770  0.03697  1.0000
  Fe  Fe2       1.0  0.30976  0.22851  0.17985  1.0000
  S   S3        1.0  0.34331  0.19862  0.18152  1.0000
  S   S4        1.0  0.30789  0.26559  0.18518  1.0000
  Fe  Fe3       1.0  0.28431  0.19812  0.16770  1.0000
  S   S5        1.0  0.31624  0.16619  0.16843  1.0000
  S   S6        1.0  0.24728  0.19604  0.16326  1.0000
  Fe  Fe4       1.0  0.31636  0.17318  0.19009  1.0000
  C   C9        1.0  0.01042  0.31225  0.01294  1.0000
  Fe  Fe5       1.0  0.34028  0.19459  0.15967  1.0000
  S   S7        1.0  0.37477  0.18704  0.14269  1.0000
  S   S8        1.0  0.28292  0.20341  0.19018  1.0000
  S   S9        1.0  0.30826  0.22625  0.15724  1.0000
  Fe  Fe6       1.0  0.18016  0.11390  0.09094  1.0000
  S   S10       1.0  0.14005  0.11970  0.10133  1.0000
  S   S11       1.0  0.19919  0.09168  0.07343  1.0000
  Fe  Fe7       1.0  0.19294  0.14405  0.10962  1.0000
  S   S12       1.0  0.15372  0.15225  0.12122  1.0000
  S   S13       1.0  0.22593  0.15818  0.11167  1.0000
  Fe  Fe8       1.0  0.15372  0.11255  0.12210  1.0000
  S   S14       1.0  0.13511  0.09105  0.14286  1.0000
  Fe  Fe9       1.0  0.14311  0.15875  0.09968  1.0000
  S   S15       1.0  0.11526  0.19081  0.09049  1.0000
  S   S16       1.0  0.19377  0.10379  0.11192  1.0000
  S   S17       1.0  0.18250  0.15349  0.08779  1.0000
  C   C10       1.0  0.14489  0.05883  0.14639  1.0000
  C   C11       1.0  0.16513  0.04709  0.13749  1.0000
  C   C12       1.0  0.17259  0.02141  0.14059  1.0000
  H   H5        1.0  0.12957  0.09408  0.05071  1.0000
  H   H6        1.0  0.17507  0.05778  0.12822  1.0000
  S   S18       1.0  0.32146  0.14197  0.20906  1.0000
  C   C13       1.0  0.24243  0.18378  0.14926  1.0000
  C   C14       1.0  0.26059  0.18034  0.13701  1.0000
  C   C15       1.0  0.25525  0.17227  0.12570  1.0000
  C   C16       1.0  0.23193  0.16706  0.12661  1.0000
  C   C17       1.0  0.21405  0.16973  0.13909  1.0000
  C   C18       1.0  0.21919  0.17841  0.15021  1.0000
  H   H7        1.0  0.27853  0.18449  0.13609  1.0000
  H   H8        1.0  0.26926  0.17021  0.11613  1.0000
  H   H9        1.0  0.19618  0.16540  0.14013  1.0000
  H   H10       1.0  0.20499  0.18121  0.15954  1.0000
  C   C19       1.0  0.38403  0.23393  0.13754  1.0000
  H   H11       1.0  0.16810  0.20072  0.97824  1.0000
  H   H12       1.0  0.36581  0.23889  0.14387  1.0000
  H   H13       1.0  0.14141  0.05734  0.08557  1.0000
  C   C20       1.0  0.38814  0.27712  0.21271  1.0000
  H   H14       1.0  0.10246  0.03140  0.19665  1.0000
  H   H15       1.0  0.11651  0.05362  0.16532  1.0000
  C   C21       1.0  0.31620  0.28995  0.20411  1.0000
  C   C22       1.0  0.31332  0.26744  0.20198  1.0000
  H   H16       1.0  0.48384  0.20319  0.17085  1.0000
  H   H17       1.0  0.31508  0.30583  0.19546  1.0000
  C   C23       1.0  0.05304  0.23059  0.12140  1.0000
  C   C24       1.0  0.06886  0.20918  0.12680  1.0000
  C   C25       1.0  0.08797  0.19683  0.11742  1.0000
  C   C26       1.0  0.09159  0.20599  0.10258  1.0000
  C   C27       1.0  0.07598  0.22759  0.09719  1.0000
  C   C28       1.0  0.05666  0.23978  0.10655  1.0000
  H   H18       1.0  0.06604  0.20190  0.13826  1.0000
  H   H19       1.0  0.09972  0.18007  0.12162  1.0000
  H   H20       1.0  0.07894  0.23501  0.08575  1.0000
  H   H21       1.0  0.04468  0.25636  0.10230  1.0000
  C   C29       1.0  0.23628  0.99717  0.10354  1.0000
  S   S19       1.0  0.20947  0.03356  0.00295  1.0000
  C   C30       1.0  0.21394  0.99309  0.10190  1.0000
  C   C31       1.0  0.16440  0.07838  0.03867  1.0000
  C   C32       1.0  0.18976  0.07111  0.03832  1.0000
  C   C33       1.0  0.19985  0.07432  0.04944  1.0000
  C   C34       1.0  0.18495  0.08574  0.06066  1.0000
  C   C35       1.0  0.15953  0.09289  0.06107  1.0000
  C   C36       1.0  0.14929  0.08891  0.05021  1.0000
  H   H22       1.0  0.20157  0.06272  0.02960  1.0000
  H   H23       1.0  0.21936  0.06806  0.04929  1.0000
  H   H24       1.0  0.14779  0.10140  0.06976  1.0000
  C   C37       1.0  0.40634  0.30214  0.16092  1.0000
  H   H25       1.0  0.19020  0.09313  0.21085  1.0000
  C   C38       1.0  0.47519  0.23722  0.17859  1.0000
  C   C39       1.0  0.46436  0.23263  0.15695  1.0000
  C   C40       1.0  0.36953  0.28599  0.17340  1.0000
  C   C41       1.0  0.39308  0.28935  0.17329  1.0000
  H   H26       1.0  0.18201  0.05224  0.09793  1.0000
  H   H27       1.0  0.10832  0.08829  0.09608  1.0000
  H   H28       1.0  0.48050  0.31218  0.21988  1.0000
  H   H29       1.0  0.16904  0.00907  0.20584  1.0000
  H   H30       1.0  0.37115  0.29060  0.21261  1.0000
  C   C42       1.0  0.41851  0.17015  0.17943  1.0000
  H   H31       1.0  0.40123  0.28159  0.18274  1.0000
  H   H32       1.0  0.00422  0.30475  0.00553  1.0000
  H   H33       1.0  0.42248  0.15159  0.17750  1.0000
  C   C43       1.0  0.19891  0.24767  0.16000  1.0000
  C   C44       1.0  0.03450  0.04583  0.17058  1.0000
  H   H34       1.0  0.13490  0.00821  0.12699  1.0000
  C   C45       1.0  0.05260  0.08395  0.01558  1.0000
  C   C46       1.0  0.07391  0.06614  0.01710  1.0000
  C   C47       1.0  0.09670  0.07314  0.01420  1.0000
  C   C48       1.0  0.09830  0.09791  0.00969  1.0000
  C   C49       1.0  0.07703  0.11604  0.00813  1.0000
  C   C50       1.0  0.05411  0.10876  0.01110  1.0000
  P   P1        1.0  0.07906  0.14820  0.00216  1.0000
  C   C51       1.0  0.09665  0.15802  0.01219  1.0000
  C   C52       1.0  0.09413  0.15469  0.98340  1.0000
  C   C53       1.0  0.14403  0.01609  0.07346  1.0000
  C   C54       1.0  0.05615  0.01881  0.15391  1.0000
  C   C55       1.0  0.41129  0.19836  0.19578  1.0000
  H   H35       1.0  0.08955  0.08000  0.12208  1.0000
  C   C56       1.0  0.25577  0.12174  0.21470  1.0000
  C   C57       1.0  0.10185  0.18178  0.00775  1.0000
  C   C58       1.0  0.11583  0.18978  0.01508  1.0000
  C   C59       1.0  0.12466  0.17416  0.02693  1.0000
  C   C60       1.0  0.11920  0.15069  0.03160  1.0000
  C   C61       1.0  0.10509  0.14264  0.02435  1.0000
  C   C62       1.0  0.04803  0.16616  0.00481  1.0000
  C   C63       1.0  0.03779  0.17508  0.01763  1.0000
  C   C64       1.0  0.03312  0.16933  0.99466  1.0000
  H   H36       1.0  0.03491  0.07854  0.01772  1.0000
  H   H37       1.0  0.07283  0.04690  0.02053  1.0000
  H   H38       1.0  0.11320  0.05933  0.01553  1.0000
  H   H39       1.0  0.11617  0.10284  0.00766  1.0000
  H   H40       1.0  0.03729  0.12199  0.00981  1.0000
  H   H41       1.0  0.12081  0.12032  0.98399  1.0000
  H   H42       1.0  0.01954  0.09168  0.20598  1.0000
  C   C65       1.0  0.15712  0.24078  0.16486  1.0000
  C   C66       1.0  0.06326  0.24839  0.99297  1.0000
  P   P2        1.0  0.01515  0.26509  0.02945  1.0000
  H   H43       1.0  0.09525  0.19408  0.99855  1.0000
  H   H44       1.0  0.12012  0.20797  0.01148  1.0000
  H   H45       1.0  0.13579  0.18018  0.03250  1.0000
  H   H46       1.0  0.12612  0.13863  0.04079  1.0000
  H   H47       1.0  0.10104  0.12442  0.02831  1.0000
  H   H48       1.0  0.04865  0.17223  0.02584  1.0000
  H   H49       1.0  0.04041  0.16191  0.98492  1.0000
  C   C67       1.0  0.06190  0.21291  0.05270  1.0000
  C   C68       1.0  0.05405  0.21845  0.06649  1.0000
  H   H50       1.0  0.10297  0.03983  0.13736  1.0000
  H   H51       1.0  0.04286  0.28400  0.16135  1.0000
  H   H52       1.0  0.20662  0.01085  0.04654  1.0000
  C   C69       1.0  0.03459  0.23812  0.06901  1.0000
  H   H53       1.0  0.05764  0.01213  0.14416  1.0000
  H   H54       1.0  0.47880  0.29185  0.13680  1.0000
  C   C70       1.0  0.39581  0.31130  0.14856  1.0000
  C   C71       1.0  0.29533  0.08135  0.19221  1.0000
  C   C72       1.0  0.30366  0.05645  0.19733  1.0000
  C   C73       1.0  0.01310  0.18714  0.02015  1.0000
  C   C74       1.0  0.26565  0.04756  0.19465  1.0000
  C   C75       1.0  0.25671  0.07272  0.19004  1.0000
  C   C76       1.0  0.27201  0.08946  0.18855  1.0000
  P   P3        1.0  0.22707  0.08340  0.18460  1.0000
  C   C77       1.0  0.23209  0.09063  0.16517  1.0000
  C   C78       1.0  0.20814  0.06020  0.19134  1.0000
  C   C79       1.0  0.19602  0.05373  0.18218  1.0000
  C   C80       1.0  0.18186  0.03547  0.18743  1.0000
  C   C81       1.0  0.20576  0.04801  0.20581  1.0000
  C   C82       1.0  0.21294  0.10499  0.15826  1.0000
  C   C83       1.0  0.21635  0.10997  0.14324  1.0000
  C   C84       1.0  0.23906  0.10116  0.13500  1.0000
  C   C85       1.0  0.25829  0.08704  0.14179  1.0000
  C   C86       1.0  0.25481  0.08160  0.15683  1.0000
  C   C87       1.0  0.21189  0.11112  0.19151  1.0000
  C   C88       1.0  0.21782  0.13384  0.18402  1.0000
  C   C89       1.0  0.20702  0.15515  0.18961  1.0000
  C   C90       1.0  0.19001  0.15410  0.20260  1.0000
  H   H55       1.0  0.08889  0.99387  0.15962  1.0000
  C   C91       1.0  0.19476  0.11027  0.20459  1.0000
  H   H56       1.0  0.30673  0.09453  0.19135  1.0000
  H   H57       1.0  0.08486  0.11043  0.20615  1.0000
  C   C92       1.0  0.41707  0.17430  0.19320  1.0000
  H   H58       1.0  0.25479  0.03405  0.19538  1.0000
  H   H59       1.0  0.26597  0.10886  0.18470  1.0000
  H   H60       1.0  0.19762  0.06237  0.17093  1.0000
  H   H61       1.0  0.17290  0.03036  0.18023  1.0000
  H   H62       1.0  0.24429  0.16983  0.98626  1.0000
  H   H63       1.0  0.19530  0.11212  0.16447  1.0000
  H   H64       1.0  0.20155  0.12108  0.13793  1.0000
  H   H65       1.0  0.24183  0.10560  0.12334  1.0000
  H   H66       1.0  0.27594  0.08045  0.13536  1.0000
  H   H67       1.0  0.26989  0.07047  0.16187  1.0000
  H   H68       1.0  0.23120  0.13513  0.17399  1.0000
  H   H69       1.0  0.21226  0.17245  0.18401  1.0000
  H   H70       1.0  0.08064  0.30183  0.15496  1.0000
  C   C93       1.0  0.03653  0.03748  0.15789  1.0000
  C   C94       1.0  0.18870  0.00944  0.06882  1.0000
  H   H71       1.0  0.24274  0.17981  0.02901  1.0000
  H   H72       1.0  0.27209  0.15285  0.20306  1.0000
  C   C95       1.0  0.29766  0.12506  0.21422  1.0000
  H   H73       1.0  0.15469  0.12852  0.99863  1.0000
  H   H74       1.0  0.16861  0.21736  0.04482  1.0000
  H   H75       1.0  0.12527  0.99905  0.21312  1.0000
  H   H76       1.0  0.07685  0.19748  0.05084  1.0000
  C   C96       1.0  0.47538  0.22249  0.16897  1.0000
  H   H77       1.0  0.25850  0.07501  0.00334  1.0000
  C   C97       1.0  0.41017  0.23501  0.21305  1.0000
  C   C98       1.0  0.18991  0.19048  0.03211  1.0000
  H   H78       1.0  0.18992  0.02046  0.22217  1.0000
  H   H79       1.0  0.13968  0.23991  0.17227  1.0000
  H   H80       1.0  0.40097  0.25747  0.99525  1.0000
  H   H81       1.0  0.44143  0.28030  0.04530  1.0000
  H   H82       1.0  0.12640  0.01762  0.08083  1.0000
  C   C99       1.0  0.40843  0.21394  0.17063  1.0000
  H   H83       1.0  0.41530  0.18660  0.15755  1.0000
  C   C100      1.0  0.19394  0.01278  0.10011  1.0000
  C   C101      1.0  0.14020  0.03001  0.10532  1.0000
  H   H84       1.0  0.19760  0.20404  0.02352  1.0000
  H   H85       1.0  0.03126  0.29647  0.04463  1.0000
  H   H86       1.0  0.27283  0.05882  0.02659  1.0000
  C   C102      1.0  0.41899  0.24817  0.99756  1.0000
  C   C103      1.0  0.48938  0.29512  0.01879  1.0000
  C   C104      1.0  0.42587  0.25084  0.00982  1.0000
  C   C105      1.0  0.43188  0.24217  0.21349  1.0000
  C   C106      1.0  0.46576  0.22442  0.00367  1.0000
  C   C107      1.0  0.25648  0.09205  0.03486  1.0000
  H   H87       1.0  0.17311  0.25145  0.17982  1.0000
  C   C108      1.0  0.24962  0.18332  0.01749  1.0000
  S   S20       1.0  0.00805  0.31070  0.10988  1.0000
  C   C109      1.0  0.24223  0.11570  0.03228  1.0000
  H   H88       1.0  0.02285  0.04546  0.15116  1.0000
  C   C110      1.0  0.31467  0.24703  0.21322  1.0000
  P   P4        1.0  0.21667  0.15578  0.01555  1.0000
  C   C111      1.0  0.11079  0.04325  0.12594  1.0000
  C   C112      1.0  0.23364  0.12476  0.01928  1.0000
  C   C113      1.0  0.37206  0.30820  0.14878  1.0000
  C   C114      1.0  0.44925  0.23938  0.01277  1.0000
  C   C115      1.0  0.24015  0.17411  0.00825  1.0000
  H   H89       1.0  0.21391  0.25176  0.16352  1.0000
  H   H90       1.0  0.47122  0.21159  0.98370  1.0000
  C   C116      1.0  0.08664  0.11491  0.18337  1.0000
  S   S21       1.0  0.18156  0.08494  0.98457  1.0000
  C   C117      1.0  0.25052  0.17768  0.99349  1.0000
  C   C118      1.0  0.24001  0.11009  0.00877  1.0000
  C   C119      1.0  0.15962  0.00724  0.15246  1.0000
  C   C120      1.0  0.17600  0.24726  0.16921  1.0000
  C   C121      1.0  0.27812  0.20097  0.99714  1.0000
  C   C122      1.0  0.01781  0.05554  0.20336  1.0000
  H   H91       1.0  0.14592  0.16716  0.98084  1.0000
  Fe  Fe10      1.0  0.99988  0.27591  0.12460  1.0000
  C   C123      1.0  0.47060  0.31112  0.13438  1.0000
  C   C124      1.0  0.11396  0.07062  0.10272  1.0000
  H   H92       1.0  0.29540  0.02021  0.20235  1.0000
  H   H93       1.0  0.44429  0.26493  0.14534  1.0000
  H   H94       1.0  0.17110  0.13066  0.22031  1.0000
  H   H95       1.0  0.46310  0.19021  0.03377  1.0000
  C   C125      1.0  0.07068  0.08517  0.17606  1.0000
  C   C126      1.0  0.08176  0.10568  0.17252  1.0000
  C   C127      1.0  0.35897  0.29546  0.16117  1.0000
  C   C128      1.0  0.40681  0.21816  0.18441  1.0000
  C   C129      1.0  0.13212  0.04468  0.15837  1.0000
  C   C130      1.0  0.10326  0.06591  0.11734  1.0000
  C   C131      1.0  0.45345  0.27254  0.16391  1.0000
  H   H96       1.0  0.45909  0.19112  0.05946  1.0000
  H   H97       1.0  0.22088  0.24162  0.13943  1.0000
  C   C132      1.0  0.26837  0.19690  0.01192  1.0000
  H   H98       1.0  0.46383  0.27302  0.18386  1.0000
  C   C133      1.0  0.36886  0.18035  0.22253  1.0000
  H   H99       1.0  0.10853  0.07280  0.98096  1.0000
  C   C134      1.0  0.00805  0.07844  0.20745  1.0000
  H   H100      1.0  0.26258  0.08499  0.04505  1.0000
  C   C135      1.0  0.39904  0.25154  0.13174  1.0000
  C   C136      1.0  0.14462  0.01893  0.05872  1.0000
  H   H101      1.0  0.38317  0.24668  0.97521  1.0000
  H   H102      1.0  0.08672  0.11427  0.16130  1.0000
  H   H103      1.0  0.23786  0.12679  0.04048  1.0000
  H   H104      1.0  0.36413  0.31483  0.13916  1.0000
  C   C137      1.0  0.45920  0.17947  0.21031  1.0000
  C   C138      1.0  0.13934  0.01897  0.16133  1.0000
  H   H105      1.0  0.06301  0.20740  0.07524  1.0000
  Fe  Fe11      1.0  0.19384  0.01323  0.99101  1.0000
  C   C139      1.0  0.21933  0.04067  0.10109  1.0000
  C   C140      1.0  0.45326  0.25746  0.15452  1.0000
  C   C141      1.0  0.00197  0.03924  0.20507  1.0000
  H   H106      1.0  0.23828  0.12948  0.21136  1.0000
  C   C142      1.0  0.17959  0.02355  0.20184  1.0000
  C   C143      1.0  0.99845  0.19036  0.00993  1.0000
  C   C144      1.0  0.16280  0.18097  0.05511  1.0000
  C   C145      1.0  0.19617  0.15850  0.00349  1.0000
  C   C146      1.0  0.08593  0.23249  0.15616  1.0000
  H   H107      1.0  0.48755  0.21004  0.06700  1.0000
  C   C147      1.0  0.45991  0.28302  0.04021  1.0000
  C   C148      1.0  0.07381  0.00858  0.16257  1.0000
  C   C149      1.0  0.02420  0.23956  0.99221  1.0000
  H   H108      1.0  0.15013  0.18684  0.06444  1.0000
  P   P5        1.0  0.16520  0.00769  0.09771  1.0000
  H   H109      1.0  0.08228  0.24934  0.98803  1.0000
  S   S22       1.0  0.44105  0.26793  0.11669  1.0000
  H   H110      1.0  0.32296  0.30938  0.21886  1.0000
  H   H111      1.0  0.01292  0.23364  0.98669  1.0000
  H   H112      1.0  0.44895  0.22898  0.21402  1.0000
  H   H113      1.0  0.44982  0.21620  0.11515  1.0000
  H   H114      1.0  0.40951  0.30279  0.21377  1.0000
  H   H115      1.0  0.42021  0.15872  0.20186  1.0000
  C   C150      1.0  0.06640  0.02433  0.20804  1.0000
  C   C151      1.0  0.16490  0.14297  0.99709  1.0000
  H   H116      1.0  0.02852  0.24241  0.07973  1.0000
  H   H117      1.0  0.09489  0.13100  0.18061  1.0000
  C   C152      1.0  0.16718  0.01682  0.04906  1.0000
  C   C153      1.0  0.20283  0.24201  0.14637  1.0000
  H   H118      1.0  0.48340  0.22933  0.18803  1.0000
  C   C154      1.0  0.19051  0.18058  0.99379  1.0000
  C   C155      1.0  0.41433  0.18996  0.16815  1.0000
  H   H119      1.0  0.05644  0.23542  0.97549  1.0000
  C   C156      1.0  0.02830  0.25459  0.01265  1.0000
  H   H120      1.0  0.00772  0.26728  0.05997  1.0000
  C   C157      1.0  0.28891  0.03954  0.19844  1.0000
  C   C158      1.0  0.19687  0.03663  0.09963  1.0000
  H   H121      1.0  0.05652  0.22200  0.03094  1.0000
  C   C159      1.0  0.46527  0.29242  0.02537  1.0000
  C   C160      1.0  0.03114  0.24725  0.04376  1.0000
  H   H122      1.0  0.20598  0.00604  0.07243  1.0000
  C   C161      1.0  0.08090  0.10336  0.19777  1.0000
  C   C162      1.0  0.01384  0.24684  0.00544  1.0000
  H   H123      1.0  0.45442  0.24284  0.02199  1.0000
  C   C163      1.0  0.47380  0.19833  0.05152  1.0000
  C   C164      1.0  0.18919  0.01206  0.05411  1.0000
  C   C165      1.0  0.41637  0.20368  0.12697  1.0000
  C   C166      1.0  0.17330  0.19814  0.04406  1.0000
  S   S23       1.0  0.44128  0.30112  0.01549  1.0000
  C   C167      1.0  0.18537  0.14845  0.04228  1.0000
  H   H124      1.0  0.41339  0.26256  0.01683  1.0000
  H   H125      1.0  0.40202  0.23683  0.18609  1.0000
  C   C168      1.0  0.06088  0.27240  0.15908  1.0000
  H   H126      1.0  0.00522  0.19377  0.03010  1.0000
  H   H127      1.0  0.47827  0.31340  0.17077  1.0000
  C   C169      1.0  0.26930  0.19122  0.98797  1.0000
  H   H128      1.0  0.46466  0.15214  0.98665  1.0000
  H   H129      1.0  0.19976  0.19558  0.99268  1.0000
  H   H130      1.0  0.46412  0.22129  0.14953  1.0000
  H   H131      1.0  0.25630  0.02424  0.10430  1.0000
  P   P6        1.0  0.40983  0.20330  0.21360  1.0000
  C   C170      1.0  0.02552  0.30742  0.03489  1.0000
  H   H132      1.0  0.31243  0.22962  0.21170  1.0000
  H   H133      1.0  0.47353  0.27170  0.06016  1.0000
  H   H134      1.0  0.18836  0.01251  0.13369  1.0000
  C   C171      1.0  0.42282  0.24525  0.12368  1.0000
  H   H135      1.0  0.18597  0.12315  0.01327  1.0000
  C   C172      1.0  0.07001  0.08271  0.20134  1.0000
  H   H136      1.0  0.08675  0.21346  0.15614  1.0000
  C   C173      1.0  0.01729  0.29715  0.02559  1.0000
  H   H137      1.0  0.12938  0.00825  0.17054  1.0000
  H   H138      1.0  0.06720  0.07837  0.16743  1.0000
  C   C174      1.0  0.45881  0.22223  0.99119  1.0000
  S   S24       1.0  0.15566  0.03643  0.99512  1.0000
  H   H139      1.0  0.32150  0.05033  0.20048  1.0000
  C   C175      1.0  0.08215  0.28241  0.15544  1.0000
  H   H140      1.0  0.21526  0.05230  0.21305  1.0000
  H   H141      1.0  0.46043  0.18712  0.19892  1.0000
  H   H142      1.0  0.12760  0.02301  0.05471  1.0000
  C   C176      1.0  0.42927  0.17562  0.99162  1.0000
  C   C177      1.0  0.07178  0.01685  0.17527  1.0000
  C   C178      1.0  0.25399  0.08635  0.01145  1.0000
  C   C179      1.0  0.10529  0.00250  0.21519  1.0000
  P   P7        1.0  0.05008  0.04723  0.19539  1.0000
  P   P8        1.0  0.43753  0.30417  0.16081  1.0000
  H   H143      1.0  0.18953  0.12924  0.04161  1.0000
  C   C180      1.0  0.40796  0.18890  0.98656  1.0000
  C   C181      1.0  0.47808  0.27805  0.04863  1.0000
  C   C182      1.0  0.00850  0.18148  0.99717  1.0000
  C   C183      1.0  0.19646  0.16548  0.03131  1.0000
  H   H144      1.0  0.35954  0.27564  0.18287  1.0000
  C   C184      1.0  0.43158  0.26662  0.21365  1.0000
  C   C185      1.0  0.38831  0.25271  0.21256  1.0000
  C   C186      1.0  0.43560  0.23421  0.98811  1.0000
  H   H145      1.0  0.39341  0.19949  0.99334  1.0000
  H   H146      1.0  0.43128  0.17594  0.00237  1.0000
  C   C187      1.0  0.16608  0.01143  0.07863  1.0000
  C   C188      1.0  0.16876  0.15617  0.05419  1.0000
  H   H147      1.0  0.23432  0.11693  0.99846  1.0000
  H   H148      1.0  0.37417  0.17370  0.21252  1.0000
  C   C189      1.0  0.02298  0.25228  0.05775  1.0000
  H   H149      1.0  0.34084  0.29243  0.16123  1.0000
  H   H150      1.0  0.29270  0.21143  0.99277  1.0000
  C   C190      1.0  0.06279  0.24747  0.15944  1.0000
  C   C191      1.0  0.43153  0.22122  0.12135  1.0000
  C   C192      1.0  0.26217  0.07729  0.02450  1.0000
  H   H151      1.0  0.01931  0.06048  0.17345  1.0000
  H   H152      1.0  0.03396  0.01190  0.22195  1.0000
  C   C193      1.0  0.46420  0.26215  0.17611  1.0000
  H   H153      1.0  0.39220  0.27009  0.13351  1.0000
  C   C194      1.0  0.12835  0.15261  0.15547  1.0000
  C   C195      1.0  0.14241  0.14138  0.16607  1.0000
  C   C196      1.0  0.15394  0.15543  0.17132  1.0000
  C   C197      1.0  0.15188  0.18061  0.16573  1.0000
  C   C198      1.0  0.13843  0.19191  0.15470  1.0000
  C   C199      1.0  0.12641  0.17774  0.14979  1.0000
  P   P9        1.0  0.13712  0.22401  0.14645  1.0000
  C   C200      1.0  0.16102  0.23469  0.15123  1.0000
  C   C201      1.0  0.14178  0.22632  0.12716  1.0000
  C   C202      1.0  0.16173  0.21088  0.12015  1.0000
  C   C203      1.0  0.16530  0.21212  0.10532  1.0000
  C   C204      1.0  0.14859  0.22841  0.09738  1.0000
  C   C205      1.0  0.12845  0.24364  0.10426  1.0000
  C   C206      1.0  0.12501  0.24265  0.11908  1.0000
  C   C207      1.0  0.39263  0.20994  0.13513  1.0000
  C   C208      1.0  0.18400  0.23560  0.14195  1.0000
  C   C209      1.0  0.10741  0.24239  0.15244  1.0000
  C   C210      1.0  0.05200  0.03536  0.17947  1.0000
  C   C211      1.0  0.10532  0.26753  0.15202  1.0000
  H   H154      1.0  0.11967  0.14165  0.15126  1.0000
  H   H155      1.0  0.14449  0.12174  0.17008  1.0000
  H   H156      1.0  0.16486  0.14672  0.17953  1.0000
  H   H157      1.0  0.16135  0.19091  0.16983  1.0000
  H   H158      1.0  0.11612  0.18598  0.14122  1.0000
  H   H159      1.0  0.17454  0.19773  0.12613  1.0000
  H   H160      1.0  0.08547  0.00845  0.18186  1.0000
  H   H161      1.0  0.15086  0.22871  0.08598  1.0000
  H   H162      1.0  0.11509  0.25573  0.09818  1.0000
  H   H163      1.0  0.10895  0.25430  0.12414  1.0000
  H   H164      1.0  0.04622  0.23988  0.16179  1.0000
  H   H165      1.0  0.18795  0.23080  0.13147  1.0000
  C   C212      1.0  0.48930  0.15234  0.08208  1.0000
  H   H166      1.0  0.12152  0.27578  0.14871  1.0000
  C   C213      1.0  0.09226  0.02070  0.20585  1.0000
  Fe  Fe12      1.0  0.48087  0.25761  0.10583  1.0000
  C   C214      1.0  0.18282  0.13991  0.00533  1.0000
  H   H167      1.0  0.40861  0.30528  0.07198  1.0000
  H   H168      1.0  0.16075  0.14284  0.06283  1.0000
  H   H169      1.0  0.42314  0.18511  0.12513  1.0000
  C   C215      1.0  0.12910  0.02532  0.11998  1.0000
  H   H170      1.0  0.40484  0.22926  0.16189  1.0000
  C   C216      1.0  0.19140  0.02994  0.21104  1.0000
  C   C217      1.0  0.18385  0.13166  0.21007  1.0000
  H   H171      1.0  0.22155  0.05921  0.10041  1.0000
  C   C218      1.0  0.05043  0.22712  0.04139  1.0000
  H   H172      1.0  0.06422  0.26226  0.01144  1.0000
  H   H173      1.0  0.47126  0.15715  0.08870  1.0000
  C   C219      1.0  0.23897  0.02097  0.10315  1.0000
  H   H174      1.0  0.37131  0.24763  0.21225  1.0000
  C   C220      1.0  0.44808  0.16226  0.98276  1.0000
  H   H175      1.0  0.16761  0.01934  0.03761  1.0000
  H   H176      1.0  0.18200  0.17060  0.20697  1.0000
  H   H177      1.0  0.27551  0.20409  0.01907  1.0000
  C   C221      1.0  0.15988  0.16473  0.98715  1.0000
  C   C222      1.0  0.40974  0.28403  0.21328  1.0000
  H   H178      1.0  0.99715  0.18376  0.98925  1.0000
  C   C223      1.0  0.11448  0.13800  0.97768  1.0000
  H   H179      1.0  0.27719  0.19404  0.97655  1.0000
  H   H180      1.0  0.47682  0.13222  0.07011  1.0000
  C   C224      1.0  0.04881  0.24044  0.98594  1.0000
  Fe  Fe13      1.0  0.21790  0.05883  0.98153  1.0000
  H   H181      1.0  0.44808  0.27211  0.21446  1.0000
  H   H182      1.0  0.06561  0.07392  0.21255  1.0000
  C   C225      1.0  0.43680  0.18416  0.22006  1.0000
  H   H183      1.0  0.06455  0.09422  0.98462  1.0000
  C   C226      1.0  0.25930  0.09839  0.22349  1.0000
  C   C227      1.0  0.05379  0.00989  0.21997  1.0000
  H   H184      1.0  0.43052  0.23287  0.97833  1.0000
  C   C228      1.0  0.48022  0.16487  0.21521  1.0000
  C   C229      1.0  0.48979  0.20903  0.05578  1.0000
  H   H185      1.0  0.99448  0.24675  0.00982  1.0000
  S   S25       1.0  0.45287  0.29630  0.97472  1.0000
  H   H186      1.0  0.10093  0.13249  0.38957  1.0000
  H   H187      1.0  0.24731  0.99019  0.29701  1.0000
  C   C230      1.0  0.34821  0.17353  0.23237  1.0000
  S   S26       1.0  0.37248  0.29232  0.26233  1.0000
  C   C231      1.0  0.99919  0.09685  0.44248  1.0000
  S   S27       1.0  0.32715  0.27326  0.24549  1.0000
  H   H188      1.0  0.06044  0.03253  0.29293  1.0000
  H   H189      1.0  0.02772  0.01729  0.25412  1.0000
  C   C232      1.0  0.04324  0.04407  0.31292  1.0000
  C   C233      1.0  0.34230  0.09928  0.46422  1.0000
  C   C234      1.0  0.18298  0.15130  0.36022  1.0000
  C   C235      1.0  0.37624  0.99446  0.40580  1.0000
  C   C236      1.0  0.01579  0.99953  0.44227  1.0000
  H   H190      1.0  0.04943  0.99745  0.44936  1.0000
  C   C237      1.0  0.40713  0.27148  0.45726  1.0000
  S   S28       1.0  0.40389  0.26596  0.40429  1.0000
  C   C238      1.0  0.19183  0.03318  0.33158  1.0000
  Fe  Fe14      1.0  0.19553  0.05066  0.36465  1.0000
  Fe  Fe15      1.0  0.17327  0.07557  0.39035  1.0000
  S   S29       1.0  0.15524  0.04404  0.40310  1.0000
  S   S30       1.0  0.16870  0.10991  0.39933  1.0000
  Fe  Fe16      1.0  0.14493  0.04286  0.38239  1.0000
  S   S31       1.0  0.11041  0.02966  0.38197  1.0000
  S   S32       1.0  0.21032  0.05224  0.38381  1.0000
  S   S33       1.0  0.15962  0.07665  0.37020  1.0000
  Fe  Fe17      1.0  0.29018  0.20023  0.42204  1.0000
  S   S34       1.0  0.27584  0.21331  0.44290  1.0000
  S   S35       1.0  0.31377  0.21999  0.40261  1.0000
  Fe  Fe18      1.0  0.25937  0.15950  0.43126  1.0000
  S   S36       1.0  0.24216  0.17017  0.45284  1.0000
  S   S37       1.0  0.25605  0.12443  0.42525  1.0000
  Fe  Fe19      1.0  0.23906  0.20912  0.44050  1.0000
  S   S38       1.0  0.20761  0.24156  0.44267  1.0000
  Fe  Fe20      1.0  0.28043  0.17343  0.45352  1.0000
  C   C239      1.0  0.01060  0.98341  0.29262  1.0000
  S   S39       1.0  0.25293  0.19825  0.41884  1.0000
  S   S40       1.0  0.29803  0.16052  0.43272  1.0000
  C   C240      1.0  0.47442  0.30089  0.27218  1.0000
  S   S41       1.0  0.01068  0.08510  0.35995  1.0000
  H   H191      1.0  0.41950  0.08766  0.39316  1.0000
  C   C241      1.0  0.08352  0.04587  0.37515  1.0000
  C   C242      1.0  0.07791  0.07151  0.37142  1.0000
  C   C243      1.0  0.05555  0.08333  0.36676  1.0000
  C   C244      1.0  0.03856  0.06972  0.36593  1.0000
  C   C245      1.0  0.04442  0.04413  0.36948  1.0000
  C   C246      1.0  0.06680  0.03232  0.37396  1.0000
  H   H192      1.0  0.05120  0.10309  0.36391  1.0000
  H   H193      1.0  0.03191  0.03336  0.36854  1.0000
  H   H194      1.0  0.07118  0.01249  0.37652  1.0000
  C   C247      1.0  0.19312  0.11386  0.40646  1.0000
  C   C248      1.0  0.19226  0.13654  0.40998  1.0000
  C   C249      1.0  0.21140  0.14017  0.41568  1.0000
  C   C250      1.0  0.23152  0.12104  0.41801  1.0000
  C   C251      1.0  0.23228  0.09834  0.41457  1.0000
  C   C252      1.0  0.21325  0.09477  0.40880  1.0000
  H   H195      1.0  0.17674  0.15140  0.40826  1.0000
  H   H196      1.0  0.21056  0.15772  0.41831  1.0000
  H   H197      1.0  0.24767  0.08338  0.41641  1.0000
  H   H198      1.0  0.21408  0.07714  0.40633  1.0000
  C   C253      1.0  0.01215  0.03053  0.25825  1.0000
  H   H199      1.0  0.16924  0.99298  0.45465  1.0000
  C   C254      1.0  0.25031  0.98513  0.37534  1.0000
  H   H200      1.0  0.02168  0.05363  0.33301  1.0000
  C   C255      1.0  0.02358  0.02455  0.30030  1.0000
  H   H201      1.0  0.17166  0.08383  0.30067  1.0000
  C   C256      1.0  0.22790  0.04559  0.31529  1.0000
  S   S42       1.0  0.22062  0.05390  0.34265  1.0000
  C   C257      1.0  0.20009  0.25118  0.45933  1.0000
  C   C258      1.0  0.18526  0.27434  0.46051  1.0000
  H   H202      1.0  0.25275  0.99590  0.38247  1.0000
  H   H203      1.0  0.33654  0.00960  0.33490  1.0000
  Fe  Fe21      1.0  0.21960  0.01536  0.27156  1.0000
  C   C259      1.0  0.20078  0.02797  0.30656  1.0000
  C   C260      1.0  0.37866  0.25351  0.40377  1.0000
  C   C261      1.0  0.37202  0.25439  0.39071  1.0000
  C   C262      1.0  0.35202  0.24411  0.39057  1.0000
  C   C263      1.0  0.33833  0.23312  0.40347  1.0000
  C   C264      1.0  0.34459  0.23275  0.41657  1.0000
  C   C265      1.0  0.36493  0.24258  0.41669  1.0000
  H   H204      1.0  0.38258  0.26259  0.38069  1.0000
  H   H205      1.0  0.34729  0.24446  0.38039  1.0000
  H   H206      1.0  0.33382  0.22485  0.42657  1.0000
  H   H207      1.0  0.36992  0.24189  0.42685  1.0000
  C   C266      1.0  0.01180  0.98862  0.40718  1.0000
  C   C267      1.0  0.43589  0.17429  0.23480  1.0000
  C   C268      1.0  0.18652  0.05725  0.44540  1.0000
  C   C269      1.0  0.18573  0.02570  0.32034  1.0000
  H   H208      1.0  0.37193  0.03019  0.45485  1.0000
  H   H209      1.0  0.28355  0.26806  0.40099  1.0000
  H   H210      1.0  0.18558  0.12369  0.29305  1.0000
  C   C270      1.0  0.02772  0.00525  0.40368  1.0000
  H   H211      1.0  0.28487  0.07032  0.23444  1.0000
  H   H212      1.0  0.42414  0.26042  0.46028  1.0000
  C   C271      1.0  0.99753  0.03971  0.43025  1.0000
  H   H213      1.0  0.10682  0.14516  0.33676  1.0000
  H   H214      1.0  0.45613  0.15216  0.25105  1.0000
  H   H215      1.0  0.31911  0.23355  0.23526  1.0000
  H   H216      1.0  0.46751  0.08488  0.40897  1.0000
  H   H217      1.0  0.09069  0.08216  0.37219  1.0000
  C   C272      1.0  0.02230  0.04549  0.32390  1.0000
  H   H218      1.0  0.24467  0.26082  0.41781  1.0000
  H   H219      1.0  0.42557  0.00409  0.41944  1.0000
  C   C273      1.0  0.43234  0.00334  0.45321  1.0000
  Fe  Fe22      1.0  0.34332  0.30380  0.24867  1.0000
  C   C274      1.0  0.15618  0.08886  0.32240  1.0000
  C   C275      1.0  0.15436  0.22607  0.31815  1.0000
  C   C276      1.0  0.09637  0.09234  0.41329  1.0000
  H   H220      1.0  0.28267  0.02343  0.39240  1.0000
  H   H221      1.0  0.24968  0.31601  0.35388  1.0000
  C   C277      1.0  0.31379  0.07173  0.44276  1.0000
  H   H222      1.0  0.27534  0.26536  0.44066  1.0000
  H   H223      1.0  0.19696  0.10313  0.34287  1.0000
  C   C278      1.0  0.05515  0.00188  0.27564  1.0000
  C   C279      1.0  0.33795  0.06033  0.43766  1.0000
  C   C280      1.0  0.28550  0.26914  0.44770  1.0000
  C   C281      1.0  0.15477  0.17715  0.33248  1.0000
  C   C282      1.0  0.29438  0.05958  0.44482  1.0000
  H   H224      1.0  0.37924  0.29022  0.42840  1.0000
  C   C283      1.0  0.24646  0.00432  0.43413  1.0000
  C   C284      1.0  0.13233  0.19348  0.33097  1.0000
  C   C285      1.0  0.31886  0.13430  0.47461  1.0000
  C   C286      1.0  0.16003  0.12658  0.32827  1.0000
  H   H225      1.0  0.16964  0.16808  0.36150  1.0000
  H   H226      1.0  0.08657  0.11814  0.42753  1.0000
  C   C287      1.0  0.04396  0.03358  0.30118  1.0000
  H   H227      1.0  0.11478  0.23034  0.32271  1.0000
  H   H228      1.0  0.11489  0.18765  0.33529  1.0000
  H   H229      1.0  0.17850  0.15080  0.31051  1.0000
  H   H230      1.0  0.45707  0.99105  0.43478  1.0000
  C   C288      1.0  0.18079  0.13654  0.35113  1.0000
  C   C289      1.0  0.10218  0.13550  0.37803  1.0000
  H   H231      1.0  0.14039  0.13711  0.37348  1.0000
  H   H232      1.0  0.33808  0.16185  0.22980  1.0000
  H   H233      1.0  0.20276  0.15478  0.37573  1.0000
  H   H234      1.0  0.00519  0.12128  0.37721  1.0000
  C   C290      1.0  0.39255  0.31024  0.29872  1.0000
  C   C291      1.0  0.42120  0.07629  0.43793  1.0000
  C   C292      1.0  0.40492  0.09864  0.43505  1.0000
  C   C293      1.0  0.41119  0.11645  0.42282  1.0000
  C   C294      1.0  0.43376  0.11120  0.41333  1.0000
  P   P10       1.0  0.39028  0.14564  0.41942  1.0000
  C   C295      1.0  0.36545  0.14234  0.41182  1.0000
  C   C296      1.0  0.37730  0.15649  0.43612  1.0000
  C   C297      1.0  0.35465  0.17305  0.43753  1.0000
  C   C298      1.0  0.39016  0.14937  0.44759  1.0000
  C   C299      1.0  0.35367  0.16226  0.40265  1.0000
  C   C300      1.0  0.33386  0.15994  0.39724  1.0000
  C   C301      1.0  0.32522  0.13796  0.40119  1.0000
  C   C302      1.0  0.33668  0.11813  0.41038  1.0000
  C   C303      1.0  0.35680  0.12024  0.41559  1.0000
  C   C304      1.0  0.40665  0.16832  0.40728  1.0000
  C   C305      1.0  0.41095  0.16975  0.39230  1.0000
  C   C306      1.0  0.42263  0.18799  0.38288  1.0000
  C   C307      1.0  0.43043  0.20467  0.38834  1.0000
  C   C308      1.0  0.42682  0.20294  0.40321  1.0000
  C   C309      1.0  0.41490  0.18494  0.41266  1.0000
  H   H235      1.0  0.23011  0.09045  0.35692  1.0000
  H   H236      1.0  0.18011  0.03133  0.34216  1.0000
  H   H237      1.0  0.38770  0.10221  0.44261  1.0000
  H   H238      1.0  0.43914  0.12453  0.40384  1.0000
  H   H239      1.0  0.34464  0.17925  0.42876  1.0000
  H   H240      1.0  0.40800  0.13715  0.44670  1.0000
  H   H241      1.0  0.35923  0.17988  0.39998  1.0000
  H   H242      1.0  0.32456  0.17559  0.39044  1.0000
  H   H243      1.0  0.30917  0.13655  0.39751  1.0000
  H   H244      1.0  0.32955  0.10132  0.41365  1.0000
  H   H245      1.0  0.36528  0.10482  0.42276  1.0000
  H   H246      1.0  0.40489  0.15705  0.38790  1.0000
  P   P11       1.0  0.01533  0.08241  0.42733  1.0000
  H   H247      1.0  0.02154  0.02411  0.39860  1.0000
  H   H248      1.0  0.43274  0.21601  0.40741  1.0000
  H   H249      1.0  0.41190  0.18439  0.42412  1.0000
  C   C310      1.0  0.21081  0.12081  0.25097  1.0000
  C   C311      1.0  0.20037  0.10165  0.26020  1.0000
  C   C312      1.0  0.21059  0.08846  0.27212  1.0000
  C   C313      1.0  0.23127  0.09441  0.27482  1.0000
  C   C314      1.0  0.24207  0.11354  0.26552  1.0000
  C   C315      1.0  0.23172  0.12657  0.25350  1.0000
  P   P12       1.0  0.26953  0.12029  0.26882  1.0000
  C   C316      1.0  0.29645  0.09916  0.26180  1.0000
  C   C317      1.0  0.27226  0.15157  0.26022  1.0000
  C   C318      1.0  0.27995  0.15739  0.24520  1.0000
  C   C319      1.0  0.28172  0.18146  0.23826  1.0000
  C   C320      1.0  0.27602  0.19998  0.24629  1.0000
  C   C321      1.0  0.26868  0.19436  0.26127  1.0000
  C   C322      1.0  0.26676  0.17025  0.26824  1.0000
  C   C323      1.0  0.31909  0.10675  0.25588  1.0000
  C   C324      1.0  0.33996  0.09008  0.25084  1.0000
  C   C325      1.0  0.33848  0.06568  0.25184  1.0000
  C   C326      1.0  0.31618  0.05788  0.25796  1.0000
  C   C327      1.0  0.29531  0.07453  0.26299  1.0000
  C   C328      1.0  0.26632  0.11551  0.28817  1.0000
  C   C329      1.0  0.24351  0.12400  0.29662  1.0000
  C   C330      1.0  0.23991  0.11775  0.31167  1.0000
  C   C331      1.0  0.25905  0.10317  0.31838  1.0000
  C   C332      1.0  0.28199  0.09521  0.31006  1.0000
  C   C333      1.0  0.28567  0.10135  0.29501  1.0000
  H   H250      1.0  0.20362  0.13023  0.24133  1.0000
  H   H251      1.0  0.18498  0.09642  0.25777  1.0000
  H   H252      1.0  0.20294  0.07309  0.27900  1.0000
  H   H253      1.0  0.23912  0.08368  0.28401  1.0000
  H   H254      1.0  0.23992  0.14077  0.24579  1.0000
  H   H255      1.0  0.28444  0.14328  0.23880  1.0000
  Fe  Fe23      1.0  0.23170  0.99445  0.24386  1.0000
  H   H256      1.0  0.10112  0.02795  0.25227  1.0000
  H   H257      1.0  0.26451  0.20877  0.26746  1.0000
  H   H258      1.0  0.26104  0.16634  0.27983  1.0000
  H   H259      1.0  0.32073  0.12550  0.25505  1.0000
  H   H260      1.0  0.35718  0.09620  0.24592  1.0000
  H   H261      1.0  0.35453  0.05283  0.24774  1.0000
  H   H262      1.0  0.31498  0.03895  0.25868  1.0000
  H   H263      1.0  0.27832  0.06812  0.26776  1.0000
  H   H264      1.0  0.22831  0.13478  0.29156  1.0000
  H   H265      1.0  0.22212  0.12363  0.31817  1.0000
  H   H266      1.0  0.25597  0.09773  0.33002  1.0000
  H   H267      1.0  0.29679  0.08380  0.31528  1.0000
  H   H268      1.0  0.30343  0.09447  0.28879  1.0000
  Fe  Fe24      1.0  0.46860  0.30957  0.36917  1.0000
  H   H269      1.0  0.41331  0.05382  0.41377  1.0000
  H   H270      1.0  0.05882  0.03935  0.26595  1.0000
  C   C334      1.0  0.00268  0.02606  0.31141  1.0000
  H   H271      1.0  0.14300  0.09799  0.34330  1.0000
  C   C335      1.0  0.34472  0.18189  0.45032  1.0000
  C   C336      1.0  0.08151  0.13622  0.37246  1.0000
  C   C337      1.0  0.28422  0.25591  0.46182  1.0000
  H   H272      1.0  0.39582  0.30768  0.28772  1.0000
  C   C338      1.0  0.03492  0.03436  0.43933  1.0000
  C   C339      1.0  0.37372  0.20458  0.23858  1.0000
  C   C340      1.0  0.25079  0.27791  0.41652  1.0000
  H   H273      1.0  0.27750  0.21864  0.24087  1.0000
  C   C341      1.0  0.13217  0.21783  0.32383  1.0000
  C   C342      1.0  0.08328  0.13989  0.35757  1.0000
  C   C343      1.0  0.28069  0.30388  0.40545  1.0000
  C   C344      1.0  0.05132  0.99772  0.40699  1.0000
  H   H274      1.0  0.05891  0.05110  0.31356  1.0000
  C   C345      1.0  0.36189  0.05842  0.40033  1.0000
  C   C346      1.0  0.36550  0.07778  0.38867  1.0000
  H   H275      1.0  0.19457  0.17336  0.32774  1.0000
  C   C347      1.0  0.00572  0.03121  0.27304  1.0000
  S   S43       1.0  0.45332  0.27819  0.36682  1.0000
  C   C348      1.0  0.17701  0.18561  0.32674  1.0000
  C   C349      1.0  0.38629  0.08827  0.38606  1.0000
  H   H276      1.0  0.17893  0.28633  0.45115  1.0000
  H   H277      1.0  0.19117  0.07532  0.44272  1.0000
  C   C350      1.0  0.45697  0.15974  0.23967  1.0000
  C   C351      1.0  0.17862  0.28213  0.47379  1.0000
  H   H278      1.0  0.18328  0.19629  0.46078  1.0000
  C   C352      1.0  0.22202  0.03773  0.30414  1.0000
  H   H279      1.0  0.35195  0.08493  0.38178  1.0000
  C   C353      1.0  0.16835  0.09588  0.30828  1.0000
  H   H280      1.0  0.35286  0.06996  0.43594  1.0000
  C   C354      1.0  0.99797  0.04650  0.24866  1.0000
  H   H281      1.0  0.23282  0.11595  0.37364  1.0000
  Fe  Fe25      1.0  0.24117  0.04483  0.24300  1.0000
  H   H282      1.0  0.19399  0.21636  0.31524  1.0000
  C   C355      1.0  0.18540  0.01770  0.46161  1.0000
  H   H283      1.0  0.06362  0.01066  0.40431  1.0000
  C   C356      1.0  0.12827  0.23635  0.46461  1.0000
  S   S44       1.0  0.19258  0.01834  0.29271  1.0000
  C   C357      1.0  0.00210  0.03639  0.32313  1.0000
  C   C358      1.0  0.40350  0.07938  0.39511  1.0000
  C   C359      1.0  0.17625  0.11828  0.30405  1.0000
  S   S45       1.0  0.23506  0.08211  0.22874  1.0000
  C   C360      1.0  0.39040  0.02199  0.45017  1.0000
  C   C361      1.0  0.30096  0.00014  0.40915  1.0000
  P   P13       1.0  0.02405  0.01043  0.28543  1.0000
  C   C362      1.0  0.15222  0.10400  0.33238  1.0000
  C   C363      1.0  0.40829  0.01419  0.45881  1.0000
  C   C364      1.0  0.31319  0.29218  0.45161  1.0000
  C   C365      1.0  0.21715  0.10762  0.35771  1.0000
  C   C366      1.0  0.00987  0.10372  0.39885  1.0000
  C   C367      1.0  0.23294  0.30465  0.45922  1.0000
  P   P14       1.0  0.15555  0.14551  0.34150  1.0000
  H   H284      1.0  0.24421  0.05340  0.31325  1.0000
  S   S46       1.0  0.26511  0.01160  0.23527  1.0000
  H   H285      1.0  0.15003  0.07150  0.32568  1.0000
  H   H286      1.0  0.12162  0.98417  0.25383  1.0000
  C   C368      1.0  0.17214  0.13361  0.31400  1.0000
  C   C369      1.0  0.29463  0.00604  0.39558  1.0000
  Fe  Fe26      1.0  0.19163  0.02084  0.39534  1.0000
  C   C370      1.0  0.35728  0.17425  0.46180  1.0000
  C   C371      1.0  0.20180  0.14395  0.36822  1.0000
  H   H287      1.0  0.38891  0.10348  0.37713  1.0000
  H   H288      1.0  0.37490  0.01058  0.39735  1.0000
  C   C372      1.0  0.12464  0.13840  0.36876  1.0000
  S   S47       1.0  0.20711  0.02863  0.25028  1.0000
  C   C373      1.0  0.21280  0.04343  0.32902  1.0000
  H   H289      1.0  0.17341  0.06204  0.42572  1.0000
  H   H290      1.0  0.14756  0.98830  0.36601  1.0000
  C   C374      1.0  0.39999  0.05997  0.40676  1.0000
  C   C375      1.0  0.17640  0.04981  0.43581  1.0000
  C   C376      1.0  0.41237  0.30520  0.30593  1.0000
  H   H291      1.0  0.34323  0.98860  0.35935  1.0000
  H   H292      1.0  0.15418  0.24494  0.31262  1.0000
  C   C377      1.0  0.12656  0.14226  0.35376  1.0000
  C   C378      1.0  0.10571  0.14273  0.34826  1.0000
  C   C379      1.0  0.32192  0.27159  0.22861  1.0000
  H   H293      1.0  0.00267  0.04549  0.23734  1.0000
  C   C380      1.0  0.27270  0.28198  0.40704  1.0000
  C   C381      1.0  0.40840  0.30798  0.32029  1.0000
  S   S48       1.0  0.43409  0.30088  0.32882  1.0000
  H   H294      1.0  0.06421  0.13363  0.37968  1.0000
  C   C382      1.0  0.10317  0.98912  0.25997  1.0000
  H   H295      1.0  0.41654  0.06303  0.44765  1.0000
  P   P15       1.0  0.37328  0.02526  0.42494  1.0000
  C   C383      1.0  0.17028  0.02659  0.43923  1.0000
  H   H296      1.0  0.34539  0.05083  0.40242  1.0000
  C   C384      1.0  0.44993  0.08869  0.41619  1.0000
  H   H297      1.0  0.22008  0.29194  0.43190  1.0000
  C   C385      1.0  0.23148  0.00632  0.42414  1.0000
  H   H298      1.0  0.02973  0.10002  0.39575  1.0000
  H   H299      1.0  0.43907  0.21913  0.38108  1.0000
  H   H300      1.0  0.06732  0.14026  0.35323  1.0000
  C   C386      1.0  0.21877  0.12202  0.36705  1.0000
  C   C387      1.0  0.32330  0.02454  0.43671  1.0000
  H   H301      1.0  0.24660  0.02040  0.43806  1.0000
  C   C388      1.0  0.37926  0.04915  0.40938  1.0000
  H   H302      1.0  0.23389  0.03937  0.29367  1.0000
  H   H303      1.0  0.31873  0.09399  0.22632  1.0000
  S   S49       1.0  0.25201  0.03403  0.26469  1.0000
  H   H304      1.0  0.22036  0.02384  0.42037  1.0000
  C   C389      1.0  0.34284  0.03691  0.43433  1.0000
  S   S50       1.0  0.18024  0.01704  0.37560  1.0000
  H   H305      1.0  0.16752  0.30011  0.47457  1.0000
  C   C390      1.0  0.36687  0.29692  0.46343  1.0000
  H   H306      1.0  0.29400  0.01293  0.41646  1.0000
  H   H307      1.0  0.23646  0.01332  0.46554  1.0000
  C   C391      1.0  0.09159  0.01378  0.25908  1.0000
  H   H308      1.0  0.10064  0.06607  0.39988  1.0000
  C   C392      1.0  0.44370  0.07129  0.42852  1.0000
  C   C393      1.0  0.08801  0.07641  0.40756  1.0000
  H   H309      1.0  0.29782  0.30684  0.39817  1.0000
  H   H310      1.0  0.08585  0.21841  0.47089  1.0000
  H   H311      1.0  0.11555  0.09429  0.41010  1.0000
  C   C394      1.0  0.39648  0.01865  0.43585  1.0000
  H   H312      1.0  0.99460  0.98638  0.27402  1.0000
  H   H313      1.0  0.25412  0.01357  0.35644  1.0000
  H   H314      1.0  0.28403  0.02667  0.44352  1.0000
  C   C395      1.0  0.32344  0.12011  0.46411  1.0000
  H   H315      1.0  0.13170  0.27905  0.47241  1.0000
  H   H316      1.0  0.04863  0.20546  0.46921  1.0000
  C   C396      1.0  0.01621  0.04977  0.43236  1.0000
  C   C397      1.0  0.35314  0.19763  0.24842  1.0000
  C   C398      1.0  0.43855  0.00004  0.43896  1.0000
  C   C399      1.0  0.25077  0.99513  0.36075  1.0000
  C   C400      1.0  0.29705  0.26101  0.47095  1.0000
  C   C401      1.0  0.17442  0.01075  0.45214  1.0000
  H   H317      1.0  0.05737  0.06104  0.40723  1.0000
  C   C402      1.0  0.29918  0.03593  0.44196  1.0000
  H   H318      1.0  0.38964  0.15187  0.46939  1.0000
  C   C403      1.0  0.38893  0.28288  0.46733  1.0000
  C   C404      1.0  0.31146  0.27906  0.46589  1.0000
  H   H319      1.0  0.33680  0.00706  0.46551  1.0000
  C   C405      1.0  0.06767  0.02016  0.26685  1.0000
  H   H320      1.0  0.43089  0.29877  0.30044  1.0000
  C   C406      1.0  0.38001  0.15801  0.46043  1.0000
  H   H321      1.0  0.32116  0.28274  0.47317  1.0000
  H   H322      1.0  0.42537  0.18946  0.37133  1.0000
  C   C407      1.0  0.03479  0.00929  0.44417  1.0000
  Fe  Fe27      1.0  0.27265  0.99876  0.25763  1.0000
  H   H323      1.0  0.41901  0.17777  0.24258  1.0000
  H   H324      1.0  0.99725  0.06291  0.45812  1.0000
  H   H325      1.0  0.38309  0.21698  0.24108  1.0000
  H   H326      1.0  0.34666  0.20495  0.25825  1.0000
  H   H327      1.0  0.32450  0.17669  0.25296  1.0000
  C   C408      1.0  0.06342  0.07364  0.41175  1.0000
  H   H328      1.0  0.32697  0.19427  0.45148  1.0000
  H   H329      1.0  0.34909  0.18053  0.47184  1.0000
  H   H330      1.0  0.27557  0.06867  0.44841  1.0000
  C   C409      1.0  0.29963  0.28740  0.44266  1.0000
  C   C410      1.0  0.37478  0.99631  0.42013  1.0000
  Fe  Fe28      1.0  0.43191  0.30621  0.35143  1.0000
  C   C411      1.0  0.47911  0.15499  0.22988  1.0000
  Fe  Fe29      1.0  0.42134  0.28983  0.38413  1.0000
  C   C412      1.0  0.15020  0.22311  0.45784  1.0000
  H   H331      1.0  0.99619  0.13369  0.42972  1.0000
  C   C413      1.0  0.19824  0.11484  0.34977  1.0000
  H   H332      1.0  0.29986  0.29757  0.43181  1.0000
  C   C414      1.0  0.17677  0.20996  0.31962  1.0000
  H   H333      1.0  0.15550  0.22665  0.44619  1.0000
  C   C415      1.0  0.19065  0.04143  0.45836  1.0000
  H   H334      1.0  0.31347  0.99294  0.32207  1.0000
  C   C416      1.0  0.23008  0.98538  0.41959  1.0000
  H   H335      1.0  0.28618  0.30821  0.33443  1.0000
  H   H336      1.0  0.16265  0.02058  0.43181  1.0000
  H   H337      1.0  0.31229  0.12505  0.45596  1.0000
  H   H338      1.0  0.16932  0.01807  0.32235  1.0000
  H   H339      1.0  0.30996  0.09023  0.44479  1.0000
  H   H340      1.0  0.46869  0.28365  0.27740  1.0000
  C   C417      1.0  0.05531  0.10318  0.42729  1.0000
  C   C418      1.0  0.40343  0.27447  0.44322  1.0000
  H   H341      1.0  0.23358  0.29090  0.45319  1.0000
  C   C419      1.0  0.42068  0.00754  0.43033  1.0000
  H   H342      1.0  0.11647  0.24989  0.45807  1.0000
  C   C420      1.0  0.08001  0.10579  0.42311  1.0000
  C   C421      1.0  0.31857  0.24925  0.22654  1.0000
  C   C422      1.0  0.36274  0.29957  0.44942  1.0000
  C   C423      1.0  0.04683  0.08706  0.42163  1.0000
  H   H343      1.0  0.32643  0.00641  0.43430  1.0000
  C   C424      1.0  0.34051  0.18194  0.24537  1.0000
  H   H344      1.0  0.40346  0.01630  0.46995  1.0000
  H   H345      1.0  0.04954  0.04172  0.44112  1.0000
  C   C425      1.0  0.16591  0.20593  0.46608  1.0000
  C   C426      1.0  0.99601  0.11597  0.38826  1.0000
  H   H346      1.0  0.04309  0.11359  0.43501  1.0000
  H   H347      1.0  0.34586  0.08855  0.45600  1.0000
  H   H348      1.0  0.27300  0.24193  0.46576  1.0000
  H   H349      1.0  0.45637  0.05402  0.43092  1.0000
  C   C427      1.0  0.23698  0.29558  0.42456  1.0000
  H   H350      1.0  0.34375  0.29107  0.41995  1.0000
  C   C428      1.0  0.99719  0.01477  0.43536  1.0000
  C   C429      1.0  0.38143  0.28851  0.43930  1.0000
  S   S51       1.0  0.20897  0.98602  0.40883  1.0000
  H   H351      1.0  0.19785  0.04785  0.46579  1.0000
  H   H352      1.0  0.24490  0.99050  0.34075  1.0000
  H   H353      1.0  0.41748  0.26573  0.43532  1.0000
  S   S52       1.0  0.43225  0.30967  0.23673  1.0000
  C   C430      1.0  0.99798  0.09657  0.41315  1.0000
  H   H354      1.0  0.44606  0.99707  0.46000  1.0000
  H   H355      1.0  0.35286  0.30531  0.47145  1.0000
  C   C431      1.0  0.06690  0.99193  0.22938  1.0000
  C   C432      1.0  0.20829  0.23586  0.47147  1.0000
  S   S53       1.0  0.37953  0.06541  0.47424  1.0000
  H   H356      1.0  0.21975  0.21798  0.47065  1.0000
  C   C433      1.0  0.28199  0.08842  0.22776  1.0000
  C   C434      1.0  0.09263  0.98788  0.22682  1.0000
  H   H357      1.0  0.28764  0.18564  0.22663  1.0000
  C   C435      1.0  0.31650  0.98365  0.33277  1.0000
  H   H358      1.0  0.32951  0.04866  0.47117  1.0000
  S   S54       1.0  0.39866  0.31498  0.36853  1.0000
  H   H359      1.0  0.99328  0.99503  0.40497  1.0000
  C   C436      1.0  0.11390  0.29127  0.47289  1.0000
  C   C437      1.0  0.32949  0.99300  0.34001  1.0000
  H   H360      1.0  0.29761  0.99417  0.37595  1.0000
  C   C438      1.0  0.38205  0.19562  0.22567  1.0000
  H   H361      1.0  0.12878  0.98575  0.34610  1.0000
  C   C439      1.0  0.30316  0.98928  0.38628  1.0000
  C   C440      1.0  0.34128  0.31073  0.41613  1.0000
  H   H362      1.0  0.35117  0.30720  0.39387  1.0000
  H   H363      1.0  0.43287  0.31487  0.42287  1.0000
  C   C441      1.0  0.23381  0.29711  0.47388  1.0000
  P   P16       1.0  0.33278  0.31473  0.44511  1.0000
  S   S55       1.0  0.29523  0.16069  0.47431  1.0000
  H   H364      1.0  0.22407  0.98302  0.32200  1.0000
  C   C442      1.0  0.38437  0.31620  0.32737  1.0000
  C   C443      1.0  0.11294  0.31618  0.46706  1.0000
  S   S56       1.0  0.17708  0.27515  0.50304  1.0000
  Fe  Fe30      1.0  0.41318  0.01997  0.51993  1.0000
  H   H365      1.0  0.13487  0.06427  0.62803  1.0000
  Fe  Fe31      1.0  0.40509  0.04675  0.48993  1.0000
  C   C444      1.0  0.28722  0.16399  0.51333  1.0000
  C   C445      1.0  0.23496  0.07139  0.50912  1.0000
  Fe  Fe32      1.0  0.45492  0.04069  0.49865  1.0000
  S   S57       1.0  0.39896  0.00986  0.50294  1.0000
  S   S58       1.0  0.41596  0.05821  0.50769  1.0000
  C   C446      1.0  0.38106  0.23775  0.67695  1.0000
  C   C447      1.0  0.11172  0.25149  0.70360  1.0000
  C   C448      1.0  0.33974  0.26271  0.62705  1.0000
  H   H366      1.0  0.45493  0.00166  0.63243  1.0000
  C   C449      1.0  0.44507  0.01699  0.61169  1.0000
  H   H367      1.0  0.40106  0.08708  0.66436  1.0000
  C   C450      1.0  0.25078  0.01840  0.48286  1.0000
  H   H368      1.0  0.32026  0.99386  0.71003  1.0000
  S   S59       1.0  0.32490  0.28947  0.66691  1.0000
  Fe  Fe33      1.0  0.31249  0.07384  0.60097  1.0000
  S   S60       1.0  0.31790  0.03456  0.61240  1.0000
  S   S61       1.0  0.32201  0.08679  0.57687  1.0000
  Fe  Fe34      1.0  0.29075  0.09319  0.62866  1.0000
  S   S62       1.0  0.29448  0.05544  0.64243  1.0000
  S   S63       1.0  0.27060  0.12795  0.63678  1.0000
  Fe  Fe35      1.0  0.33183  0.04780  0.62829  1.0000
  S   S64       1.0  0.36318  0.02187  0.63797  1.0000
  Fe  Fe36      1.0  0.28040  0.04495  0.62556  1.0000
  S   S65       1.0  0.25407  0.01850  0.63233  1.0000
  S   S66       1.0  0.32942  0.08659  0.61584  1.0000
  S   S67       1.0  0.27355  0.08329  0.61284  1.0000
  Fe  Fe37      1.0  0.29693  0.22949  0.70952  1.0000
  S   S68       1.0  0.27120  0.20916  0.70499  1.0000
  C   C451      1.0  0.29534  0.30080  0.56775  1.0000
  H   H369      1.0  0.24869  0.00789  0.55313  1.0000
  S   S69       1.0  0.27790  0.24337  0.67199  1.0000
  Fe  Fe38      1.0  0.25376  0.24630  0.69377  1.0000
  S   S70       1.0  0.21357  0.26404  0.69454  1.0000
  Fe  Fe39      1.0  0.29722  0.20772  0.68366  1.0000
  S   S71       1.0  0.31649  0.17253  0.67568  1.0000
  S   S72       1.0  0.27709  0.26673  0.70031  1.0000
  S   S73       1.0  0.32383  0.22553  0.68910  1.0000
  Fe  Fe40      1.0  0.46694  0.04304  0.66703  1.0000
  H   H370      1.0  0.07592  0.22118  0.54131  1.0000
  S   S74       1.0  0.45116  0.06261  0.64720  1.0000
  Fe  Fe41      1.0  0.46536  0.04548  0.69791  1.0000
  C   C452      1.0  0.10902  0.01686  0.61766  1.0000
  C   C453      1.0  0.29159  0.31342  0.57895  1.0000
  H   H371      1.0  0.31486  0.18181  0.51574  1.0000
  C   C454      1.0  0.22749  0.00709  0.50690  1.0000
  H   H372      1.0  0.26204  0.27015  0.64486  1.0000
  C   C455      1.0  0.23347  0.01211  0.47707  1.0000
  S   S75       1.0  0.44436  0.02743  0.68795  1.0000
  C   C456      1.0  0.47514  0.16229  0.70613  1.0000
  C   C457      1.0  0.09451  0.04359  0.65661  1.0000
  C   C458      1.0  0.47651  0.03400  0.59317  1.0000
  H   H373      1.0  0.33458  0.14524  0.53165  1.0000
  H   H374      1.0  0.49152  0.16158  0.71008  1.0000
  H   H375      1.0  0.12814  0.26917  0.52567  1.0000
  H   H376      1.0  0.22079  0.06045  0.51198  1.0000
  Fe  Fe42      1.0  0.47653  0.99595  0.68911  1.0000
  C   C459      1.0  0.38734  0.03377  0.64039  1.0000
  C   C460      1.0  0.40240  0.01964  0.65008  1.0000
  C   C461      1.0  0.42169  0.02861  0.65244  1.0000
  C   C462      1.0  0.42651  0.05146  0.64475  1.0000
  C   C463      1.0  0.41167  0.06548  0.63491  1.0000
  C   C464      1.0  0.39195  0.05677  0.63282  1.0000
  H   H377      1.0  0.39878  0.00193  0.65601  1.0000
  H   H378      1.0  0.43308  0.01775  0.66002  1.0000
  H   H379      1.0  0.41529  0.08323  0.62900  1.0000
  C   C465      1.0  0.09221  0.28244  0.47976  1.0000
  C   C466      1.0  0.28371  0.14016  0.64751  1.0000
  C   C467      1.0  0.30614  0.12825  0.65170  1.0000
  C   C468      1.0  0.31598  0.13839  0.66035  1.0000
  C   C469      1.0  0.30353  0.16049  0.66482  1.0000
  C   C470      1.0  0.28116  0.17245  0.66058  1.0000
  C   C471      1.0  0.27126  0.16226  0.65199  1.0000
  H   H380      1.0  0.31582  0.11119  0.64833  1.0000
  H   H381      1.0  0.33324  0.12904  0.66365  1.0000
  H   H382      1.0  0.27142  0.18944  0.66401  1.0000
  H   H383      1.0  0.25385  0.17149  0.64885  1.0000
  P   P17       1.0  0.13212  0.01310  0.64082  1.0000
  C   C472      1.0  0.19209  0.25245  0.70927  1.0000
  H   H384      1.0  0.20022  0.01684  0.68484  1.0000
  H   H385      1.0  0.05061  0.98506  0.60519  1.0000
  H   H386      1.0  0.03820  0.24366  0.70105  1.0000
  H   H387      1.0  0.42046  0.18203  0.66048  1.0000
  H   H388      1.0  0.22551  0.00440  0.51849  1.0000
  C   C473      1.0  0.21984  0.01223  0.68485  1.0000
  C   C474      1.0  0.11533  0.25964  0.52369  1.0000
  C   C475      1.0  0.21015  0.00082  0.50112  1.0000
  Fe  Fe43      1.0  0.15833  0.31443  0.50442  1.0000
  C   C476      1.0  0.18927  0.03736  0.64835  1.0000
  H   H389      1.0  0.12095  0.27046  0.68181  1.0000
  C   C477      1.0  0.05759  0.31443  0.51513  1.0000
  C   C478      1.0  0.10861  0.99619  0.55294  1.0000
  C   C479      1.0  0.24773  0.02755  0.60422  1.0000
  C   C480      1.0  0.26015  0.02305  0.67718  1.0000
  C   C481      1.0  0.32023  0.26814  0.61966  1.0000
  H   H390      1.0  0.38045  0.16306  0.66752  1.0000
  H   H391      1.0  0.25765  0.04229  0.60227  1.0000
  H   H392      1.0  0.07182  0.22317  0.51645  1.0000
  S   S76       1.0  0.44419  0.03255  0.47978  1.0000
  S   S77       1.0  0.45269  0.00325  0.51209  1.0000
  C   C482      1.0  0.30769  0.16504  0.51856  1.0000
  C   C483      1.0  0.41329  0.09676  0.68118  1.0000
  C   C484      1.0  0.06710  0.23986  0.48737  1.0000
  H   H393      1.0  0.28650  0.10961  0.49850  1.0000
  C   C485      1.0  0.15952  0.00267  0.49026  1.0000
  H   H394      1.0  0.47859  0.04478  0.52621  1.0000
  C   C486      1.0  0.45979  0.08379  0.72123  1.0000
  C   C487      1.0  0.47502  0.14566  0.69775  1.0000
  C   C488      1.0  0.30904  0.05903  0.69013  1.0000
  Fe  Fe44      1.0  0.43841  0.99648  0.49401  1.0000
  C   C489      1.0  0.37527  0.03049  0.55211  1.0000
  C   C490      1.0  0.35944  0.02275  0.56495  1.0000
  C   C491      1.0  0.34299  0.03993  0.57255  1.0000
  C   C492      1.0  0.34200  0.06501  0.56724  1.0000
  C   C493      1.0  0.35724  0.07285  0.55414  1.0000
  C   C494      1.0  0.37397  0.05561  0.54661  1.0000
  H   H395      1.0  0.00966  0.21460  0.70917  1.0000
  H   H396      1.0  0.33081  0.03372  0.58239  1.0000
  H   H397      1.0  0.35654  0.09225  0.54998  1.0000
  H   H398      1.0  0.38604  0.06174  0.53669  1.0000
  C   C495      1.0  0.37699  0.99896  0.60343  1.0000
  C   C496      1.0  0.24551  0.07498  0.51986  1.0000
  H   H399      1.0  0.04759  0.27904  0.52385  1.0000
  H   H400      1.0  0.37992  0.12966  0.65578  1.0000
  H   H401      1.0  0.12338  0.27244  0.50090  1.0000
  H   H402      1.0  0.22456  0.10584  0.54024  1.0000
  H   H403      1.0  0.03425  0.04147  0.67172  1.0000
  H   H404      1.0  0.17478  0.00430  0.65508  1.0000
  H   H405      1.0  0.28283  0.03524  0.69741  1.0000
  H   H406      1.0  0.09478  0.01443  0.51493  1.0000
  H   H407      1.0  0.42647  0.01377  0.61556  1.0000
  C   C497      1.0  0.05304  0.03589  0.66615  1.0000
  C   C498      1.0  0.23167  0.31440  0.48228  1.0000
  H   H408      1.0  0.09881  0.03042  0.56043  1.0000
  H   H409      1.0  0.20690  0.23122  0.49429  1.0000
  C   C499      1.0  0.01787  0.30499  0.51518  1.0000
  C   C500      1.0  0.14980  0.05668  0.63392  1.0000
  H   H410      1.0  0.48247  0.04397  0.58246  1.0000
  S   S78       1.0  0.99851  0.28323  0.51951  1.0000
  H   H411      1.0  0.12698  0.99880  0.54741  1.0000
  C   C501      1.0  0.33911  0.31533  0.64021  1.0000
  C   C502      1.0  0.23885  0.02319  0.59296  1.0000
  C   C503      1.0  0.07041  0.05063  0.66402  1.0000
  C   C504      1.0  0.31526  0.01951  0.68319  1.0000
  H   H412      1.0  0.27235  0.98678  0.57232  1.0000
  C   C505      1.0  0.06888  0.26099  0.71525  1.0000
  C   C506      1.0  0.14249  0.98785  0.49152  1.0000
  C   C507      1.0  0.32871  0.01003  0.47635  1.0000
  H   H413      1.0  0.41592  0.19318  0.70827  1.0000
  C   C508      1.0  0.04423  0.24724  0.49607  1.0000
  C   C509      1.0  0.23066  0.29968  0.64552  1.0000
  H   H414      1.0  0.30180  0.02042  0.51540  1.0000
  C   C510      1.0  0.25119  0.28286  0.62408  1.0000
  H   H415      1.0  0.29580  0.25093  0.48196  1.0000
  C   C511      1.0  0.38363  0.15324  0.72081  1.0000
  H   H416      1.0  0.28225  0.30097  0.65276  1.0000
  C   C512      1.0  0.24755  0.01629  0.49776  1.0000
  C   C513      1.0  0.20097  0.24335  0.48485  1.0000
  H   H417      1.0  0.26765  0.10354  0.47977  1.0000
  C   C514      1.0  0.27078  0.00034  0.68478  1.0000
  H   H418      1.0  0.08862  0.98985  0.64963  1.0000
  H   H419      1.0  0.22699  0.04647  0.67118  1.0000
  H   H420      1.0  0.07866  0.29328  0.68079  1.0000
  H   H421      1.0  0.41977  0.07243  0.55830  1.0000
  H   H422      1.0  0.16499  0.08961  0.62705  1.0000
  C   C515      1.0  0.33861  0.02288  0.67516  1.0000
  H   H423      1.0  0.20038  0.07218  0.63956  1.0000
  C   C516      1.0  0.24916  0.28286  0.63872  1.0000
  H   H424      1.0  0.23470  0.07894  0.48635  1.0000
  H   H425      1.0  0.36992  0.25335  0.68151  1.0000
  C   C517      1.0  0.47000  0.04411  0.53744  1.0000
  H   H426      1.0  0.47632  0.01036  0.57058  1.0000
  H   H427      1.0  0.23521  0.27789  0.47888  1.0000
  C   C518      1.0  0.08367  0.23382  0.51830  1.0000
  H   H428      1.0  0.26405  0.99995  0.52836  1.0000
  C   C519      1.0  0.22603  0.00407  0.59537  1.0000
  H   H429      1.0  0.42229  0.11120  0.69721  1.0000
  H   H430      1.0  0.09263  0.01335  0.62543  1.0000
  H   H431      1.0  0.05249  0.29322  0.48624  1.0000
  H   H432      1.0  0.35979  0.00339  0.56897  1.0000
  C   C520      1.0  0.41400  0.11569  0.68775  1.0000
  C   C521      1.0  0.26511  0.23396  0.61591  1.0000
  C   C522      1.0  0.28235  0.21224  0.61399  1.0000
  C   C523      1.0  0.27436  0.19046  0.61518  1.0000
  C   C524      1.0  0.24917  0.19022  0.61812  1.0000
  C   C525      1.0  0.23190  0.21181  0.61985  1.0000
  C   C526      1.0  0.23980  0.23364  0.61874  1.0000
  C   C527      1.0  0.02471  0.22481  0.48536  1.0000
  C   C528      1.0  0.26348  0.08960  0.51626  1.0000
  H   H433      1.0  0.28899  0.22344  0.63963  1.0000
  H   H434      1.0  0.30197  0.21202  0.61183  1.0000
  H   H435      1.0  0.28766  0.17351  0.61417  1.0000
  H   H436      1.0  0.24313  0.17313  0.61932  1.0000
  H   H437      1.0  0.21238  0.21150  0.62224  1.0000
  H   H438      1.0  0.22613  0.25008  0.62026  1.0000
  C   C529      1.0  0.40918  0.19742  0.66514  1.0000
  H   H439      1.0  0.41334  0.22319  0.64494  1.0000
  H   H440      1.0  0.19501  0.99320  0.50836  1.0000
  H   H441      1.0  0.00552  0.24593  0.50171  1.0000
  C   C530      1.0  0.34691  0.04432  0.67448  1.0000
  H   H442      1.0  0.01545  0.30216  0.57203  1.0000
  C   C531      1.0  0.06917  0.01035  0.56752  1.0000
  C   C532      1.0  0.09649  0.24877  0.50677  1.0000
  H   H443      1.0  0.20501  0.02983  0.65357  1.0000
  H   H444      1.0  0.32379  0.21379  0.65222  1.0000
  C   C533      1.0  0.33320  0.12729  0.48539  1.0000
  H   H445      1.0  0.27866  0.17986  0.50632  1.0000
  C   C534      1.0  0.23093  0.99369  0.62033  1.0000
  C   C535      1.0  0.26132  0.09560  0.49097  1.0000
  H   H446      1.0  0.23980  0.06617  0.53093  1.0000
  C   C536      1.0  0.02315  0.23982  0.49504  1.0000
  C   C537      1.0  0.40374  0.14006  0.68230  1.0000
  C   C538      1.0  0.23018  0.98958  0.69244  1.0000
  C   C539      1.0  0.08388  0.00683  0.65364  1.0000
  S   S79       1.0  0.21478  0.99922  0.58116  1.0000
  H   H447      1.0  0.04333  0.98624  0.57345  1.0000
  P   P18       1.0  0.03203  0.29552  0.70302  1.0000
  H   H448      1.0  0.07586  0.30857  0.51768  1.0000
  C   C540      1.0  0.06332  0.27814  0.70290  1.0000
  C   C541      1.0  0.10633  0.26794  0.69112  1.0000
  C   C542      1.0  0.08223  0.28108  0.69069  1.0000
  C   C543      1.0  0.27178  0.09931  0.50168  1.0000
  H   H449      1.0  0.28963  0.00193  0.65524  1.0000
  H   H450      1.0  0.24195  0.03464  0.58237  1.0000
  C   C544      1.0  0.31887  0.14443  0.52745  1.0000
  H   H451      1.0  0.04634  0.00254  0.66263  1.0000
  H   H452      1.0  0.38050  0.06775  0.62526  1.0000
  C   C545      1.0  0.24281  0.08175  0.49468  1.0000
  C   C546      1.0  0.48546  0.08115  0.71734  1.0000
  C   C547      1.0  0.09297  0.24785  0.71561  1.0000
  C   C548      1.0  0.16685  0.07106  0.63329  1.0000
  H   H453      1.0  0.47259  0.17638  0.66006  1.0000
  H   H454      1.0  0.38382  0.25740  0.70894  1.0000
  C   C549      1.0  0.29726  0.30852  0.64539  1.0000
  C   C550      1.0  0.02778  0.31235  0.56387  1.0000
  C   C551      1.0  0.48494  0.01529  0.61703  1.0000
  S   S80       1.0  0.44399  0.06617  0.71545  1.0000
  C   C552      1.0  0.33207  0.06248  0.68184  1.0000
  C   C553      1.0  0.46119  0.01021  0.62140  1.0000
  H   H455      1.0  0.23504  0.29987  0.60514  1.0000
  C   C554      1.0  0.18605  0.26648  0.48606  1.0000
  C   C555      1.0  0.34100  0.24317  0.63879  1.0000
  C   C556      1.0  0.24360  0.01294  0.61798  1.0000
  C   C557      1.0  0.04156  0.29771  0.51857  1.0000
  H   H456      1.0  0.42157  0.07813  0.68537  1.0000
  H   H457      1.0  0.21433  0.31601  0.70063  1.0000
  Fe  Fe45      1.0  0.30235  0.26124  0.67938  1.0000
  H   H458      1.0  0.32627  0.08596  0.51117  1.0000
  H   H459      1.0  0.36083  0.05081  0.50987  1.0000
  H   H460      1.0  0.26194  0.14204  0.51285  1.0000
  C   C558      1.0  0.43188  0.16293  0.69696  1.0000
  C   C559      1.0  0.15247  0.03240  0.64169  1.0000
  H   H461      1.0  0.35569  0.23941  0.64478  1.0000
  C   C560      1.0  0.23405  0.29959  0.61642  1.0000
  H   H462      1.0  0.42997  0.00027  0.56998  1.0000
  C   C561      1.0  0.15255  0.02253  0.49748  1.0000
  C   C562      1.0  0.27795  0.14234  0.51691  1.0000
  C   C563      1.0  0.40154  0.10183  0.66944  1.0000
  C   C564      1.0  0.25601  0.08553  0.57355  1.0000
  C   C565      1.0  0.23032  0.09187  0.57538  1.0000
  C   C566      1.0  0.21907  0.09905  0.56333  1.0000
  C   C567      1.0  0.23349  0.09951  0.54947  1.0000
  C   C568      1.0  0.25924  0.09204  0.54763  1.0000
  C   C569      1.0  0.27041  0.08580  0.55975  1.0000
  P   P19       1.0  0.27834  0.09304  0.52990  1.0000
  C   C570      1.0  0.30405  0.06758  0.52993  1.0000
  C   C571      1.0  0.32511  0.06925  0.51910  1.0000
  C   C572      1.0  0.34468  0.04924  0.51831  1.0000
  C   C573      1.0  0.34340  0.02742  0.52840  1.0000
  C   C574      1.0  0.32262  0.02572  0.53933  1.0000
  C   C575      1.0  0.30273  0.04554  0.53996  1.0000
  C   C576      1.0  0.28957  0.12135  0.52546  1.0000
  C   C577      1.0  0.30981  0.12269  0.53092  1.0000
  H   H463      1.0  0.38776  0.25890  0.65546  1.0000
  C   C578      1.0  0.08615  0.23242  0.53245  1.0000
  H   H464      1.0  0.26492  0.08056  0.58280  1.0000
  H   H465      1.0  0.21923  0.09148  0.58613  1.0000
  H   H466      1.0  0.19918  0.10447  0.56475  1.0000
  H   H467      1.0  0.29032  0.08117  0.55856  1.0000
  H   H468      1.0  0.37660  0.21232  0.69709  1.0000
  C   C579      1.0  0.39064  0.14483  0.67105  1.0000
  C   C580      1.0  0.11258  0.26143  0.50958  1.0000
  H   H469      1.0  0.32213  0.00910  0.54741  1.0000
  H   H470      1.0  0.28652  0.04357  0.54830  1.0000
  H   H471      1.0  0.31860  0.10691  0.53788  1.0000
  C   C581      1.0  0.12932  0.02668  0.50641  1.0000
  C   C582      1.0  0.09274  0.01399  0.56024  1.0000
  H   H472      1.0  0.16508  0.03477  0.49620  1.0000
  P   P20       1.0  0.40356  0.16420  0.69134  1.0000
  C   C583      1.0  0.39828  0.19404  0.67983  1.0000
  H   H473      1.0  0.43843  0.07636  0.59923  1.0000
  H   H474      1.0  0.36349  0.10105  0.49366  1.0000
  H   H475      1.0  0.29754  0.07321  0.69579  1.0000
  C   C584      1.0  0.16817  0.26635  0.71231  1.0000
  C   C585      1.0  0.30325  0.23432  0.63578  1.0000
  H   H476      1.0  0.29937  0.31029  0.55666  1.0000
  H   H477      1.0  0.34153  0.25157  0.70993  1.0000
  H   H478      1.0  0.35044  0.17292  0.69393  1.0000
  C   C586      1.0  0.38468  0.21445  0.68573  1.0000
  C   C587      1.0  0.28818  0.26387  0.58520  1.0000
  C   C588      1.0  0.38991  0.12583  0.66451  1.0000
  H   H479      1.0  0.31941  0.28379  0.61086  1.0000
  P   P21       1.0  0.27560  0.26175  0.61510  1.0000
  C   C589      1.0  0.32451  0.03341  0.47952  1.0000
  C   C590      1.0  0.37883  0.16169  0.70678  1.0000
  C   C591      1.0  0.37614  0.24350  0.71726  1.0000
  H   H480      1.0  0.35348  0.27417  0.62391  1.0000
  S   S81       1.0  0.48577  0.06343  0.67688  1.0000
  C   C592      1.0  0.32292  0.22883  0.64304  1.0000
  C   C593      1.0  0.13777  0.21509  0.48793  1.0000
  C   C594      1.0  0.35443  0.16707  0.70469  1.0000
  C   C595      1.0  0.45386  0.17946  0.70977  1.0000
  H   H481      1.0  0.06045  0.28627  0.56876  1.0000
  P   P22       1.0  0.09405  0.25049  0.48838  1.0000
  H   H482      1.0  0.22953  0.29972  0.65678  1.0000
  C   C596      1.0  0.39155  0.01675  0.60032  1.0000
  C   C597      1.0  0.41117  0.01724  0.58844  1.0000
  C   C598      1.0  0.41557  0.00001  0.57952  1.0000
  P   P23       1.0  0.43121  0.03896  0.58517  1.0000
  C   C599      1.0  0.44703  0.04187  0.56653  1.0000
  C   C600      1.0  0.41280  0.06827  0.58852  1.0000
  C   C601      1.0  0.38994  0.07691  0.58416  1.0000
  C   C602      1.0  0.37578  0.09969  0.58662  1.0000
  C   C603      1.0  0.38399  0.11373  0.59373  1.0000
  C   C604      1.0  0.40662  0.10519  0.59822  1.0000
  C   C605      1.0  0.42105  0.08260  0.59557  1.0000
  C   C606      1.0  0.43686  0.05970  0.55572  1.0000
  C   C607      1.0  0.44836  0.06079  0.54125  1.0000
  C   C608      1.0  0.06952  0.29910  0.48070  1.0000
  C   C609      1.0  0.29371  0.27602  0.57087  1.0000
  C   C610      1.0  0.46867  0.02494  0.56255  1.0000
  H   H483      1.0  0.06506  0.06762  0.66803  1.0000
  C   C611      1.0  0.30073  0.03755  0.69092  1.0000
  H   H484      1.0  0.16307  0.28400  0.70552  1.0000
  H   H485      1.0  0.99711  0.30143  0.54651  1.0000
  S   S82       1.0  0.39653  0.00822  0.54336  1.0000
  H   H486      1.0  0.45387  0.19234  0.71629  1.0000
  H   H487      1.0  0.13354  0.21191  0.49958  1.0000
  H   H488      1.0  0.31184  0.05509  0.49601  1.0000
  C   C612      1.0  0.02563  0.31389  0.71682  1.0000
  H   H489      1.0  0.38752  0.03005  0.60725  1.0000
  C   C613      1.0  0.01130  0.27405  0.70870  1.0000
  H   H490      1.0  0.38306  0.06609  0.57884  1.0000
  H   H491      1.0  0.35820  0.10632  0.58318  1.0000
  H   H492      1.0  0.37267  0.13113  0.59588  1.0000
  H   H493      1.0  0.41287  0.11597  0.60387  1.0000
  H   H494      1.0  0.32977  0.13822  0.49356  1.0000
  H   H495      1.0  0.33834  0.07930  0.68105  1.0000
  C   C614      1.0  0.19853  0.22963  0.71804  1.0000
  C   C615      1.0  0.06159  0.98875  0.56769  1.0000
  S   S83       1.0  0.48546  0.06184  0.49555  1.0000
  H   H496      1.0  0.36472  0.04711  0.66802  1.0000
  H   H497      1.0  0.44026  0.07426  0.53289  1.0000
  H   H498      1.0  0.12419  0.04179  0.51213  1.0000
  C   C616      1.0  0.45355  0.14612  0.69301  1.0000
  C   C617      1.0  0.28418  0.27652  0.59652  1.0000
  H   H499      1.0  0.10406  0.24416  0.54606  1.0000
  C   C618      1.0  0.11269  0.01140  0.50792  1.0000
  H   H500      1.0  0.17594  0.28710  0.66578  1.0000
  H   H501      1.0  0.36217  0.99849  0.61277  1.0000
  C   C619      1.0  0.43233  0.17983  0.70520  1.0000
  H   H502      1.0  0.28679  0.24477  0.58734  1.0000
  H   H503      1.0  0.10750  0.05542  0.65506  1.0000
  H   H504      1.0  0.31614  0.16970  0.71477  1.0000
  H   H505      1.0  0.26094  0.02117  0.50221  1.0000
  C   C620      1.0  0.13074  0.01749  0.62193  1.0000
  C   C621      1.0  0.15165  0.02164  0.61125  1.0000
  C   C622      1.0  0.15080  0.02506  0.59666  1.0000
  C   C623      1.0  0.12920  0.02418  0.59257  1.0000
  C   C624      1.0  0.10828  0.02035  0.60306  1.0000
  C   C625      1.0  0.31982  0.30534  0.64972  1.0000
  H   H506      1.0  0.00825  0.21926  0.48454  1.0000
  P   P24       1.0  0.18937  0.99751  0.47863  1.0000
  C   C626      1.0  0.40538  0.22072  0.65634  1.0000
  C   C627      1.0  0.30877  0.01724  0.50454  1.0000
  C   C628      1.0  0.30185  0.25391  0.62392  1.0000
  C   C629      1.0  0.31452  0.03702  0.49359  1.0000
  C   C630      1.0  0.10147  0.02164  0.65129  1.0000
  H   H507      1.0  0.13045  0.24151  0.70399  1.0000
  C   C631      1.0  0.18671  0.06132  0.64039  1.0000
  C   C632      1.0  0.05983  0.01396  0.66101  1.0000
  P   P25       1.0  0.30390  0.99235  0.68363  1.0000
  H   H508      1.0  0.35867  0.01193  0.52795  1.0000
  H   H509      1.0  0.29651  0.26627  0.56217  1.0000
  H   H510      1.0  0.45412  0.13333  0.68633  1.0000
  C   C633      1.0  0.39115  0.24086  0.66224  1.0000
  C   C634      1.0  0.23485  0.02894  0.67720  1.0000
  C   C635      1.0  0.15971  0.20192  0.48111  1.0000
  H   H511      1.0  0.16708  0.02792  0.58853  1.0000
  H   H512      1.0  0.12879  0.02601  0.58130  1.0000
  H   H513      1.0  0.46752  0.14103  0.65111  1.0000
  C   C636      1.0  0.45271  0.02857  0.59741  1.0000
  C   C637      1.0  0.10194  0.24537  0.53514  1.0000
  H   H514      1.0  0.35650  0.31301  0.64353  1.0000
  H   H515      1.0  0.09162  0.01929  0.59990  1.0000
  H   H516      1.0  0.40806  0.99785  0.68675  1.0000
  H   H517      1.0  0.40233  0.14816  0.72272  1.0000
  H   H518      1.0  0.16883  0.02199  0.61409  1.0000
  C   C638      1.0  0.15106  0.25788  0.72439  1.0000
  H   H519      1.0  0.04263  0.25886  0.50364  1.0000
  C   C639      1.0  0.21253  0.00419  0.48612  1.0000
  H   H520      1.0  0.35032  0.00921  0.66923  1.0000
  C   C640      1.0  0.17218  0.02294  0.64907  1.0000
  C   C641      1.0  0.35218  0.24018  0.71779  1.0000
  H   H521      1.0  0.27147  0.03619  0.67109  1.0000
  C   C642      1.0  0.19459  0.30357  0.72167  1.0000
  H   H522      1.0  0.21679  0.21867  0.71566  1.0000
  H   H523      1.0  0.05698  0.02398  0.57334  1.0000
  H   H524      1.0  0.99727  0.29890  0.68405  1.0000
  C   C643      1.0  0.31258  0.99372  0.50141  1.0000
  C   C644      1.0  0.25558  0.98354  0.69233  1.0000
  C   C645      1.0  0.48019  0.02622  0.54807  1.0000
  C   C646      1.0  0.27949  0.98357  0.56141  1.0000
  C   C647      1.0  0.33497  0.16498  0.71649  1.0000
  C   C648      1.0  0.28598  0.30137  0.59325  1.0000
  C   C649      1.0  0.02759  0.31436  0.68559  1.0000
  C   C650      1.0  0.14223  0.31434  0.66562  1.0000
  C   C651      1.0  0.01935  0.24996  0.70618  1.0000
  C   C652      1.0  0.35227  0.10630  0.48546  1.0000
  H   H525      1.0  0.28286  0.31155  0.60179  1.0000
  C   C653      1.0  0.00883  0.31228  0.67907  1.0000
  C   C654      1.0  0.26616  0.99557  0.55055  1.0000
  C   C655      1.0  0.30656  0.98838  0.65518  1.0000
  H   H526      1.0  0.17223  0.18902  0.48746  1.0000
  C   C656      1.0  0.11918  0.99220  0.50034  1.0000
  H   H527      1.0  0.20972  0.28868  0.72422  1.0000
  C   C657      1.0  0.22235  0.98914  0.60902  1.0000
  H   H528      1.0  0.27813  0.30078  0.71958  1.0000
  C   C658      1.0  0.12199  0.23260  0.47972  1.0000
  H   H529      1.0  0.30827  0.98522  0.63337  1.0000
  C   C659      1.0  0.27495  0.99109  0.53655  1.0000
  H   H530      1.0  0.19550  0.30996  0.67679  1.0000
  H   H531      1.0  0.49147  0.13214  0.69511  1.0000
  H   H532      1.0  0.22059  0.98594  0.65513  1.0000
  C   C660      1.0  0.32301  0.99025  0.48726  1.0000
  H   H533      1.0  0.48985  0.08864  0.61699  1.0000
  H   H534      1.0  0.13363  0.30427  0.66078  1.0000
  C   C661      1.0  0.00317  0.23350  0.71056  1.0000
  H   H535      1.0  0.39183  0.28064  0.47821  1.0000
  C   C662      1.0  0.48434  0.14039  0.65470  1.0000
  C   C663      1.0  0.48722  0.16027  0.65971  1.0000
  C   C664      1.0  0.16606  0.30476  0.66832  1.0000
  C   C665      1.0  0.05324  0.30335  0.56211  1.0000
  H   H536      1.0  0.08919  0.30943  0.55033  1.0000
  H   H537      1.0  0.26695  0.02443  0.47580  1.0000
  H   H538      1.0  0.23137  0.30856  0.49376  1.0000
  C   C666      1.0  0.35668  0.09220  0.47487  1.0000
  C   C667      1.0  0.06856  0.22457  0.47772  1.0000
  C   C668      1.0  0.04743  0.21710  0.47673  1.0000
  P   P26       1.0  0.20170  0.29967  0.76979  1.0000
  Fe  Fe46      1.0  0.02734  0.16780  0.95051  1.0000
  S   S84       1.0  0.04720  0.17768  0.92771  1.0000
  C   C669      1.0  0.26331  0.27957  0.73985  1.0000
  H   H539      1.0  0.01970  0.28345  0.73467  1.0000
  S   S85       1.0  0.00851  0.23085  0.92588  1.0000
  H   H540      1.0  0.25443  0.25556  0.87407  1.0000
  S   S86       1.0  0.14612  0.31013  0.85738  1.0000
  C   C670      1.0  0.47465  0.26328  0.92901  1.0000
  Fe  Fe47      1.0  0.04439  0.21425  0.93329  1.0000
  S   S87       1.0  0.07937  0.22921  0.92790  1.0000
  C   C671      1.0  0.34353  0.17765  0.77940  1.0000
  S   S88       1.0  0.02698  0.20333  0.95652  1.0000
  C   C672      1.0  0.48375  0.22592  0.80816  1.0000
  C   C673      1.0  0.04822  0.13953  0.89789  1.0000
  C   C674      1.0  0.37760  0.25263  0.76128  1.0000
  H   H541      1.0  0.18604  0.20282  0.73633  1.0000
  C   C675      1.0  0.18746  0.27328  0.77318  1.0000
  S   S89       1.0  0.14816  0.07694  0.95569  1.0000
  S   S90       1.0  0.41941  0.23504  0.72717  1.0000
  C   C676      1.0  0.40352  0.99136  0.84346  1.0000
  S   S91       1.0  0.41213  0.04387  0.86237  1.0000
  H   H542      1.0  0.42608  0.99104  0.78364  1.0000
  S   S92       1.0  0.37325  0.08988  0.88669  1.0000
  Fe  Fe48      1.0  0.33792  0.20859  0.91797  1.0000
  S   S93       1.0  0.33299  0.19274  0.94171  1.0000
  S   S94       1.0  0.37000  0.19239  0.90193  1.0000
  Fe  Fe49      1.0  0.29573  0.25212  0.92207  1.0000
  S   S95       1.0  0.28850  0.23996  0.94610  1.0000
  S   S96       1.0  0.27050  0.28665  0.91319  1.0000
  Fe  Fe50      1.0  0.32963  0.23165  0.94416  1.0000
  S   S97       1.0  0.34968  0.23697  0.96045  1.0000
  Fe  Fe51      1.0  0.29234  0.20242  0.94156  1.0000
  S   S98       1.0  0.25988  0.18445  0.95385  1.0000
  S   S99       1.0  0.33666  0.24704  0.92044  1.0000
  S   S100      1.0  0.29760  0.21520  0.91745  1.0000
  Fe  Fe52      1.0  0.44261  0.21014  0.74292  1.0000
  H   H543      1.0  0.05937  0.00396  0.90473  1.0000
  C   C677      1.0  0.46710  0.25789  0.78975  1.0000
  Fe  Fe53      1.0  0.44126  0.17964  0.77280  1.0000
  H   H544      1.0  0.36787  0.14524  0.74342  1.0000
  S   S101      1.0  0.41566  0.17046  0.79399  1.0000
  H   H545      1.0  0.46026  0.15146  0.96218  1.0000
  H   H546      1.0  0.32994  0.12176  0.78151  1.0000
  Fe  Fe54      1.0  0.47774  0.16106  0.74752  1.0000
  C   C678      1.0  0.17750  0.25690  0.82786  1.0000
  S   S102      1.0  0.44449  0.21895  0.76394  1.0000
  S   S103      1.0  0.43651  0.17188  0.75224  1.0000
  S   S104      1.0  0.07881  0.23889  0.77699  1.0000
  H   H547      1.0  0.12881  0.17078  0.94374  1.0000
  C   C679      1.0  0.20645  0.30787  0.80968  1.0000
  Fe  Fe55      1.0  0.16836  0.06073  0.97423  1.0000
  P   P27       1.0  0.42253  0.99192  0.81437  1.0000
  C   C680      1.0  0.16975  0.26873  0.78580  1.0000
  C   C681      1.0  0.01999  0.19403  0.79577  1.0000
  C   C682      1.0  0.26364  0.30068  0.72912  1.0000
  C   C683      1.0  0.34186  0.22263  0.72870  1.0000
  H   H548      1.0  0.35798  0.17562  0.82950  1.0000
  C   C684      1.0  0.04737  0.02122  0.90662  1.0000
  H   H549      1.0  0.39593  0.25439  0.76167  1.0000
  H   H550      1.0  0.40050  0.14293  0.76989  1.0000
  H   H551      1.0  0.21943  0.15962  0.96384  1.0000
  S   S105      1.0  0.13633  0.22344  0.74802  1.0000
  H   H552      1.0  0.37491  0.28100  0.74237  1.0000
  H   H553      1.0  0.20467  0.26202  0.75268  1.0000
  H   H554      1.0  0.38073  0.18480  0.77328  1.0000
  H   H555      1.0  0.28284  0.22307  0.80375  1.0000
  H   H556      1.0  0.30976  0.16320  0.78577  1.0000
  H   H557      1.0  0.23890  0.22906  0.80274  1.0000
  H   H558      1.0  0.02052  0.01812  0.89517  1.0000
  C   C685      1.0  0.33978  0.15725  0.73046  1.0000
  C   C686      1.0  0.39688  0.15826  0.94652  1.0000
  H   H559      1.0  0.16490  0.28053  0.79364  1.0000
  H   H560      1.0  0.15254  0.30943  0.76225  1.0000
  C   C687      1.0  0.42684  0.03880  0.79870  1.0000
  C   C688      1.0  0.21799  0.30328  0.88884  1.0000
  H   H561      1.0  0.00340  0.08195  0.91403  1.0000
  S   S106      1.0  0.48399  0.19893  0.73654  1.0000
  H   H562      1.0  0.46736  0.08817  0.79688  1.0000
  C   C689      1.0  0.47098  0.28674  0.93200  1.0000
  H   H563      1.0  0.14257  0.24690  0.79746  1.0000
  C   C690      1.0  0.37277  0.11758  0.89179  1.0000
  C   C691      1.0  0.35001  0.13228  0.89648  1.0000
  C   C692      1.0  0.34898  0.15509  0.89987  1.0000
  C   C693      1.0  0.37075  0.16333  0.89853  1.0000
  C   C694      1.0  0.39354  0.14849  0.89401  1.0000
  C   C695      1.0  0.39457  0.12566  0.89068  1.0000
  H   H564      1.0  0.33311  0.12628  0.89711  1.0000
  H   H565      1.0  0.33137  0.16662  0.90312  1.0000
  H   H566      1.0  0.41050  0.15453  0.89318  1.0000
  H   H567      1.0  0.41221  0.11444  0.88712  1.0000
  C   C696      1.0  0.44374  0.09301  0.81728  1.0000
  C   C697      1.0  0.42469  0.10878  0.82455  1.0000
  C   C698      1.0  0.41536  0.13228  0.81720  1.0000
  C   C699      1.0  0.42524  0.14007  0.80264  1.0000
  C   C700      1.0  0.44355  0.12389  0.79525  1.0000
  C   C701      1.0  0.45279  0.10042  0.80257  1.0000
  H   H568      1.0  0.41735  0.10286  0.83584  1.0000
  H   H569      1.0  0.40095  0.14465  0.82285  1.0000
  H   H570      1.0  0.45089  0.12954  0.78394  1.0000
  H   H571      1.0  0.45844  0.29139  0.94168  1.0000
  C   C702      1.0  0.39003  0.22922  0.72756  1.0000
  C   C703      1.0  0.46713  0.23486  0.79874  1.0000
  C   C704      1.0  0.25917  0.15288  0.95962  1.0000
  C   C705      1.0  0.28063  0.13492  0.96036  1.0000
  H   H572      1.0  0.25087  0.28031  0.77812  1.0000
  C   C706      1.0  0.39168  0.28224  0.96464  1.0000
  C   C707      1.0  0.47996  0.12309  0.83713  1.0000
  S   S107      1.0  0.99774  0.18969  0.90249  1.0000
  C   C708      1.0  0.02552  0.02917  0.90123  1.0000
  C   C709      1.0  0.08333  0.30281  0.89713  1.0000
  C   C710      1.0  0.08330  0.12237  0.95022  1.0000
  C   C711      1.0  0.10771  0.10942  0.94788  1.0000
  C   C712      1.0  0.11705  0.09182  0.95900  1.0000
  H   H573      1.0  0.05866  0.28147  0.94239  1.0000
  C   C713      1.0  0.12715  0.14395  0.96351  1.0000
  H   H574      1.0  0.07651  0.13623  0.94170  1.0000
  H   H575      1.0  0.11945  0.11349  0.93750  1.0000
  H   H576      1.0  0.45461  0.26456  0.78221  1.0000
  H   H577      1.0  0.31922  0.24905  0.79775  1.0000
  H   H578      1.0  0.01058  0.19032  0.87245  1.0000
  H   H579      1.0  0.35201  0.04891  0.83722  1.0000
  Fe  Fe56      1.0  0.48530  0.20418  0.75850  1.0000
  C   C714      1.0  0.36401  0.26246  0.95755  1.0000
  C   C715      1.0  0.35990  0.28278  0.94648  1.0000
  C   C716      1.0  0.33372  0.20996  0.80049  1.0000
  H   H580      1.0  0.34583  0.21610  0.83699  1.0000
  C   C717      1.0  0.36566  0.26781  0.75045  1.0000
  H   H581      1.0  0.34770  0.28311  0.93943  1.0000
  C   C718      1.0  0.16202  0.23483  0.77779  1.0000
  C   C719      1.0  0.22636  0.28648  0.87961  1.0000
  H   H582      1.0  0.35614  0.02729  0.86212  1.0000
  H   H583      1.0  0.12171  0.02834  0.95981  1.0000
  C   C720      1.0  0.25329  0.28549  0.90061  1.0000
  C   C721      1.0  0.26127  0.26809  0.89169  1.0000
  C   C722      1.0  0.24784  0.26864  0.88118  1.0000
  C   C723      1.0  0.36856  0.02054  0.85296  1.0000
  C   C724      1.0  0.05367  0.03529  0.91463  1.0000
  H   H584      1.0  0.27811  0.25468  0.89263  1.0000
  C   C725      1.0  0.32949  0.15938  0.78190  1.0000
  C   C726      1.0  0.10473  0.28699  0.90075  1.0000
  C   C727      1.0  0.10309  0.26477  0.91053  1.0000
  C   C728      1.0  0.08020  0.25799  0.91645  1.0000
  C   C729      1.0  0.05868  0.27404  0.91307  1.0000
  H   H585      1.0  0.49120  0.00447  0.83267  1.0000
  H   H586      1.0  0.12248  0.29200  0.89607  1.0000
  H   H587      1.0  0.11962  0.25264  0.91340  1.0000
  H   H588      1.0  0.04091  0.26909  0.91775  1.0000
  C   C730      1.0  0.39479  0.15097  0.93412  1.0000
  C   C731      1.0  0.47652  0.13034  0.92358  1.0000
  Fe  Fe57      1.0  0.08093  0.30506  0.75560  1.0000
  P   P28       1.0  0.42046  0.17534  0.94575  1.0000
  C   C732      1.0  0.01619  0.06533  0.91180  1.0000
  Fe  Fe58      1.0  0.48414  0.31542  0.96320  1.0000
  C   C733      1.0  0.37995  0.26230  0.96662  1.0000
  H   H589      1.0  0.02054  0.10585  0.88181  1.0000
  S   S108      1.0  0.03680  0.13271  0.96642  1.0000
  H   H590      1.0  0.13085  0.03464  0.93322  1.0000
  H   H591      1.0  0.48006  0.10378  0.87095  1.0000
  C   C734      1.0  0.19777  0.30861  0.79729  1.0000
  H   H592      1.0  0.02441  0.19730  0.78408  1.0000
  H   H593      1.0  0.47648  0.24860  0.83477  1.0000
  H   H594      1.0  0.42654  0.10247  0.73316  1.0000
  H   H595      1.0  0.06626  0.28573  0.96561  1.0000
  H   H596      1.0  0.18298  0.22800  0.75718  1.0000
  C   C735      1.0  0.06408  0.05519  0.95336  1.0000
  C   C736      1.0  0.15746  0.23490  0.73304  1.0000
  H   H597      1.0  0.14267  0.13078  0.95920  1.0000
  C   C737      1.0  0.10498  0.29025  0.82431  1.0000
  C   C738      1.0  0.34229  0.26520  0.74963  1.0000
  S   S109      1.0  0.05256  0.29668  0.77553  1.0000
  C   C739      1.0  0.48427  0.11148  0.73146  1.0000
  C   C740      1.0  0.17186  0.30553  0.73118  1.0000
  H   H598      1.0  0.38175  0.15654  0.96938  1.0000
  S   S110      1.0  0.43231  0.03881  0.89194  1.0000
  C   C741      1.0  0.41482  0.24995  0.93301  1.0000
  S   S111      1.0  0.31095  0.21979  0.73048  1.0000
  C   C742      1.0  0.48552  0.99312  0.82709  1.0000
  H   H599      1.0  0.01500  0.30719  0.75344  1.0000
  H   H600      1.0  0.46896  0.20116  0.88775  1.0000
  C   C743      1.0  0.47494  0.14712  0.81359  1.0000
  H   H601      1.0  0.25893  0.20898  0.76105  1.0000
  H   H602      1.0  0.03718  0.19036  0.74130  1.0000
  C   C744      1.0  0.40181  0.00387  0.82935  1.0000
  H   H603      1.0  0.37540  0.11137  0.77366  1.0000
  C   C745      1.0  0.44967  0.16273  0.93543  1.0000
  S   S112      1.0  0.11284  0.28158  0.76530  1.0000
  H   H604      1.0  0.11038  0.30746  0.78797  1.0000
  H   H605      1.0  0.16935  0.29221  0.74110  1.0000
  H   H606      1.0  0.42118  0.27332  0.82270  1.0000
  H   H607      1.0  0.47508  0.99473  0.75965  1.0000
  C   C746      1.0  0.23143  0.30281  0.89926  1.0000
  C   C747      1.0  0.19257  0.11567  0.93523  1.0000
  C   C748      1.0  0.17536  0.11997  0.92638  1.0000
  C   C749      1.0  0.17606  0.13865  0.91414  1.0000
  C   C750      1.0  0.19453  0.15257  0.91049  1.0000
  C   C751      1.0  0.21239  0.14779  0.91905  1.0000
  C   C752      1.0  0.21090  0.12967  0.93168  1.0000
  P   P29       1.0  0.23646  0.16541  0.91434  1.0000
  C   C753      1.0  0.26440  0.14517  0.91898  1.0000
  C   C754      1.0  0.24217  0.17746  0.89514  1.0000
  C   C755      1.0  0.26012  0.16420  0.88570  1.0000
  C   C756      1.0  0.26521  0.17416  0.87096  1.0000
  C   C757      1.0  0.25254  0.19745  0.86554  1.0000
  C   C758      1.0  0.23455  0.21066  0.87483  1.0000
  C   C759      1.0  0.22913  0.20060  0.88951  1.0000
  C   C760      1.0  0.26962  0.12039  0.91768  1.0000
  C   C761      1.0  0.29126  0.10482  0.92125  1.0000
  C   C762      1.0  0.30801  0.11392  0.92593  1.0000
  C   C763      1.0  0.30316  0.13861  0.92698  1.0000
  C   C764      1.0  0.28136  0.15409  0.92364  1.0000
  C   C765      1.0  0.22714  0.19059  0.92395  1.0000
  C   C766      1.0  0.23802  0.21139  0.91883  1.0000
  C   C767      1.0  0.23113  0.23075  0.92632  1.0000
  C   C768      1.0  0.21324  0.22962  0.93893  1.0000
  C   C769      1.0  0.20199  0.20921  0.94398  1.0000
  C   C770      1.0  0.20895  0.18971  0.93658  1.0000
  H   H608      1.0  0.19182  0.10129  0.94482  1.0000
  H   H609      1.0  0.16158  0.10866  0.92902  1.0000
  H   H610      1.0  0.16237  0.14216  0.90748  1.0000
  H   H611      1.0  0.19497  0.16690  0.90099  1.0000
  H   H612      1.0  0.22406  0.12614  0.93872  1.0000
  H   H613      1.0  0.27051  0.14635  0.88968  1.0000
  H   H614      1.0  0.27933  0.16395  0.86378  1.0000
  H   H615      1.0  0.25688  0.20541  0.85419  1.0000
  H   H616      1.0  0.22523  0.22905  0.87077  1.0000
  H   H617      1.0  0.21525  0.21126  0.89649  1.0000
  H   H618      1.0  0.25698  0.11300  0.91398  1.0000
  H   H619      1.0  0.29509  0.08567  0.92042  1.0000
  H   H620      1.0  0.32485  0.10190  0.92861  1.0000
  H   H621      1.0  0.31613  0.14576  0.93057  1.0000
  H   H622      1.0  0.27759  0.17286  0.92497  1.0000
  H   H623      1.0  0.25217  0.21251  0.90917  1.0000
  H   H624      1.0  0.24017  0.24637  0.92258  1.0000
  H   H625      1.0  0.20853  0.24433  0.94492  1.0000
  H   H626      1.0  0.18849  0.20813  0.95387  1.0000
  H   H627      1.0  0.20052  0.17382  0.94097  1.0000
  H   H628      1.0  0.04508  0.22219  0.75216  1.0000
  C   C771      1.0  0.35586  0.20811  0.73886  1.0000
  C   C772      1.0  0.33098  0.24717  0.75951  1.0000
  C   C773      1.0  0.10280  0.29000  0.81030  1.0000
  C   C774      1.0  0.36635  0.03279  0.83893  1.0000
  H   H629      1.0  0.14616  0.24981  0.82192  1.0000
  C   C775      1.0  0.41892  0.22596  0.94092  1.0000
  C   C776      1.0  0.02390  0.16747  0.81892  1.0000
  C   C777      1.0  0.28912  0.20886  0.77083  1.0000
  C   C778      1.0  0.06942  0.14629  0.89921  1.0000
  H   H630      1.0  0.33339  0.27646  0.74094  1.0000
  C   C779      1.0  0.18110  0.22069  0.72973  1.0000
  H   H631      1.0  0.43013  0.02306  0.76160  1.0000
  C   C780      1.0  0.36355  0.13728  0.96025  1.0000
  H   H632      1.0  0.32657  0.25267  0.82111  1.0000
  H   H633      1.0  0.07036  0.02833  0.91894  1.0000
  C   C781      1.0  0.49152  0.25702  0.91683  1.0000
  H   H634      1.0  0.29840  0.14025  0.95750  1.0000
  C   C782      1.0  0.99948  0.20867  0.81782  1.0000
  H   H635      1.0  0.09774  0.05463  0.91935  1.0000
  C   C783      1.0  0.34310  0.23138  0.77026  1.0000
  C   C784      1.0  0.41260  0.20688  0.93660  1.0000
  H   H636      1.0  0.06686  0.28659  0.86694  1.0000
  C   C785      1.0  0.00991  0.05120  0.90386  1.0000
  C   C786      1.0  0.06025  0.29655  0.90350  1.0000
  H   H637      1.0  0.40392  0.28204  0.97161  1.0000
  H   H638      1.0  0.48330  0.20810  0.81509  1.0000
  H   H639      1.0  0.04592  0.06158  0.95932  1.0000
  C   C787      1.0  0.41709  0.25609  0.82213  1.0000
  C   C788      1.0  0.42974  0.05665  0.78612  1.0000
  C   C789      1.0  0.19215  0.25842  0.76286  1.0000
  Fe  Fe59      1.0  0.44661  0.05744  0.85055  1.0000
  H   H640      1.0  0.08689  0.10005  0.92601  1.0000
  H   H641      1.0  0.30291  0.20310  0.76182  1.0000
  H   H642      1.0  0.48655  0.30599  0.88281  1.0000
  C   C790      1.0  0.00327  0.14995  0.85359  1.0000
  H   H643      1.0  0.40103  0.27380  0.91475  1.0000
  C   C791      1.0  0.17150  0.25660  0.89841  1.0000
  C   C792      1.0  0.17281  0.23888  0.91099  1.0000
  C   C793      1.0  0.16486  0.21696  0.91251  1.0000
  C   C794      1.0  0.15589  0.21267  0.90135  1.0000
  C   C795      1.0  0.15519  0.23011  0.88846  1.0000
  C   C796      1.0  0.16227  0.25245  0.88732  1.0000
  P   P30       1.0  0.14256  0.22483  0.87436  1.0000
  C   C797      1.0  0.14919  0.19229  0.87454  1.0000
  C   C798      1.0  0.10981  0.23698  0.87800  1.0000
  C   C799      1.0  0.09414  0.22414  0.88905  1.0000
  C   C800      1.0  0.06867  0.23311  0.89156  1.0000
  C   C801      1.0  0.05876  0.25535  0.88339  1.0000
  C   C802      1.0  0.07436  0.26876  0.87280  1.0000
  C   C803      1.0  0.09980  0.25970  0.87015  1.0000
  C   C804      1.0  0.13125  0.18042  0.87310  1.0000
  C   C805      1.0  0.13684  0.15515  0.87332  1.0000
  C   C806      1.0  0.16049  0.14171  0.87464  1.0000
  C   C807      1.0  0.17866  0.15357  0.87558  1.0000
  C   C808      1.0  0.17308  0.17879  0.87545  1.0000
  C   C809      1.0  0.15636  0.23786  0.85627  1.0000
  C   C810      1.0  0.17899  0.24557  0.85329  1.0000
  C   C811      1.0  0.18929  0.25542  0.83917  1.0000
  C   C812      1.0  0.15543  0.24851  0.83067  1.0000
  C   C813      1.0  0.14489  0.23901  0.84479  1.0000
  H   H644      1.0  0.17722  0.27383  0.89730  1.0000
  H   H645      1.0  0.17956  0.24240  0.91964  1.0000
  H   H646      1.0  0.16519  0.20353  0.92245  1.0000
  H   H647      1.0  0.14903  0.19597  0.90292  1.0000
  H   H648      1.0  0.16044  0.26687  0.87796  1.0000
  H   H649      1.0  0.10157  0.20743  0.89591  1.0000
  H   H650      1.0  0.05671  0.22336  0.90027  1.0000
  H   H651      1.0  0.03913  0.26269  0.88568  1.0000
  C   C814      1.0  0.00656  0.23724  0.75868  1.0000
  H   H652      1.0  0.11157  0.27076  0.86218  1.0000
  H   H653      1.0  0.11304  0.19058  0.87166  1.0000
  H   H654      1.0  0.12288  0.14602  0.87233  1.0000
  H   H655      1.0  0.16482  0.12214  0.87476  1.0000
  H   H656      1.0  0.19710  0.14320  0.87640  1.0000
  H   H657      1.0  0.18741  0.18783  0.87603  1.0000
  H   H658      1.0  0.18870  0.24429  0.86177  1.0000
  H   H659      1.0  0.20627  0.26218  0.83709  1.0000
  H   H660      1.0  0.12766  0.23278  0.84675  1.0000
  H   H661      1.0  0.18533  0.26465  0.81694  1.0000
  H   H662      1.0  0.15160  0.22055  0.77926  1.0000
  Fe  Fe60      1.0  0.46518  0.05339  0.87790  1.0000
  C   C815      1.0  0.38060  0.14767  0.77295  1.0000
  C   C816      1.0  0.38274  0.02433  0.82713  1.0000
  C   C817      1.0  0.07624  0.11037  0.91795  1.0000
  S   S113      1.0  0.44282  0.08460  0.86460  1.0000
  H   H663      1.0  0.48824  0.10651  0.84376  1.0000
  S   S114      1.0  0.47171  0.02732  0.86269  1.0000
  Fe  Fe61      1.0  0.10513  0.25163  0.75689  1.0000
  C   C818      1.0  0.36923  0.17151  0.77494  1.0000
  C   C819      1.0  0.45858  0.11428  0.73519  1.0000
  C   C820      1.0  0.02076  0.30269  0.73146  1.0000
  C   C821      1.0  0.34478  0.18930  0.80954  1.0000
  C   C822      1.0  0.46109  0.99809  0.82524  1.0000
  C   C823      1.0  0.99794  0.10210  0.86796  1.0000
  H   H664      1.0  0.09943  0.13732  0.91068  1.0000
  H   H665      1.0  0.02557  0.14755  0.86924  1.0000
  C   C824      1.0  0.27798  0.22021  0.79430  1.0000
  H   H666      1.0  0.40667  0.15595  0.92384  1.0000
  C   C825      1.0  0.38098  0.15126  0.95961  1.0000
  S   S115      1.0  0.08892  0.26754  0.80747  1.0000
  C   C826      1.0  0.11941  0.16644  0.95483  1.0000
  C   C827      1.0  0.27903  0.10995  0.96477  1.0000
  C   C828      1.0  0.00502  0.21258  0.80276  1.0000
  H   H667      1.0  0.44094  0.12730  0.93663  1.0000
  C   C829      1.0  0.48571  0.12585  0.82215  1.0000
  S   S116      1.0  0.25468  0.07131  0.97407  1.0000
  H   H668      1.0  0.21672  0.11577  0.97142  1.0000
  H   H669      1.0  0.07918  0.04155  0.97272  1.0000
  C   C830      1.0  0.38729  0.30269  0.95372  1.0000
  C   C831      1.0  0.29629  0.21295  0.78275  1.0000
  H   H670      1.0  0.03191  0.15013  0.82501  1.0000
  C   C832      1.0  0.10154  0.08656  0.97236  1.0000
  H   H671      1.0  0.02425  0.11370  0.90551  1.0000
  C   C833      1.0  0.46806  0.17692  0.93025  1.0000
  S   S117      1.0  0.21045  0.28770  0.86592  1.0000
  C   C834      1.0  0.02181  0.20302  0.74614  1.0000
  H   H672      1.0  0.46530  0.19493  0.93278  1.0000
  H   H673      1.0  0.32460  0.15629  0.73958  1.0000
  C   C835      1.0  0.15704  0.24964  0.78805  1.0000
  H   H674      1.0  0.39020  0.20035  0.74630  1.0000
  H   H675      1.0  0.42697  0.22251  0.95037  1.0000
  C   C836      1.0  0.36185  0.12998  0.94789  1.0000
  C   C837      1.0  0.44550  0.16195  0.96887  1.0000
  H   H676      1.0  0.27747  0.26330  0.73855  1.0000
  C   C838      1.0  0.45436  0.13903  0.93239  1.0000
  C   C839      1.0  0.17967  0.23914  0.76527  1.0000
  H   H677      1.0  0.38659  0.98571  0.79888  1.0000
  C   C840      1.0  0.49031  0.16797  0.92170  1.0000
  C   C841      1.0  0.01725  0.08468  0.94052  1.0000
  S   S118      1.0  0.20563  0.03641  0.96943  1.0000
  C   C842      1.0  0.37988  0.21127  0.73824  1.0000
  C   C843      1.0  0.39912  0.23616  0.91603  1.0000
  C   C844      1.0  0.47543  0.19640  0.86580  1.0000
  H   H678      1.0  0.35062  0.17154  0.80641  1.0000
  H   H679      1.0  0.47707  0.19022  0.84470  1.0000
  S   S119      1.0  0.99269  0.17750  0.73915  1.0000
  C   C845      1.0  0.00861  0.18599  0.82601  1.0000
  C   C846      1.0  0.44640  0.10037  0.73015  1.0000
  H   H680      1.0  0.09739  0.27726  0.83331  1.0000
  C   C847      1.0  0.06769  0.11704  0.96349  1.0000
  C   C848      1.0  0.48364  0.27204  0.79020  1.0000
  S   S120      1.0  0.48205  0.16535  0.76902  1.0000
  C   C849      1.0  0.01489  0.13828  0.86533  1.0000
  C   C850      1.0  0.01218  0.11447  0.87249  1.0000
  H   H681      1.0  0.31322  0.24526  0.75830  1.0000
  S   S121      1.0  0.01123  0.25911  0.76732  1.0000
  C   C851      1.0  0.37749  0.13679  0.93485  1.0000
  C   C852      1.0  0.02764  0.19281  0.84995  1.0000
  C   C853      1.0  0.02573  0.19561  0.86413  1.0000
  C   C854      1.0  0.04287  0.20598  0.86761  1.0000
  C   C855      1.0  0.06193  0.21408  0.85689  1.0000
  C   C856      1.0  0.06400  0.21152  0.84271  1.0000
  C   C857      1.0  0.04704  0.20082  0.83924  1.0000
  H   H682      1.0  0.38893  0.99032  0.86609  1.0000
  H   H683      1.0  0.34824  0.11928  0.94839  1.0000
  H   H684      1.0  0.37607  0.22289  0.77946  1.0000
  H   H685      1.0  0.03675  0.15141  0.89059  1.0000
  C   C858      1.0  0.02952  0.17151  0.80384  1.0000
  C   C859      1.0  0.47997  0.98302  0.73958  1.0000
  H   H686      1.0  0.37611  0.13118  0.92525  1.0000
  H   H687      1.0  0.02475  0.30960  0.93177  1.0000
  C   C860      1.0  0.33147  0.23497  0.81790  1.0000
  H   H688      1.0  0.35113  0.13231  0.97032  1.0000
  C   C861      1.0  0.42408  0.17520  0.96373  1.0000
  S   S122      1.0  0.07565  0.27600  0.74534  1.0000
  P   P31       1.0  0.00362  0.18190  0.84538  1.0000
  H   H689      1.0  0.04085  0.20829  0.87860  1.0000
  H   H690      1.0  0.07478  0.22281  0.85949  1.0000
  H   H691      1.0  0.07838  0.21842  0.83428  1.0000
  H   H692      1.0  0.04889  0.19955  0.82811  1.0000
  H   H693      1.0  0.22668  0.22178  0.78155  1.0000
  C   C862      1.0  0.05516  0.10313  0.91652  1.0000
  H   H694      1.0  0.41885  0.26475  0.93667  1.0000
  C   C863      1.0  0.34090  0.13568  0.77964  1.0000
  C   C864      1.0  0.21357  0.29898  0.78562  1.0000
  C   C865      1.0  0.22601  0.30021  0.75384  1.0000
  H   H695      1.0  0.48104  0.99178  0.91020  1.0000
  C   C866      1.0  0.02633  0.22106  0.75224  1.0000
  C   C867      1.0  0.48428  0.30393  0.92282  1.0000
  H   H696      1.0  0.34800  0.19459  0.74734  1.0000
  C   C868      1.0  0.42457  0.01516  0.79808  1.0000
  C   C869      1.0  0.40296  0.21223  0.92399  1.0000
  C   C870      1.0  0.36647  0.12980  0.77521  1.0000
  C   C871      1.0  0.43073  0.05100  0.77278  1.0000
  C   C872      1.0  0.42901  0.02741  0.77201  1.0000
  C   C873      1.0  0.42633  0.00942  0.78457  1.0000
  C   C874      1.0  0.10694  0.03637  0.95381  1.0000
  H   H697      1.0  0.38050  0.03381  0.81635  1.0000
  C   C875      1.0  0.11231  0.30715  0.79877  1.0000
  S   S123      1.0  0.45686  0.06412  0.82633  1.0000
  Fe  Fe62      1.0  0.08416  0.27106  0.78457  1.0000
  C   C876      1.0  0.25297  0.22348  0.79382  1.0000
  H   H698      1.0  0.44832  0.01334  0.82940  1.0000
  H   H699      1.0  0.24447  0.26266  0.76018  1.0000
  C   C877      1.0  0.24605  0.21938  0.78189  1.0000
  C   C878      1.0  0.24459  0.27931  0.75213  1.0000
  C   C879      1.0  0.37143  0.30283  0.94462  1.0000
  C   C880      1.0  0.38705  0.99974  0.85521  1.0000
  H   H700      1.0  0.44809  0.12694  0.74206  1.0000
  P   P32       1.0  0.32882  0.20791  0.78319  1.0000
  C   C881      1.0  0.34232  0.21433  0.82688  1.0000
  H   H701      1.0  0.04363  0.30892  0.90080  1.0000
  C   C882      1.0  0.23614  0.14580  0.96391  1.0000
  H   H702      1.0  0.39942  0.27166  0.80381  1.0000
  H   H703      1.0  0.43328  0.06479  0.76300  1.0000
  C   C883      1.0  0.48308  0.25370  0.85455  1.0000
  H   H704      1.0  0.02554  0.11921  0.94144  1.0000
  H   H705      1.0  0.42680  0.04341  0.80889  1.0000
  H   H706      1.0  0.45453  0.22377  0.79821  1.0000
  Fe  Fe63      1.0  0.41034  0.06831  0.87769  1.0000
  Fe  Fe64      1.0  0.43684  0.01538  0.87554  1.0000
  C   C884      1.0  0.26415  0.21211  0.77038  1.0000
  C   C885      1.0  0.02742  0.31152  0.94205  1.0000
  H   H707      1.0  0.07445  0.16329  0.89283  1.0000
  C   C886      1.0  0.46080  0.19887  0.87929  1.0000
  C   C887      1.0  0.32728  0.23283  0.80473  1.0000
  Fe  Fe65      1.0  0.04968  0.26545  0.76608  1.0000
  H   H708      1.0  0.39128  0.24002  0.90643  1.0000
  C   C888      1.0  0.40478  0.25518  0.81149  1.0000
  C   C889      1.0  0.39963  0.23293  0.81068  1.0000
  C   C890      1.0  0.40668  0.21164  0.82052  1.0000
  C   C891      1.0  0.41929  0.21233  0.83113  1.0000
  C   C892      1.0  0.42436  0.23474  0.83192  1.0000
  P   P33       1.0  0.42787  0.18459  0.84379  1.0000
  C   C893      1.0  0.39988  0.17273  0.85146  1.0000
  C   C894      1.0  0.45132  0.16236  0.83507  1.0000
  C   C895      1.0  0.46294  0.14133  0.84358  1.0000
  C   C896      1.0  0.08345  0.13170  0.90924  1.0000
  H   H709      1.0  0.00410  0.05108  0.94299  1.0000
  C   C897      1.0  0.36636  0.23459  0.77121  1.0000
  C   C898      1.0  0.45774  0.16529  0.81999  1.0000
  C   C899      1.0  0.39925  0.14827  0.85174  1.0000
  C   C900      1.0  0.37716  0.13972  0.85684  1.0000
  C   C901      1.0  0.35563  0.15529  0.86211  1.0000
  C   C902      1.0  0.35614  0.17955  0.86215  1.0000
  C   C903      1.0  0.37807  0.18838  0.85662  1.0000
  C   C904      1.0  0.44026  0.19106  0.85764  1.0000
  C   C905      1.0  0.42553  0.19413  0.87113  1.0000
  C   C906      1.0  0.43580  0.19794  0.88191  1.0000
  Fe  Fe66      1.0  0.00950  0.19308  0.92243  1.0000
  H   H710      1.0  0.43164  0.07478  0.78671  1.0000
  C   C907      1.0  0.46526  0.19255  0.85500  1.0000
  C   C908      1.0  0.40477  0.25509  0.92063  1.0000
  H   H711      1.0  0.26576  0.27896  0.79999  1.0000
  H   H712      1.0  0.39033  0.23200  0.80238  1.0000
  H   H713      1.0  0.40260  0.19449  0.81974  1.0000
  H   H714      1.0  0.43379  0.23583  0.84010  1.0000
  H   H715      1.0  0.45818  0.13867  0.85523  1.0000
  H   H716      1.0  0.04145  0.15730  0.79837  1.0000
  C   C909      1.0  0.24675  0.28721  0.79924  1.0000
  C   C910      1.0  0.05114  0.29799  0.96107  1.0000
  H   H717      1.0  0.44917  0.18109  0.81305  1.0000
  H   H718      1.0  0.41569  0.13564  0.84803  1.0000
  H   H719      1.0  0.37695  0.12066  0.85723  1.0000
  H   H720      1.0  0.33884  0.14821  0.86668  1.0000
  H   H721      1.0  0.33968  0.19135  0.86677  1.0000
  H   H722      1.0  0.37813  0.20729  0.85663  1.0000
  H   H723      1.0  0.40625  0.19306  0.87362  1.0000
  H   H724      1.0  0.42436  0.19968  0.89240  1.0000
  C   C911      1.0  0.11711  0.30717  0.82672  1.0000
  C   C912      1.0  0.00052  0.06869  0.94616  1.0000
  H   H725      1.0  0.11858  0.30722  0.83754  1.0000
  C   C913      1.0  0.04112  0.11807  0.90646  1.0000
  H   H726      1.0  0.38889  0.19934  0.96883  1.0000
  H   H727      1.0  0.29569  0.09607  0.96517  1.0000
  H   H728      1.0  0.47919  0.14912  0.80197  1.0000
  C   C914      1.0  0.03817  0.05759  0.91725  1.0000
  C   C915      1.0  0.25599  0.10283  0.96867  1.0000
  P   P34       1.0  0.04530  0.07586  0.92803  1.0000
  H   H729      1.0  0.09328  0.20067  0.95370  1.0000
  C   C916      1.0  0.06902  0.05893  0.93822  1.0000
  C   C917      1.0  0.34905  0.19154  0.82268  1.0000
  H   H730      1.0  0.46519  0.24964  0.93647  1.0000
  H   H731      1.0  0.39839  0.19799  0.92022  1.0000
  C   C918      1.0  0.11208  0.04002  0.93879  1.0000
  C   C919      1.0  0.09324  0.05123  0.93101  1.0000
  C   C920      1.0  0.23815  0.28806  0.78677  1.0000
  C   C921      1.0  0.49031  0.24663  0.84111  1.0000
  C   C922      1.0  0.23454  0.12091  0.96830  1.0000
  H   H732      1.0  0.48850  0.26078  0.75074  1.0000
  H   H733      1.0  0.23753  0.29670  0.82032  1.0000
  C   C923      1.0  0.04685  0.29559  0.94800  1.0000
  C   C924      1.0  0.01257  0.10691  0.94528  1.0000
  H   H734      1.0  0.13283  0.26894  0.72685  1.0000
  H   H735      1.0  0.99819  0.23019  0.79643  1.0000
  C   C925      1.0  0.36412  0.15119  0.73261  1.0000
  C   C926      1.0  0.23092  0.29717  0.81068  1.0000
  H   H736      1.0  0.46384  0.26092  0.85850  1.0000
  H   H737      1.0  0.99799  0.25324  0.96253  1.0000
  H   H738      1.0  0.99296  0.14273  0.78980  1.0000
  H   H739      1.0  0.47978  0.11244  0.92078  1.0000
  C   C927      1.0  0.08295  0.04383  0.96108  1.0000
  C   C928      1.0  0.40545  0.18882  0.97265  1.0000
  H   H740      1.0  0.48389  0.28975  0.78305  1.0000
  H   H741      1.0  0.99266  0.05727  0.89996  1.0000
  C   C929      1.0  0.99756  0.20099  0.74646  1.0000
  H   H742      1.0  0.99513  0.08403  0.87382  1.0000
  C   C930      1.0  0.09933  0.18323  0.96043  1.0000
  H   H743      1.0  0.48455  0.00013  0.73306  1.0000
  C   C931      1.0  0.03587  0.31617  0.96829  1.0000
  H   H744      1.0  0.49014  0.30539  0.85711  1.0000
  C   C932      1.0  0.45344  0.98383  0.81788  1.0000
  H   H745      1.0  0.05466  0.25767  0.72469  1.0000
  H   H746      1.0  0.09723  0.23503  0.72530  1.0000
  H   H747      1.0  0.19407  0.31559  0.81855  1.0000
  C   C933      1.0  0.01789  0.31610  0.74221  1.0000
  H   H748      1.0  0.22483  0.31603  0.90623  1.0000
  H   H749      1.0  0.00133  0.28547  0.97463  1.0000
  C   C934      1.0  0.07672  0.09880  0.97447  1.0000
  C   C935      1.0  0.08690  0.17751  0.97465  1.0000
  Fe  Fe67      1.0  0.43574  0.58021  0.99428  1.0000
  S   S124      1.0  0.40925  0.61589  0.99788  1.0000
  S   S125      1.0  0.44762  0.54789  0.01120  1.0000
  C   C936      1.0  0.40572  0.64692  0.13424  1.0000
  C   C937      1.0  0.48068  0.32550  0.12157  1.0000
  C   C938      1.0  0.45291  0.42782  0.97640  1.0000
  C   C939      1.0  0.35913  0.61418  0.20920  1.0000
  H   H750      1.0  0.24392  0.33737  0.20434  1.0000
  H   H751      1.0  0.46288  0.34171  0.07663  1.0000
  H   H752      1.0  0.01868  0.35531  0.15342  1.0000
  H   H753      1.0  0.14363  0.64862  0.19482  1.0000
  C   C940      1.0  0.48686  0.40697  0.12955  1.0000
  C   C941      1.0  0.44060  0.34693  0.14034  1.0000
  C   C942      1.0  0.49167  0.36350  0.02909  1.0000
  C   C943      1.0  0.23472  0.62467  0.21783  1.0000
  S   S126      1.0  0.08128  0.47063  0.21361  1.0000
  C   C944      1.0  0.00410  0.55479  0.20711  1.0000
  Fe  Fe68      1.0  0.04913  0.45111  0.17387  1.0000
  S   S127      1.0  0.02970  0.48649  0.16220  1.0000
  S   S128      1.0  0.05169  0.41286  0.16990  1.0000
  Fe  Fe69      1.0  0.06371  0.47671  0.19408  1.0000
  S   S129      1.0  0.04504  0.51398  0.18415  1.0000
  C   C945      1.0  0.02579  0.33254  0.03185  1.0000
  C   C946      1.0  0.13034  0.63997  0.98414  1.0000
  C   C947      1.0  0.34367  0.56951  0.21472  1.0000
  Fe  Fe70      1.0  0.06189  0.50196  0.16307  1.0000
  S   S130      1.0  0.07857  0.53059  0.14582  1.0000
  S   S131      1.0  0.03133  0.45922  0.19591  1.0000
  S   S132      1.0  0.08310  0.46575  0.17295  1.0000
  C   C948      1.0  0.00230  0.41741  0.14463  1.0000
  H   H754      1.0  0.99950  0.57306  0.15204  1.0000
  C   C949      1.0  0.06975  0.59527  0.98470  1.0000
  C   C950      1.0  0.41757  0.34577  0.19226  1.0000
  S   S133      1.0  0.45832  0.57994  0.11242  1.0000
  C   C951      1.0  0.01056  0.63960  0.14469  1.0000
  H   H755      1.0  0.46679  0.45752  0.02556  1.0000
  C   C952      1.0  0.00797  0.57314  0.19490  1.0000
  C   C953      1.0  0.45245  0.33801  0.06973  1.0000
  H   H756      1.0  0.20579  0.42025  0.18936  1.0000
  C   C954      1.0  0.45057  0.36121  0.12747  1.0000
  C   C955      1.0  0.27769  0.62027  0.21880  1.0000
  Fe  Fe71      1.0  0.44919  0.31815  0.99179  1.0000
  C   C956      1.0  0.42400  0.32855  0.05269  1.0000
  C   C957      1.0  0.02704  0.57178  0.11464  1.0000
  C   C958      1.0  0.04390  0.58343  0.11740  1.0000
  C   C959      1.0  0.06035  0.57041  0.12659  1.0000
  C   C960      1.0  0.05949  0.54600  0.13333  1.0000
  C   C961      1.0  0.04322  0.53420  0.13016  1.0000
  C   C962      1.0  0.02728  0.54696  0.12069  1.0000
  H   H757      1.0  0.04425  0.60240  0.11248  1.0000
  H   H758      1.0  0.07338  0.57934  0.12876  1.0000
  H   H759      1.0  0.04339  0.51503  0.13468  1.0000
  Fe  Fe72      1.0  0.00607  0.62781  0.09547  1.0000
  C   C963      1.0  0.02932  0.64162  0.99641  1.0000
  H   H760      1.0  0.35713  0.39384  0.13195  1.0000
  C   C964      1.0  0.02564  0.37990  0.06071  1.0000
  C   C965      1.0  0.44113  0.42294  0.99085  1.0000
  C   C966      1.0  0.42144  0.31761  0.06729  1.0000
  C   C967      1.0  0.43520  0.44129  0.99925  1.0000
  H   H761      1.0  0.45939  0.62570  0.00975  1.0000
  H   H762      1.0  0.01917  0.53105  0.98477  1.0000
  H   H763      1.0  0.11032  0.61178  0.14856  1.0000
  C   C968      1.0  0.43389  0.44891  0.04024  1.0000
  C   C969      1.0  0.11326  0.57925  0.98434  1.0000
  S   S134      1.0  0.47380  0.58343  0.98251  1.0000
  H   H764      1.0  0.37683  0.41943  0.17910  1.0000
  H   H765      1.0  0.46227  0.38773  0.01887  1.0000
  C   C970      1.0  0.49081  0.64730  0.14667  1.0000
  C   C971      1.0  0.17705  0.41773  0.20847  1.0000
  H   H766      1.0  0.46003  0.53751  0.05813  1.0000
  C   C972      1.0  0.14366  0.64056  0.17417  1.0000
  C   C973      1.0  0.37085  0.55664  0.99407  1.0000
  C   C974      1.0  0.13752  0.61219  0.19717  1.0000
  H   H767      1.0  0.33768  0.55218  0.21721  1.0000
  C   C975      1.0  0.14132  0.62253  0.16726  1.0000
  C   C976      1.0  0.46116  0.32202  0.17687  1.0000
  C   C977      1.0  0.11387  0.50183  0.20018  1.0000
  C   C978      1.0  0.13169  0.51524  0.20008  1.0000
  C   C979      1.0  0.39390  0.42955  0.13617  1.0000
  H   H768      1.0  0.10685  0.50358  0.19053  1.0000
  H   H769      1.0  0.36819  0.56549  0.00314  1.0000
  C   C980      1.0  0.45604  0.62164  0.02141  1.0000
  C   C981      1.0  0.01834  0.37446  0.15271  1.0000
  C   C982      1.0  0.03376  0.38102  0.15993  1.0000
  C   C983      1.0  0.03319  0.40576  0.15978  1.0000
  C   C984      1.0  0.01754  0.42398  0.15196  1.0000
  C   C985      1.0  0.45258  0.46955  0.97885  1.0000
  H   H770      1.0  0.45615  0.50065  0.14858  1.0000
  H   H771      1.0  0.04586  0.36681  0.16593  1.0000
  H   H772      1.0  0.11593  0.42518  0.20782  1.0000
  H   H773      1.0  0.45875  0.45598  0.15317  1.0000
  C   C986      1.0  0.24073  0.34875  0.21231  1.0000
  H   H774      1.0  0.18889  0.64122  0.18051  1.0000
  C   C987      1.0  0.46872  0.63087  0.02901  1.0000
  C   C988      1.0  0.13705  0.59961  0.17526  1.0000
  H   H775      1.0  0.42681  0.39234  0.05963  1.0000
  H   H776      1.0  0.08656  0.63423  0.10064  1.0000
  C   C989      1.0  0.40756  0.40865  0.20655  1.0000
  C   C990      1.0  0.48311  0.37265  0.14946  1.0000
  S   S135      1.0  0.43022  0.55519  0.98123  1.0000
  Fe  Fe73      1.0  0.48236  0.58384  0.09030  1.0000
  C   C991      1.0  0.48550  0.34915  0.21773  1.0000
  C   C992      1.0  0.15152  0.41941  0.21355  1.0000
  S   S136      1.0  0.43350  0.48724  0.00420  1.0000
  H   H777      1.0  0.05516  0.60479  0.97885  1.0000
  C   C993      1.0  0.25429  0.34144  0.22336  1.0000
  C   C994      1.0  0.01052  0.33735  0.01000  1.0000
  H   H778      1.0  0.47582  0.53247  0.03290  1.0000
  H   H779      1.0  0.21308  0.37593  0.20279  1.0000
  H   H780      1.0  0.14686  0.62662  0.98611  1.0000
  H   H781      1.0  0.40074  0.35496  0.19831  1.0000
  H   H782      1.0  0.03886  0.31778  0.97856  1.0000
  C   C995      1.0  0.46064  0.38575  0.15580  1.0000
  C   C996      1.0  0.45142  0.40979  0.14922  1.0000
  C   C997      1.0  0.46438  0.42008  0.13584  1.0000
  P   P35       1.0  0.42162  0.42591  0.15689  1.0000
  C   C998      1.0  0.42013  0.45867  0.15285  1.0000
  C   C999      1.0  0.45834  0.44321  0.03314  1.0000
  C   C1000     1.0  0.44119  0.46812  0.15192  1.0000
  C   C1001     1.0  0.43978  0.49348  0.14943  1.0000
  C   C1002     1.0  0.41735  0.50959  0.14804  1.0000
  C   C1003     1.0  0.39617  0.50033  0.14934  1.0000
  C   C1004     1.0  0.39748  0.47494  0.15185  1.0000
  C   C1005     1.0  0.41606  0.41832  0.17631  1.0000
  C   C1006     1.0  0.43526  0.41617  0.18353  1.0000
  H   H783      1.0  0.21750  0.63614  0.21545  1.0000
  C   C1007     1.0  0.13566  0.42346  0.20388  1.0000
  C   C1008     1.0  0.44105  0.46463  0.99332  1.0000
  C   C1009     1.0  0.03479  0.56617  0.05198  1.0000
  H   H784      1.0  0.38695  0.49991  0.98575  1.0000
  H   H785      1.0  0.45746  0.43840  0.13035  1.0000
  H   H786      1.0  0.40146  0.44566  0.13051  1.0000
  H   H787      1.0  0.41646  0.52924  0.14598  1.0000
  H   H788      1.0  0.37875  0.51286  0.14838  1.0000
  H   H789      1.0  0.38083  0.46805  0.15308  1.0000
  H   H790      1.0  0.04013  0.37672  0.05148  1.0000
  C   C1010     1.0  0.45565  0.34853  0.05495  1.0000
  H   H791      1.0  0.40437  0.40465  0.21823  1.0000
  H   H792      1.0  0.02508  0.33695  0.13088  1.0000
  H   H793      1.0  0.36529  0.63142  0.20704  1.0000
  C   C1011     1.0  0.02363  0.59601  0.15315  1.0000
  C   C1012     1.0  0.43917  0.60662  0.02885  1.0000
  C   C1013     1.0  0.49131  0.37169  0.00342  1.0000
  P   P36       1.0  0.05633  0.62569  0.15319  1.0000
  C   C1014     1.0  0.33396  0.49147  0.20068  1.0000
  C   C1015     1.0  0.06681  0.60310  0.16810  1.0000
  C   C1016     1.0  0.06408  0.60900  0.18167  1.0000
  C   C1017     1.0  0.07191  0.59103  0.19309  1.0000
  C   C1018     1.0  0.08253  0.56710  0.19105  1.0000
  C   C1019     1.0  0.08569  0.56121  0.17753  1.0000
  C   C1020     1.0  0.07805  0.57913  0.16610  1.0000
  H   H794      1.0  0.44300  0.38066  0.12490  1.0000
  H   H795      1.0  0.40606  0.32010  0.13861  1.0000
  H   H796      1.0  0.36973  0.48408  0.18706  1.0000
  H   H797      1.0  0.05434  0.63599  0.12250  1.0000
  S   S137      1.0  0.16197  0.53163  0.21225  1.0000
  C   C1021     1.0  0.07986  0.62341  0.13718  1.0000
  C   C1022     1.0  0.07343  0.63016  0.12355  1.0000
  C   C1023     1.0  0.09171  0.62937  0.11112  1.0000
  C   C1024     1.0  0.48615  0.55916  0.05812  1.0000
  H   H798      1.0  0.99755  0.45465  0.11316  1.0000
  H   H799      1.0  0.03960  0.54857  0.05891  1.0000
  H   H800      1.0  0.30454  0.62903  0.11844  1.0000
  H   H801      1.0  0.17755  0.42704  0.17243  1.0000
  H   H802      1.0  0.42163  0.58916  0.04962  1.0000
  H   H803      1.0  0.03690  0.58034  0.15708  1.0000
  H   H804      1.0  0.01963  0.54127  0.21049  1.0000
  H   H805      1.0  0.05605  0.62736  0.18354  1.0000
  H   H806      1.0  0.06981  0.59560  0.20354  1.0000
  H   H807      1.0  0.08839  0.55313  0.19994  1.0000
  H   H808      1.0  0.09394  0.54270  0.17583  1.0000
  H   H809      1.0  0.08074  0.57414  0.15569  1.0000
  C   C1025     1.0  0.43832  0.32016  0.17455  1.0000
  H   H810      1.0  0.37979  0.52005  0.00634  1.0000
  C   C1026     1.0  0.41843  0.64485  0.99189  1.0000
  C   C1027     1.0  0.14092  0.51310  0.21258  1.0000
  C   C1028     1.0  0.01363  0.53925  0.99427  1.0000
  H   H811      1.0  0.37279  0.52760  0.17884  1.0000
  C   C1029     1.0  0.47070  0.35049  0.11810  1.0000
  C   C1030     1.0  0.01793  0.56839  0.00761  1.0000
  H   H812      1.0  0.03143  0.34046  0.03929  1.0000
  P   P37       1.0  0.47714  0.36903  0.04702  1.0000
  C   C1031     1.0  0.00576  0.34365  0.13035  1.0000
  H   H813      1.0  0.44118  0.35741  0.20249  1.0000
  C   C1032     1.0  0.47512  0.37210  0.22146  1.0000
  C   C1033     1.0  0.39227  0.41657  0.18437  1.0000
  H   H814      1.0  0.06665  0.64899  0.01864  1.0000
  H   H815      1.0  0.01772  0.36709  0.01733  1.0000
  H   H816      1.0  0.99793  0.41328  0.10980  1.0000
  C   C1034     1.0  0.21930  0.38564  0.22167  1.0000
  C   C1035     1.0  0.46329  0.62579  0.04415  1.0000
  C   C1036     1.0  0.09400  0.59126  0.97706  1.0000
  C   C1037     1.0  0.42272  0.43054  0.04987  1.0000
  S   S138      1.0  0.02921  0.64085  0.07422  1.0000
  C   C1038     1.0  0.38817  0.41133  0.19945  1.0000
  H   H817      1.0  0.45350  0.41850  0.17755  1.0000
  C   C1039     1.0  0.37551  0.38693  0.14988  1.0000
  H   H818      1.0  0.01532  0.53749  0.11797  1.0000
  H   H819      1.0  0.00418  0.34893  0.00049  1.0000
  C   C1040     1.0  0.27807  0.62739  0.18039  1.0000
  H   H820      1.0  0.40372  0.43503  0.05532  1.0000
  C   C1041     1.0  0.47531  0.54590  0.05181  1.0000
  H   H821      1.0  0.33279  0.47226  0.20439  1.0000
  H   H822      1.0  0.47877  0.36151  0.10820  1.0000
  C   C1042     1.0  0.01570  0.36031  0.06979  1.0000
  C   C1043     1.0  0.30798  0.64255  0.12344  1.0000
  C   C1044     1.0  0.48009  0.37551  0.01733  1.0000
  H   H823      1.0  0.42617  0.43735  0.01043  1.0000
  H   H824      1.0  0.42532  0.35547  0.14763  1.0000
  H   H825      1.0  0.04015  0.56262  0.98681  1.0000
  C   C1045     1.0  0.21472  0.48181  0.20115  1.0000
  C   C1046     1.0  0.23976  0.47826  0.20148  1.0000
  C   C1047     1.0  0.25186  0.45573  0.20826  1.0000
  C   C1048     1.0  0.23913  0.43650  0.21436  1.0000
  C   C1049     1.0  0.21415  0.43967  0.21365  1.0000
  C   C1050     1.0  0.20190  0.46269  0.20729  1.0000
  C   C1051     1.0  0.07674  0.64041  0.03942  1.0000
  H   H826      1.0  0.29863  0.50451  0.21342  1.0000
  C   C1052     1.0  0.99846  0.35982  0.11664  1.0000
  H   H827      1.0  0.99790  0.40760  0.20067  1.0000
  S   S139      1.0  0.00520  0.58773  0.10387  1.0000
  H   H828      1.0  0.14323  0.62584  0.15569  1.0000
  S   S140      1.0  0.48620  0.52420  0.98406  1.0000
  C   C1053     1.0  0.99696  0.36441  0.08168  1.0000
  H   H829      1.0  0.42649  0.64064  0.16522  1.0000
  H   H830      1.0  0.44320  0.35147  0.03510  1.0000
  C   C1054     1.0  0.14505  0.42606  0.18909  1.0000
  H   H831      1.0  0.04366  0.55114  0.03276  1.0000
  H   H832      1.0  0.20503  0.49957  0.19639  1.0000
  H   H833      1.0  0.24953  0.49327  0.19694  1.0000
  H   H834      1.0  0.27106  0.45320  0.20897  1.0000
  C   C1055     1.0  0.27888  0.59504  0.22427  1.0000
  H   H835      1.0  0.18240  0.46595  0.20707  1.0000
  H   H836      1.0  0.29381  0.62820  0.21717  1.0000
  H   H837      1.0  0.45056  0.37719  0.16587  1.0000
  H   H838      1.0  0.43665  0.40504  0.99557  1.0000
  C   C1056     1.0  0.26478  0.61656  0.17417  1.0000
  C   C1057     1.0  0.17036  0.42465  0.18393  1.0000
  H   H839      1.0  0.01607  0.62938  0.02766  1.0000
  C   C1058     1.0  0.00226  0.59172  0.15029  1.0000
  Fe  Fe74      1.0  0.45375  0.62056  0.10978  1.0000
  C   C1059     1.0  0.37835  0.42142  0.12994  1.0000
  H   H840      1.0  0.13207  0.57615  0.97840  1.0000
  C   C1060     1.0  0.03717  0.56775  0.03717  1.0000
  C   C1061     1.0  0.10499  0.48631  0.21281  1.0000
  C   C1062     1.0  0.46032  0.40040  0.04492  1.0000
  C   C1063     1.0  0.47158  0.41910  0.03552  1.0000
  H   H841      1.0  0.39651  0.38407  0.16599  1.0000
  C   C1064     1.0  0.11658  0.62244  0.11217  1.0000
  C   C1065     1.0  0.30412  0.63912  0.13844  1.0000
  H   H842      1.0  0.44588  0.41008  0.20402  1.0000
  H   H843      1.0  0.13818  0.52748  0.19031  1.0000
  H   H844      1.0  0.24734  0.62664  0.17132  1.0000
  C   C1066     1.0  0.40763  0.57576  0.16071  1.0000
  C   C1067     1.0  0.40225  0.58711  0.14713  1.0000
  C   C1068     1.0  0.37775  0.59433  0.14531  1.0000
  C   C1069     1.0  0.35855  0.59006  0.15704  1.0000
  C   C1070     1.0  0.36378  0.57865  0.17075  1.0000
  C   C1071     1.0  0.38848  0.57160  0.17249  1.0000
  P   P38       1.0  0.33927  0.57335  0.18614  1.0000
  C   C1072     1.0  0.33729  0.54122  0.19148  1.0000
  C   C1073     1.0  0.34585  0.58375  0.20071  1.0000
  C   C1074     1.0  0.35399  0.60601  0.19800  1.0000
  C   C1075     1.0  0.25558  0.63512  0.21553  1.0000
  H   H845      1.0  0.47989  0.33641  0.18883  1.0000
  H   H846      1.0  0.01696  0.44309  0.15173  1.0000
  H   H847      1.0  0.06880  0.62406  0.04300  1.0000
  C   C1076     1.0  0.31634  0.53434  0.20116  1.0000
  S   S141      1.0  0.48261  0.33457  0.98112  1.0000
  H   H848      1.0  0.42357  0.46758  0.03809  1.0000
  H   H849      1.0  0.02342  0.58608  0.06946  1.0000
  C   C1077     1.0  0.35477  0.49815  0.19093  1.0000
  C   C1078     1.0  0.31000  0.59043  0.18164  1.0000
  C   C1079     1.0  0.29660  0.57978  0.17523  1.0000
  C   C1080     1.0  0.36911  0.57086  0.98038  1.0000
  C   C1081     1.0  0.43098  0.41144  0.19857  1.0000
  C   C1082     1.0  0.38160  0.51968  0.98405  1.0000
  C   C1083     1.0  0.30061  0.61444  0.18410  1.0000
  H   H850      1.0  0.42668  0.57057  0.16209  1.0000
  H   H851      1.0  0.41705  0.59086  0.13807  1.0000
  H   H852      1.0  0.37375  0.60376  0.13481  1.0000
  H   H853      1.0  0.33975  0.59609  0.15536  1.0000
  H   H854      1.0  0.39294  0.56309  0.18300  1.0000
  H   H855      1.0  0.35636  0.61713  0.18724  1.0000
  C   C1084     1.0  0.01666  0.40364  0.06349  1.0000
  H   H856      1.0  0.02652  0.57372  0.18882  1.0000
  C   C1085     1.0  0.42209  0.64084  0.14378  1.0000
  S   S142      1.0  0.41572  0.64300  0.11618  1.0000
  H   H857      1.0  0.30135  0.54812  0.20537  1.0000
  H   H858      1.0  0.37366  0.43148  0.11970  1.0000
  H   H859      1.0  0.26363  0.58429  0.16687  1.0000
  H   H860      1.0  0.13066  0.62209  0.10247  1.0000
  C   C1086     1.0  0.37735  0.53108  0.99586  1.0000
  H   H861      1.0  0.30354  0.56140  0.17307  1.0000
  C   C1087     1.0  0.46217  0.33518  0.18703  1.0000
  H   H862      1.0  0.43009  0.59885  0.02295  1.0000
  H   H863      1.0  0.01159  0.62609  0.05366  1.0000
  H   H864      1.0  0.31039  0.62327  0.18897  1.0000
  C   C1088     1.0  0.43589  0.40635  0.05226  1.0000
  C   C1089     1.0  0.01808  0.34754  0.01949  1.0000
  C   C1090     1.0  0.23608  0.59938  0.22306  1.0000
  C   C1091     1.0  0.02792  0.62004  0.15048  1.0000
  S   S143      1.0  0.47483  0.62500  0.08693  1.0000
  H   H865      1.0  0.13266  0.57639  0.19633  1.0000
  H   H866      1.0  0.39860  0.33187  0.18042  1.0000
  C   C1092     1.0  0.48403  0.54331  0.03739  1.0000
  C   C1093     1.0  0.01721  0.62160  0.00077  1.0000
  C   C1094     1.0  0.44607  0.61113  0.05153  1.0000
  P   P39       1.0  0.03267  0.59206  0.00921  1.0000
  C   C1095     1.0  0.06439  0.58709  0.99968  1.0000
  C   C1096     1.0  0.01917  0.60988  0.04903  1.0000
  C   C1097     1.0  0.22328  0.37075  0.21144  1.0000
  C   C1098     1.0  0.41648  0.33243  0.18219  1.0000
  H   H867      1.0  0.27086  0.64586  0.18241  1.0000
  C   C1099     1.0  0.13532  0.59439  0.19019  1.0000
  C   C1100     1.0  0.02174  0.61164  0.03421  1.0000
  S   S144      1.0  0.48640  0.61850  0.11934  1.0000
  C   C1101     1.0  0.45045  0.32178  0.14387  1.0000
  H   H868      1.0  0.36865  0.37022  0.15508  1.0000
  C   C1102     1.0  0.10821  0.57137  0.99930  1.0000
  C   C1103     1.0  0.08387  0.57525  0.00696  1.0000
  C   C1104     1.0  0.02545  0.55725  0.99547  1.0000
  Fe  Fe75      1.0  0.48579  0.54990  0.99862  1.0000
  H   H869      1.0  0.13260  0.42953  0.18164  1.0000
  H   H870      1.0  0.14250  0.61079  0.12651  1.0000
  H   H871      1.0  0.44258  0.60660  0.06321  1.0000
  C   C1105     1.0  0.27402  0.59274  0.17161  1.0000
  H   H872      1.0  0.29777  0.62293  0.14509  1.0000
  C   C1106     1.0  0.35647  0.60014  0.22313  1.0000
  C   C1107     1.0  0.39106  0.39500  0.15612  1.0000
  C   C1108     1.0  0.99815  0.56146  0.01840  1.0000
  H   H873      1.0  0.13655  0.60788  0.20874  1.0000
  C   C1109     1.0  0.43425  0.60128  0.04389  1.0000
  C   C1110     1.0  0.44119  0.34373  0.04650  1.0000
  P   P40       1.0  0.19763  0.41470  0.22064  1.0000
  C   C1111     1.0  0.02571  0.58726  0.05793  1.0000
  C   C1112     1.0  0.44038  0.34708  0.19469  1.0000
  H   H874      1.0  0.47260  0.63259  0.05038  1.0000
  Fe  Fe76      1.0  0.44747  0.52326  0.99624  1.0000
  S   S145      1.0  0.42217  0.35037  0.98234  1.0000
  H   H875      1.0  0.12315  0.56217  0.00496  1.0000
  H   H876      1.0  0.08049  0.56901  0.01850  1.0000
  C   C1113     1.0  0.39997  0.41665  0.14945  1.0000
  C   C1114     1.0  0.03081  0.59054  0.02816  1.0000
  H   H877      1.0  0.48220  0.38082  0.99442  1.0000
  C   C1115     1.0  0.12320  0.61608  0.12570  1.0000
  C   C1116     1.0  0.18630  0.42066  0.19355  1.0000
  H   H878      1.0  0.02224  0.34189  0.06759  1.0000
  C   C1117     1.0  0.31473  0.50958  0.20576  1.0000
  H   H879      1.0  0.02416  0.41889  0.05637  1.0000
  H   H880      1.0  0.49044  0.41494  0.02978  1.0000
  H   H881      1.0  0.13552  0.58565  0.16989  1.0000
  C   C1118     1.0  0.36909  0.40018  0.13682  1.0000
  C   C1119     1.0  0.10491  0.61657  0.13817  1.0000
  C   C1120     1.0  0.35646  0.52293  0.18632  1.0000
  H   H882      1.0  0.01284  0.36491  0.10768  1.0000
  S   S146      1.0  0.47380  0.56159  0.07636  1.0000
  Fe  Fe77      1.0  0.01441  0.49580  0.18409  1.0000
  H   H883      1.0  0.36992  0.40954  0.20570  1.0000
  H   H884      1.0  0.45517  0.63256  0.98049  1.0000
  H   H885      1.0  0.22008  0.59141  0.22453  1.0000
  S   S147      1.0  0.49097  0.39655  0.21503  1.0000
  H   H886      1.0  0.44115  0.63274  0.14027  1.0000
  C   C1121     1.0  0.41371  0.64524  0.15791  1.0000
  H   H887      1.0  0.04768  0.63972  0.99839  1.0000
  C   C1122     1.0  0.44163  0.64811  0.98344  1.0000
  H   H888      1.0  0.24898  0.41935  0.21958  1.0000
  C   C1123     1.0  0.14155  0.63521  0.18923  1.0000
  C   C1124     1.0  0.00228  0.39265  0.14510  1.0000
  H   H889      1.0  0.41326  0.32461  0.04600  1.0000
  H   H890      1.0  0.99268  0.48797  0.21400  1.0000
  H   H891      1.0  0.26802  0.32453  0.22389  1.0000
  H   H892      1.0  0.49054  0.35432  0.15473  1.0000
  C   C1125     1.0  0.47241  0.32991  0.22276  1.0000
  C   C1126     1.0  0.08811  0.64737  0.04862  1.0000
  C   C1127     1.0  0.43567  0.32232  0.07580  1.0000
  H   H893      1.0  0.08880  0.63661  0.05938  1.0000
  C   C1128     1.0  0.99790  0.40776  0.07540  1.0000
  H   H894      1.0  0.99259  0.52123  0.14457  1.0000
  H   H895      1.0  0.36499  0.59071  0.97888  1.0000
  C   C1129     1.0  0.99346  0.62463  0.99803  1.0000
  H   H896      1.0  0.39252  0.43108  0.97729  1.0000
  C   C1130     1.0  0.99431  0.53215  0.00518  1.0000
  P   P41       1.0  0.26562  0.38911  0.30333  1.0000
  S   S148      1.0  0.17079  0.50332  0.25289  1.0000
  S   S149      1.0  0.36239  0.63611  0.47133  1.0000
  C   C1131     1.0  0.99486  0.50703  0.42430  1.0000
  S   S150      1.0  0.21891  0.51479  0.26140  1.0000
  Fe  Fe78      1.0  0.21126  0.48742  0.25091  1.0000
  S   S151      1.0  0.22301  0.44669  0.25803  1.0000
  Fe  Fe79      1.0  0.17928  0.53272  0.26154  1.0000
  S   S152      1.0  0.15309  0.54639  0.28068  1.0000
  H   H897      1.0  0.33697  0.38761  0.46261  1.0000
  C   C1132     1.0  0.25820  0.58449  0.22627  1.0000
  C   C1133     1.0  0.99531  0.52614  0.39294  1.0000
  Fe  Fe80      1.0  0.16884  0.57478  0.35073  1.0000
  S   S153      1.0  0.14269  0.55595  0.36870  1.0000
  S   S154      1.0  0.19476  0.55504  0.33368  1.0000
  C   C1134     1.0  0.25309  0.33031  0.34450  1.0000
  S   S155      1.0  0.13180  0.60535  0.38245  1.0000
  Fe  Fe81      1.0  0.15947  0.57005  0.38299  1.0000
  S   S156      1.0  0.16863  0.54892  0.40439  1.0000
  Fe  Fe82      1.0  0.11693  0.59284  0.36651  1.0000
  S   S157      1.0  0.07466  0.59883  0.37096  1.0000
  S   S158      1.0  0.18765  0.58599  0.36530  1.0000
  S   S159      1.0  0.14218  0.61100  0.34745  1.0000
  S   S160      1.0  0.42811  0.59438  0.45705  1.0000
  C   C1135     1.0  0.18705  0.33984  0.42211  1.0000
  C   C1136     1.0  0.01659  0.52325  0.29754  1.0000
  C   C1137     1.0  0.26888  0.39288  0.42468  1.0000
  C   C1138     1.0  0.23487  0.56987  0.43801  1.0000
  S   S161      1.0  0.44903  0.33675  0.35272  1.0000
  C   C1139     1.0  0.99426  0.51500  0.36657  1.0000
  H   H898      1.0  0.99550  0.52441  0.24540  1.0000
  Fe  Fe83      1.0  0.29041  0.47244  0.42188  1.0000
  S   S162      1.0  0.27557  0.49224  0.44038  1.0000
  S   S163      1.0  0.27440  0.47982  0.40180  1.0000
  Fe  Fe84      1.0  0.33283  0.44025  0.43536  1.0000
  S   S164      1.0  0.32167  0.45728  0.45497  1.0000
  S   S165      1.0  0.36415  0.40778  0.43395  1.0000
  Fe  Fe85      1.0  0.28331  0.45498  0.45426  1.0000
  C   C1140     1.0  0.22666  0.38670  0.29113  1.0000
  Fe  Fe86      1.0  0.31514  0.49301  0.43956  1.0000
  S   S166      1.0  0.32342  0.52820  0.44211  1.0000
  S   S167      1.0  0.29495  0.43494  0.43588  1.0000
  S   S168      1.0  0.32962  0.47623  0.41981  1.0000
  C   C1141     1.0  0.24094  0.37120  0.33087  1.0000
  H   H899      1.0  0.04298  0.45551  0.23968  1.0000
  C   C1142     1.0  0.02869  0.46637  0.24645  1.0000
  C   C1143     1.0  0.25164  0.42832  0.31789  1.0000
  C   C1144     1.0  0.29257  0.63623  0.41142  1.0000
  C   C1145     1.0  0.25408  0.34835  0.27727  1.0000
  H   H900      1.0  0.27359  0.33837  0.41195  1.0000
  C   C1146     1.0  0.32529  0.37546  0.46222  1.0000
  C   C1147     1.0  0.21154  0.41768  0.45998  1.0000
  C   C1148     1.0  0.23071  0.42854  0.46074  1.0000
  C   C1149     1.0  0.22831  0.34687  0.46131  1.0000
  C   C1150     1.0  0.17709  0.35493  0.44441  1.0000
  H   H901      1.0  0.20706  0.41871  0.44964  1.0000
  H   H902      1.0  0.24081  0.43805  0.45101  1.0000
  C   C1151     1.0  0.37272  0.40051  0.41671  1.0000
  C   C1152     1.0  0.38385  0.37644  0.41514  1.0000
  C   C1153     1.0  0.39110  0.37038  0.40141  1.0000
  C   C1154     1.0  0.38755  0.38850  0.38919  1.0000
  C   C1155     1.0  0.37707  0.41271  0.39075  1.0000
  C   C1156     1.0  0.36935  0.41868  0.40449  1.0000
  H   H903      1.0  0.38621  0.36232  0.42457  1.0000
  H   H904      1.0  0.39865  0.35157  0.40038  1.0000
  H   H905      1.0  0.37496  0.42685  0.38129  1.0000
  H   H906      1.0  0.36126  0.43741  0.40558  1.0000
  C   C1157     1.0  0.39317  0.52492  0.45880  1.0000
  C   C1158     1.0  0.38863  0.50358  0.45604  1.0000
  C   C1159     1.0  0.36716  0.50425  0.45107  1.0000
  C   C1160     1.0  0.35024  0.52638  0.44870  1.0000
  C   C1161     1.0  0.35468  0.54760  0.45162  1.0000
  C   C1162     1.0  0.37597  0.54686  0.45675  1.0000
  C   C1163     1.0  0.33525  0.35528  0.45547  1.0000
  H   H907      1.0  0.36382  0.48776  0.44895  1.0000
  H   H908      1.0  0.34167  0.56474  0.44983  1.0000
  H   H909      1.0  0.37927  0.56340  0.45887  1.0000
  C   C1164     1.0  0.19843  0.53057  0.40357  1.0000
  C   C1165     1.0  0.20636  0.51773  0.41637  1.0000
  C   C1166     1.0  0.22966  0.50214  0.41593  1.0000
  C   C1167     1.0  0.24518  0.49942  0.40268  1.0000
  C   C1168     1.0  0.23715  0.51214  0.38990  1.0000
  C   C1169     1.0  0.21385  0.52764  0.39033  1.0000
  H   H910      1.0  0.19435  0.51969  0.42665  1.0000
  H   H911      1.0  0.23545  0.49205  0.42584  1.0000
  H   H912      1.0  0.24911  0.51048  0.37965  1.0000
  H   H913      1.0  0.20775  0.53709  0.38041  1.0000
  C   C1170     1.0  0.05383  0.59026  0.36291  1.0000
  C   C1171     1.0  0.02843  0.59493  0.36887  1.0000
  C   C1172     1.0  0.01110  0.58895  0.36273  1.0000
  C   C1173     1.0  0.01891  0.57864  0.35037  1.0000
  C   C1174     1.0  0.04430  0.57383  0.34444  1.0000
  C   C1175     1.0  0.06170  0.57946  0.35071  1.0000
  C   C1176     1.0  0.21557  0.37644  0.28324  1.0000
  H   H914      1.0  0.34677  0.56682  0.23667  1.0000
  H   H915      1.0  0.05057  0.56585  0.33488  1.0000
  H   H916      1.0  0.08113  0.57585  0.34595  1.0000
  H   H917      1.0  0.29422  0.52911  0.37925  1.0000
  C   C1177     1.0  0.23237  0.46160  0.29528  1.0000
  C   C1178     1.0  0.23624  0.42765  0.47411  1.0000
  H   H918      1.0  0.21953  0.51382  0.45245  1.0000
  C   C1179     1.0  0.16509  0.54927  0.29517  1.0000
  C   C1180     1.0  0.14898  0.55914  0.30665  1.0000
  C   C1181     1.0  0.15793  0.56142  0.31843  1.0000
  C   C1182     1.0  0.18301  0.55345  0.31887  1.0000
  C   C1183     1.0  0.19917  0.54375  0.30737  1.0000
  C   C1184     1.0  0.19026  0.54181  0.29551  1.0000
  H   H919      1.0  0.12948  0.56501  0.30644  1.0000
  H   H920      1.0  0.14537  0.56900  0.32724  1.0000
  H   H921      1.0  0.21865  0.53789  0.30757  1.0000
  H   H922      1.0  0.20287  0.53455  0.28668  1.0000
  C   C1185     1.0  0.25317  0.43368  0.25044  1.0000
  C   C1186     1.0  0.26043  0.40814  0.25303  1.0000
  C   C1187     1.0  0.28453  0.39689  0.24766  1.0000
  C   C1188     1.0  0.30168  0.41121  0.23967  1.0000
  H   H923      1.0  0.01020  0.54863  0.31191  1.0000
  H   H924      1.0  0.48419  0.43237  0.41589  1.0000
  H   H925      1.0  0.24730  0.39706  0.25923  1.0000
  H   H926      1.0  0.28979  0.37715  0.24971  1.0000
  C   C1189     1.0  0.27013  0.44814  0.24220  1.0000
  C   C1190     1.0  0.47979  0.37541  0.38491  1.0000
  S   S169      1.0  0.36407  0.32915  0.23139  1.0000
  C   C1191     1.0  0.15592  0.60947  0.26206  1.0000
  C   C1192     1.0  0.17493  0.43791  0.24405  1.0000
  C   C1193     1.0  0.34070  0.38236  0.29668  1.0000
  C   C1194     1.0  0.34675  0.39141  0.28190  1.0000
  C   C1195     1.0  0.32815  0.40033  0.27378  1.0000
  C   C1196     1.0  0.30358  0.39976  0.28038  1.0000
  C   C1197     1.0  0.25177  0.42031  0.30532  1.0000
  H   H927      1.0  0.31960  0.63795  0.42313  1.0000
  H   H928      1.0  0.35522  0.37468  0.30285  1.0000
  H   H929      1.0  0.36588  0.39105  0.27667  1.0000
  H   H930      1.0  0.33283  0.40714  0.26227  1.0000
  H   H931      1.0  0.28942  0.40661  0.27392  1.0000
  H   H932      1.0  0.24091  0.45874  0.32903  1.0000
  C   C1198     1.0  0.22926  0.35723  0.27634  1.0000
  C   C1199     1.0  0.43811  0.35684  0.23466  1.0000
  H   H933      1.0  0.28254  0.33356  0.45997  1.0000
  H   H934      1.0  0.39270  0.45489  0.42624  1.0000
  C   C1200     1.0  0.26595  0.56043  0.38380  1.0000
  C   C1201     1.0  0.29246  0.53609  0.40024  1.0000
  H   H935      1.0  0.43719  0.32176  0.27385  1.0000
  H   H936      1.0  0.23083  0.59809  0.45019  1.0000
  H   H937      1.0  0.23502  0.53870  0.42908  1.0000
  C   C1202     1.0  0.23114  0.54623  0.43874  1.0000
  H   H938      1.0  0.15716  0.45544  0.26212  1.0000
  H   H939      1.0  0.14107  0.41906  0.27704  1.0000
  C   C1203     1.0  0.24496  0.31757  0.42321  1.0000
  H   H940      1.0  0.20380  0.38956  0.42049  1.0000
  C   C1204     1.0  0.23119  0.64834  0.37659  1.0000
  C   C1205     1.0  0.27788  0.34408  0.32132  1.0000
  C   C1206     1.0  0.24311  0.58510  0.28016  1.0000
  H   H941      1.0  0.03523  0.51525  0.29922  1.0000
  H   H942      1.0  0.22491  0.47441  0.28647  1.0000
  H   H943      1.0  0.13826  0.60443  0.28441  1.0000
  Fe  Fe87      1.0  0.22585  0.53712  0.23901  1.0000
  H   H944      1.0  0.45665  0.38869  0.35424  1.0000
  H   H945      1.0  0.20275  0.57841  0.41325  1.0000
  Fe  Fe88      1.0  0.35234  0.32406  0.27306  1.0000
  H   H946      1.0  0.35466  0.35223  0.45053  1.0000
  S   S170      1.0  0.43846  0.31897  0.38776  1.0000
  H   H947      1.0  0.30737  0.52098  0.40266  1.0000
  C   C1207     1.0  0.26055  0.56990  0.40753  1.0000
  C   C1208     1.0  0.42372  0.35425  0.44571  1.0000
  C   C1209     1.0  0.22225  0.53214  0.45198  1.0000
  H   H948      1.0  0.45000  0.36118  0.26173  1.0000
  C   C1210     1.0  0.15206  0.36006  0.44383  1.0000
  H   H949      1.0  0.41779  0.48249  0.42944  1.0000
  H   H950      1.0  0.41780  0.35810  0.31683  1.0000
  S   S171      1.0  0.33234  0.39736  0.23345  1.0000
  C   C1211     1.0  0.28203  0.59611  0.43306  1.0000
  H   H951      1.0  0.29969  0.64024  0.24575  1.0000
  C   C1212     1.0  0.21762  0.60842  0.41564  1.0000
  C   C1213     1.0  0.42095  0.40477  0.33194  1.0000
  C   C1214     1.0  0.29437  0.43688  0.23678  1.0000
  C   C1215     1.0  0.33589  0.36123  0.40568  1.0000
  H   H952      1.0  0.13866  0.36807  0.45227  1.0000
  C   C1216     1.0  0.00279  0.50680  0.43694  1.0000
  S   S172      1.0  0.26074  0.55265  0.23264  1.0000
  H   H953      1.0  0.41433  0.35678  0.45648  1.0000
  C   C1217     1.0  0.43413  0.33066  0.42678  1.0000
  C   C1218     1.0  0.13553  0.49487  0.38676  1.0000
  C   C1219     1.0  0.14344  0.49800  0.39860  1.0000
  C   C1220     1.0  0.16813  0.48975  0.39984  1.0000
  C   C1221     1.0  0.18522  0.47934  0.38897  1.0000
  C   C1222     1.0  0.17757  0.47648  0.37689  1.0000
  C   C1223     1.0  0.15242  0.48373  0.37607  1.0000
  P   P42       1.0  0.19955  0.46099  0.36359  1.0000
  C   C1224     1.0  0.22739  0.47346  0.35939  1.0000
  C   C1225     1.0  0.20660  0.42868  0.37147  1.0000
  C   C1226     1.0  0.22869  0.41379  0.36592  1.0000
  C   C1227     1.0  0.23478  0.38912  0.37250  1.0000
  C   C1228     1.0  0.21874  0.37905  0.38450  1.0000
  C   C1229     1.0  0.19648  0.39360  0.38987  1.0000
  C   C1230     1.0  0.19040  0.41831  0.38340  1.0000
  C   C1231     1.0  0.23078  0.49363  0.34810  1.0000
  C   C1232     1.0  0.25212  0.50338  0.34519  1.0000
  C   C1233     1.0  0.27036  0.49305  0.35346  1.0000
  C   C1234     1.0  0.26710  0.47311  0.36476  1.0000
  C   C1235     1.0  0.24566  0.46351  0.36782  1.0000
  C   C1236     1.0  0.18722  0.46536  0.34743  1.0000
  C   C1237     1.0  0.17596  0.48890  0.34109  1.0000
  C   C1238     1.0  0.16678  0.49232  0.32851  1.0000
  C   C1239     1.0  0.16872  0.47241  0.32211  1.0000
  C   C1240     1.0  0.17957  0.44889  0.32841  1.0000
  C   C1241     1.0  0.18870  0.44532  0.34104  1.0000
  H   H954      1.0  0.11637  0.50137  0.38578  1.0000
  H   H955      1.0  0.13062  0.50710  0.40678  1.0000
  H   H956      1.0  0.17410  0.49204  0.40912  1.0000
  H   H957      1.0  0.20435  0.47365  0.39008  1.0000
  H   H958      1.0  0.14569  0.48101  0.36721  1.0000
  H   H959      1.0  0.24138  0.42139  0.35669  1.0000
  H   H960      1.0  0.25209  0.37785  0.36843  1.0000
  H   H961      1.0  0.22360  0.36002  0.38970  1.0000
  H   H962      1.0  0.18399  0.38586  0.39918  1.0000
  H   H963      1.0  0.17316  0.42928  0.38784  1.0000
  H   H964      1.0  0.21687  0.50245  0.34169  1.0000
  H   H965      1.0  0.25401  0.51952  0.33679  1.0000
  H   H966      1.0  0.28657  0.50103  0.35149  1.0000
  H   H967      1.0  0.28054  0.46591  0.37169  1.0000
  H   H968      1.0  0.24314  0.44879  0.37705  1.0000
  H   H969      1.0  0.17417  0.50472  0.34585  1.0000
  H   H970      1.0  0.15814  0.51049  0.32368  1.0000
  H   H971      1.0  0.16179  0.47532  0.31225  1.0000
  H   H972      1.0  0.18103  0.43349  0.32340  1.0000
  H   H973      1.0  0.19701  0.42695  0.34568  1.0000
  C   C1242     1.0  0.28022  0.55053  0.41051  1.0000
  C   C1243     1.0  0.21310  0.63388  0.41494  1.0000
  H   H974      1.0  0.41694  0.41983  0.45567  1.0000
  C   C1244     1.0  0.46386  0.34461  0.26339  1.0000
  H   H975      1.0  0.17471  0.37883  0.24302  1.0000
  C   C1245     1.0  0.36443  0.32102  0.32019  1.0000
  H   H976      1.0  0.29579  0.58362  0.22703  1.0000
  C   C1246     1.0  0.23038  0.32961  0.45275  1.0000
  H   H977      1.0  0.31883  0.64712  0.45916  1.0000
  C   C1247     1.0  0.02329  0.54462  0.40854  1.0000
  C   C1248     1.0  0.44861  0.33378  0.23113  1.0000
  C   C1249     1.0  0.01611  0.52631  0.38172  1.0000
  C   C1250     1.0  0.01553  0.52073  0.36861  1.0000
  C   C1251     1.0  0.48883  0.34536  0.25815  1.0000
  H   H978      1.0  0.26091  0.35047  0.24216  1.0000
  Fe  Fe89      1.0  0.39164  0.31995  0.24589  1.0000
  C   C1252     1.0  0.02312  0.56978  0.40648  1.0000
  C   C1253     1.0  0.04506  0.57787  0.40500  1.0000
  C   C1254     1.0  0.06727  0.56098  0.40555  1.0000
  C   C1255     1.0  0.06754  0.53590  0.40776  1.0000
  C   C1256     1.0  0.04566  0.52771  0.40923  1.0000
  Fe  Fe90      1.0  0.18142  0.52586  0.23102  1.0000
  C   C1257     1.0  0.26701  0.62989  0.26011  1.0000
  C   C1258     1.0  0.46427  0.43710  0.41795  1.0000
  H   H979      1.0  0.29239  0.39627  0.47318  1.0000
  H   H980      1.0  0.29339  0.33991  0.31273  1.0000
  H   H981      1.0  0.27543  0.52438  0.47319  1.0000
  C   C1259     1.0  0.34279  0.34510  0.39606  1.0000
  H   H982      1.0  0.20862  0.59243  0.30773  1.0000
  C   C1260     1.0  0.33518  0.32674  0.42592  1.0000
  P   P43       1.0  0.99538  0.53374  0.40990  1.0000
  C   C1261     1.0  0.44233  0.40764  0.37202  1.0000
  H   H983      1.0  0.03261  0.53136  0.38279  1.0000
  H   H984      1.0  0.03129  0.52168  0.35982  1.0000
  H   H985      1.0  0.30757  0.44806  0.23058  1.0000
  C   C1262     1.0  0.45663  0.32238  0.27025  1.0000
  H   H986      1.0  0.13968  0.49493  0.23474  1.0000
  H   H987      1.0  0.14998  0.38066  0.26746  1.0000
  C   C1263     1.0  0.17111  0.39560  0.24714  1.0000
  H   H988      1.0  0.08433  0.56746  0.40392  1.0000
  H   H989      1.0  0.08480  0.52289  0.40809  1.0000
  H   H990      1.0  0.04625  0.50823  0.41066  1.0000
  H   H991      1.0  0.45587  0.34546  0.40692  1.0000
  H   H992      1.0  0.02593  0.43665  0.26472  1.0000
  H   H993      1.0  0.22331  0.48812  0.30906  1.0000
  H   H994      1.0  0.01753  0.49965  0.28324  1.0000
  C   C1264     1.0  0.29473  0.34498  0.46060  1.0000
  C   C1265     1.0  0.22014  0.56535  0.46390  1.0000
  C   C1266     1.0  0.16094  0.43878  0.25790  1.0000
  C   C1267     1.0  0.25356  0.41384  0.41857  1.0000
  C   C1268     1.0  0.26086  0.37056  0.42930  1.0000
  H   H995      1.0  0.21813  0.42884  0.41260  1.0000
  Fe  Fe91      1.0  0.15904  0.62055  0.36371  1.0000
  C   C1269     1.0  0.32006  0.33980  0.45468  1.0000
  H   H996      1.0  0.44840  0.37832  0.32122  1.0000
  C   C1270     1.0  0.41271  0.45005  0.42386  1.0000
  C   C1271     1.0  0.40479  0.42718  0.46469  1.0000
  H   H997      1.0  0.04513  0.59735  0.40284  1.0000
  C   C1272     1.0  0.45259  0.45906  0.42272  1.0000
  C   C1273     1.0  0.46290  0.39249  0.39250  1.0000
  C   C1274     1.0  0.29935  0.36284  0.34911  1.0000
  C   C1275     1.0  0.00170  0.50527  0.24974  1.0000
  H   H998      1.0  0.24685  0.63369  0.37834  1.0000
  C   C1276     1.0  0.34543  0.36270  0.35448  1.0000
  C   C1277     1.0  0.33236  0.38421  0.34711  1.0000
  C   C1278     1.0  0.30904  0.38425  0.34466  1.0000
  P   P44       1.0  0.34559  0.41144  0.34097  1.0000
  C   C1279     1.0  0.33116  0.43113  0.32649  1.0000
  C   C1280     1.0  0.33973  0.42829  0.35537  1.0000
  C   C1281     1.0  0.32979  0.41815  0.36960  1.0000
  C   C1282     1.0  0.32387  0.43207  0.38041  1.0000
  C   C1283     1.0  0.32829  0.45595  0.37718  1.0000
  C   C1284     1.0  0.33822  0.46614  0.36308  1.0000
  C   C1285     1.0  0.34378  0.45245  0.35219  1.0000
  C   C1286     1.0  0.34093  0.42889  0.31209  1.0000
  H   H999      1.0  0.24374  0.43192  0.28378  1.0000
  C   C1287     1.0  0.30707  0.46021  0.30432  1.0000
  C   C1288     1.0  0.29749  0.46294  0.31858  1.0000
  C   C1289     1.0  0.30928  0.44827  0.32965  1.0000
  C   C1290     1.0  0.37824  0.40172  0.33430  1.0000
  C   C1291     1.0  0.38641  0.38204  0.32689  1.0000
  S   S173      1.0  0.39518  0.38131  0.37193  1.0000
  C   C1292     1.0  0.22218  0.39003  0.42149  1.0000
  C   C1293     1.0  0.00646  0.51448  0.28846  1.0000
  C   C1294     1.0  0.39576  0.41298  0.33681  1.0000
  P   P45       1.0  0.46457  0.39217  0.41085  1.0000
  C   C1295     1.0  0.21149  0.64382  0.37184  1.0000
  H   H1000     1.0  0.27725  0.61317  0.26554  1.0000
  H   H1001     1.0  0.36335  0.36239  0.35665  1.0000
  H   H1002     1.0  0.29849  0.40059  0.33912  1.0000
  H   H1003     1.0  0.32670  0.39953  0.37242  1.0000
  H   H1004     1.0  0.31624  0.42433  0.39141  1.0000
  H   H1005     1.0  0.32410  0.46649  0.38566  1.0000
  H   H1006     1.0  0.34165  0.48465  0.36064  1.0000
  H   H1007     1.0  0.35128  0.46067  0.34128  1.0000
  H   H1008     1.0  0.25640  0.58897  0.29843  1.0000
  H   H1009     1.0  0.29764  0.47117  0.29577  1.0000
  H   H1010     1.0  0.28079  0.47631  0.32106  1.0000
  H   H1011     1.0  0.30119  0.45018  0.34067  1.0000
  H   H1012     1.0  0.37340  0.37271  0.32498  1.0000
  H   H1013     1.0  0.25957  0.43131  0.41532  1.0000
  H   H1014     1.0  0.43787  0.38732  0.44081  1.0000
  H   H1015     1.0  0.39021  0.42753  0.34291  1.0000
  C   C1296     1.0  0.27444  0.62394  0.41089  1.0000
  H   H1016     1.0  0.12491  0.35831  0.43225  1.0000
  S   S174      1.0  0.37388  0.35087  0.25769  1.0000
  C   C1297     1.0  0.45882  0.39020  0.36471  1.0000
  H   H1017     1.0  0.33624  0.44116  0.29001  1.0000
  S   S175      1.0  0.18651  0.55712  0.23973  1.0000
  P   P46       1.0  0.22420  0.61558  0.27771  1.0000
  C   C1298     1.0  0.31609  0.38199  0.30335  1.0000
  C   C1299     1.0  0.23159  0.46930  0.30797  1.0000
  C   C1300     1.0  0.45155  0.37581  0.23008  1.0000
  H   H1018     1.0  0.12990  0.32271  0.46214  1.0000
  H   H1019     1.0  0.27914  0.57988  0.44116  1.0000
  H   H1020     1.0  0.17859  0.61389  0.24082  1.0000
  H   H1021     1.0  0.99363  0.46150  0.28021  1.0000
  C   C1301     1.0  0.36848  0.31786  0.30587  1.0000
  H   H1022     1.0  0.43436  0.41328  0.33411  1.0000
  Fe  Fe92      1.0  0.41757  0.34332  0.37107  1.0000
  C   C1302     1.0  0.33238  0.35215  0.42052  1.0000
  C   C1303     1.0  0.37943  0.42827  0.46691  1.0000
  C   C1304     1.0  0.42887  0.38511  0.32467  1.0000
  C   C1305     1.0  0.32882  0.44327  0.30108  1.0000
  Fe  Fe93      1.0  0.34455  0.35810  0.24449  1.0000
  C   C1306     1.0  0.26834  0.60442  0.42197  1.0000
  C   C1307     1.0  0.31271  0.34130  0.35610  1.0000
  H   H1023     1.0  0.41979  0.36001  0.24105  1.0000
  H   H1024     1.0  0.28683  0.39404  0.42610  1.0000
  H   H1025     1.0  0.43408  0.43475  0.47241  1.0000
  C   C1308     1.0  0.16189  0.34449  0.42170  1.0000
  H   H1026     1.0  0.21560  0.40121  0.29661  1.0000
  H   H1027     1.0  0.22749  0.38818  0.32968  1.0000
  C   C1309     1.0  0.26527  0.35877  0.28501  1.0000
  H   H1028     1.0  0.23927  0.59036  0.39115  1.0000
  C   C1310     1.0  0.27365  0.32589  0.33358  1.0000
  H   H1029     1.0  0.26015  0.56409  0.37356  1.0000
  C   C1311     1.0  0.29743  0.39007  0.29515  1.0000
  C   C1312     1.0  0.25382  0.57509  0.39397  1.0000
  C   C1313     1.0  0.99405  0.46610  0.44701  1.0000
  C   C1314     1.0  0.19704  0.61418  0.27162  1.0000
  H   H1030     1.0  0.46347  0.47110  0.42419  1.0000
  C   C1315     1.0  0.23263  0.37785  0.23292  1.0000
  H   H1031     1.0  0.44345  0.39355  0.23297  1.0000
  C   C1316     1.0  0.42683  0.46552  0.42570  1.0000
  H   H1032     1.0  0.27277  0.35462  0.43428  1.0000
  C   C1317     1.0  0.33570  0.34128  0.35884  1.0000
  P   P47       1.0  0.22721  0.33994  0.43408  1.0000
  H   H1033     1.0  0.18255  0.35901  0.45333  1.0000
  S   S176      1.0  0.22160  0.50795  0.22847  1.0000
  H   H1034     1.0  0.19644  0.38360  0.28234  1.0000
  H   H1035     1.0  0.30542  0.32456  0.35928  1.0000
  C   C1318     1.0  0.24274  0.43732  0.29386  1.0000
  C   C1319     1.0  0.09036  0.33266  0.46821  1.0000
  H   H1036     1.0  0.14030  0.60684  0.25848  1.0000
  C   C1320     1.0  0.23673  0.35296  0.34314  1.0000
  C   C1321     1.0  0.24138  0.45268  0.31924  1.0000
  C   C1322     1.0  0.44834  0.36903  0.42256  1.0000
  C   C1323     1.0  0.23753  0.36887  0.42761  1.0000
  H   H1037     1.0  0.36045  0.60659  0.23175  1.0000
  H   H1038     1.0  0.22047  0.35616  0.35145  1.0000
  C   C1324     1.0  0.17751  0.61328  0.25215  1.0000
  H   H1039     1.0  0.35774  0.41592  0.30929  1.0000
  C   C1325     1.0  0.30012  0.38047  0.46809  1.0000
  C   C1326     1.0  0.15199  0.41818  0.26635  1.0000
  C   C1327     1.0  0.42433  0.42819  0.41906  1.0000
  C   C1328     1.0  0.21504  0.62722  0.29434  1.0000
  C   C1329     1.0  0.45016  0.42146  0.41607  1.0000
  H   H1040     1.0  0.02212  0.60344  0.37822  1.0000
  S   S177      1.0  0.32138  0.33353  0.26075  1.0000
  Fe  Fe94      1.0  0.42282  0.55824  0.47145  1.0000
  C   C1330     1.0  0.19482  0.34488  0.43356  1.0000
  C   C1331     1.0  0.17518  0.63852  0.40645  1.0000
  S   S178      1.0  0.99770  0.57174  0.34187  1.0000
  H   H1041     1.0  0.25961  0.41581  0.32658  1.0000
  C   C1332     1.0  0.15707  0.39658  0.26097  1.0000
  H   H1042     1.0  0.21481  0.61774  0.24910  1.0000
  C   C1333     1.0  0.25699  0.57713  0.29115  1.0000
  H   H1043     1.0  0.10815  0.47144  0.23497  1.0000
  C   C1334     1.0  0.23021  0.41242  0.41699  1.0000
  P   P48       1.0  0.24523  0.58849  0.42087  1.0000
  C   C1335     1.0  0.27197  0.55371  0.29280  1.0000
  C   C1336     1.0  0.27362  0.53829  0.28330  1.0000
  C   C1337     1.0  0.26034  0.54630  0.27214  1.0000
  C   C1338     1.0  0.24510  0.56955  0.27058  1.0000
  H   H1044     1.0  0.17413  0.60822  0.29297  1.0000
  C   C1339     1.0  0.26685  0.32168  0.41343  1.0000
  H   H1045     1.0  0.28608  0.54654  0.42078  1.0000
  C   C1340     1.0  0.26183  0.36705  0.31999  1.0000
  C   C1341     1.0  0.25177  0.37829  0.29180  1.0000
  H   H1046     1.0  0.22073  0.34940  0.27015  1.0000
  C   C1342     1.0  0.14440  0.35467  0.43254  1.0000
  H   H1047     1.0  0.22528  0.36634  0.45684  1.0000
  C   C1343     1.0  0.28519  0.54086  0.38696  1.0000
  H   H1048     1.0  0.28444  0.35139  0.28582  1.0000
  H   H1049     1.0  0.40179  0.48653  0.45771  1.0000
  H   H1050     1.0  0.21207  0.62581  0.36996  1.0000
  C   C1344     1.0  0.21694  0.54161  0.46457  1.0000
  C   C1345     1.0  0.19801  0.40569  0.47257  1.0000
  C   C1346     1.0  0.00074  0.46991  0.26926  1.0000
  H   H1051     1.0  0.18176  0.45409  0.23773  1.0000
  C   C1347     1.0  0.22883  0.57956  0.45063  1.0000
  H   H1052     1.0  0.37199  0.42151  0.45969  1.0000
  H   H1053     1.0  0.28538  0.52025  0.28444  1.0000
  H   H1054     1.0  0.26197  0.53463  0.26454  1.0000
  H   H1055     1.0  0.23519  0.57531  0.26175  1.0000
  C   C1348     1.0  0.20111  0.62023  0.32037  1.0000
  H   H1056     1.0  0.41315  0.41629  0.41784  1.0000
  C   C1349     1.0  0.41161  0.37374  0.32217  1.0000
  H   H1057     1.0  0.31193  0.37466  0.31477  1.0000
  H   H1058     1.0  0.33471  0.38075  0.40163  1.0000
  H   H1059     1.0  0.34617  0.32453  0.36416  1.0000
  C   C1350     1.0  0.47758  0.37411  0.37114  1.0000
  H   H1060     1.0  0.26526  0.36967  0.47162  1.0000
  C   C1351     1.0  0.01909  0.45580  0.26055  1.0000
  C   C1352     1.0  0.17530  0.61023  0.28152  1.0000
  C   C1353     1.0  0.02006  0.49109  0.24107  1.0000
  H   H1061     1.0  0.26467  0.46793  0.24016  1.0000
  C   C1354     1.0  0.17903  0.61310  0.40772  1.0000
  C   C1355     1.0  0.30031  0.60831  0.43352  1.0000
  H   H1062     1.0  0.22976  0.38905  0.24092  1.0000
  C   C1356     1.0  0.19999  0.59808  0.41246  1.0000
  C   C1357     1.0  0.43689  0.37167  0.43673  1.0000
  H   H1063     1.0  0.19603  0.60789  0.33044  1.0000
  H   H1064     1.0  0.32831  0.36512  0.42762  1.0000
  C   C1358     1.0  0.28484  0.36534  0.46722  1.0000
  H   H1065     1.0  0.26522  0.62957  0.40178  1.0000
  H   H1066     1.0  0.28161  0.36289  0.34697  1.0000
  H   H1067     1.0  0.41178  0.32059  0.44761  1.0000
  H   H1068     1.0  0.16599  0.60499  0.40482  1.0000
  C   C1359     1.0  0.19803  0.61548  0.25691  1.0000
  S   S179      1.0  0.17400  0.39245  0.47127  1.0000
  C   C1360     1.0  0.24116  0.63591  0.26389  1.0000
  C   C1361     1.0  0.00259  0.54214  0.30462  1.0000
  C   C1362     1.0  0.20836  0.61149  0.30747  1.0000
  C   C1363     1.0  0.15478  0.60814  0.27670  1.0000
  H   H1069     1.0  0.28240  0.54762  0.30139  1.0000
  H   H1070     1.0  0.49000  0.36015  0.36563  1.0000
  H   H1071     1.0  0.22585  0.64240  0.41774  1.0000
  H   H1072     1.0  0.31081  0.60187  0.44209  1.0000
  H   H1073     1.0  0.34706  0.35216  0.38460  1.0000
  H   H1074     1.0  0.20030  0.33229  0.41352  1.0000
  C   C1364     1.0  0.42231  0.33380  0.44073  1.0000
  H   H1075     1.0  0.00632  0.58329  0.40568  1.0000
  C   C1365     1.0  0.44417  0.40867  0.38592  1.0000
  C   C1366     1.0  0.18015  0.41626  0.23859  1.0000
  H   H1076     1.0  0.26474  0.33341  0.27198  1.0000
  C   C1367     1.0  0.20014  0.64485  0.32032  1.0000
  H   H1077     1.0  0.08971  0.35215  0.46427  1.0000
  H   H1078     1.0  0.99370  0.51125  0.35628  1.0000
  H   H1079     1.0  0.00887  0.48623  0.45786  1.0000
  C   C1368     1.0  0.25020  0.35599  0.23368  1.0000
  H   H1080     1.0  0.42733  0.41959  0.36718  1.0000
  H   H1081     1.0  0.21570  0.57284  0.47362  1.0000
  C   C1369     1.0  0.30540  0.62853  0.42279  1.0000
  S   S180      1.0  0.34323  0.32321  0.29717  1.0000
  S   S181      1.0  0.42034  0.52367  0.46487  1.0000
  H   H1082     1.0  0.43054  0.42166  0.39153  1.0000
  H   H1083     1.0  0.34585  0.32698  0.32576  1.0000
  H   H1084     1.0  0.00932  0.52240  0.43807  1.0000
  C   C1370     1.0  0.34527  0.31985  0.40128  1.0000
  H   H1085     1.0  0.02780  0.49916  0.23015  1.0000
  H   H1086     1.0  0.15592  0.34015  0.41301  1.0000
  C   C1371     1.0  0.00249  0.48638  0.44821  1.0000
  C   C1372     1.0  0.44711  0.34820  0.41771  1.0000
  C   C1373     1.0  0.34884  0.57776  0.22587  1.0000
  C   C1374     1.0  0.27983  0.64521  0.24893  1.0000
  Fe  Fe95      1.0  0.45543  0.59449  0.47062  1.0000
  C   C1375     1.0  0.19203  0.64886  0.41024  1.0000
  H   H1087     1.0  0.99387  0.45023  0.45572  1.0000
  H   H1088     1.0  0.38117  0.31844  0.33842  1.0000
  H   H1089     1.0  0.49186  0.35634  0.43180  1.0000
  Fe  Fe96      1.0  0.39928  0.61090  0.47419  1.0000
  C   C1376     1.0  0.41440  0.43564  0.47409  1.0000
  H   H1090     1.0  0.14357  0.41829  0.22488  1.0000
  C   C1377     1.0  0.11476  0.48358  0.22518  1.0000
  C   C1378     1.0  0.13268  0.49687  0.22507  1.0000
  S   S182      1.0  0.42466  0.56078  0.52229  1.0000
  Fe  Fe97      1.0  0.14757  0.35173  0.52395  1.0000
  S   S183      1.0  0.12690  0.38106  0.50879  1.0000
  S   S184      1.0  0.15056  0.35596  0.54608  1.0000
  C   C1379     1.0  0.46700  0.50149  0.68595  1.0000
  Fe  Fe98      1.0  0.10937  0.35124  0.50641  1.0000
  S   S185      1.0  0.06889  0.36075  0.50448  1.0000
  S   S186      1.0  0.17983  0.34097  0.50671  1.0000
  C   C1380     1.0  0.48756  0.48480  0.68074  1.0000
  Fe  Fe99      1.0  0.24651  0.39525  0.57698  1.0000
  S   S187      1.0  0.28278  0.40142  0.57930  1.0000
  S   S188      1.0  0.24089  0.39502  0.55475  1.0000
  Fe  Fe100     1.0  0.22509  0.39400  0.60875  1.0000
  S   S189      1.0  0.25937  0.40010  0.61391  1.0000
  S   S190      1.0  0.19241  0.38591  0.62618  1.0000
  Fe  Fe101     1.0  0.26089  0.42818  0.59332  1.0000
  S   S191      1.0  0.27015  0.46616  0.58893  1.0000
  Fe  Fe102     1.0  0.27870  0.37298  0.59961  1.0000
  S   S192      1.0  0.31238  0.34460  0.60382  1.0000
  S   S193      1.0  0.22473  0.42444  0.58930  1.0000
  S   S194      1.0  0.24445  0.36438  0.59612  1.0000
  S   S195      1.0  0.08178  0.44668  0.67376  1.0000
  Fe  Fe103     1.0  0.42252  0.57621  0.49880  1.0000
  H   H1091     1.0  0.01613  0.35715  0.64912  1.0000
  C   C1381     1.0  0.00523  0.43479  0.72189  1.0000
  Fe  Fe104     1.0  0.07318  0.46292  0.65175  1.0000
  S   S196      1.0  0.10266  0.47457  0.63332  1.0000
  C   C1382     1.0  0.49085  0.51412  0.60443  1.0000
  S   S197      1.0  0.34657  0.55601  0.63613  1.0000
  Fe  Fe105     1.0  0.34398  0.58062  0.59554  1.0000
  S   S198      1.0  0.36875  0.54535  0.60323  1.0000
  C   C1383     1.0  0.38425  0.62706  0.67531  1.0000
  Fe  Fe106     1.0  0.33607  0.53828  0.62070  1.0000
  S   S199      1.0  0.32455  0.50129  0.62815  1.0000
  Fe  Fe107     1.0  0.37719  0.56624  0.61784  1.0000
  S   S200      1.0  0.41760  0.56286  0.61859  1.0000
  S   S201      1.0  0.31060  0.57213  0.61208  1.0000
  S   S202      1.0  0.42688  0.61415  0.48668  1.0000
  C   C1384     1.0  0.46466  0.64474  0.61836  1.0000
  C   C1385     1.0  0.48839  0.47634  0.66827  1.0000
  C   C1386     1.0  0.01832  0.33442  0.55520  1.0000
  C   C1387     1.0  0.17734  0.33797  0.70447  1.0000
  S   S203      1.0  0.46299  0.56623  0.67181  1.0000
  H   H1092     1.0  0.09694  0.36798  0.55765  1.0000
  H   H1093     1.0  0.26625  0.57382  0.72109  1.0000
  C   C1388     1.0  0.35948  0.55285  0.68051  1.0000
  H   H1094     1.0  0.22032  0.61008  0.66208  1.0000
  C   C1389     1.0  0.42962  0.56355  0.63365  1.0000
  C   C1390     1.0  0.41436  0.56821  0.64665  1.0000
  C   C1391     1.0  0.42476  0.56900  0.65827  1.0000
  C   C1392     1.0  0.45051  0.56460  0.65708  1.0000
  C   C1393     1.0  0.46573  0.55957  0.64413  1.0000
  C   C1394     1.0  0.45530  0.55930  0.63245  1.0000
  H   H1095     1.0  0.39458  0.57155  0.64760  1.0000
  H   H1096     1.0  0.41283  0.57314  0.66819  1.0000
  C   C1395     1.0  0.36719  0.47538  0.52352  1.0000
  H   H1097     1.0  0.46722  0.55584  0.62240  1.0000
  C   C1396     1.0  0.37290  0.44804  0.48739  1.0000
  C   C1397     1.0  0.07881  0.51255  0.69052  1.0000
  C   C1398     1.0  0.09274  0.52964  0.69079  1.0000
  C   C1399     1.0  0.08423  0.54595  0.70045  1.0000
  C   C1400     1.0  0.06166  0.54474  0.71003  1.0000
  H   H1098     1.0  0.08554  0.50005  0.68308  1.0000
  H   H1099     1.0  0.11027  0.53024  0.68349  1.0000
  C   C1401     1.0  0.28496  0.47559  0.60012  1.0000
  C   C1402     1.0  0.29067  0.46047  0.61295  1.0000
  C   C1403     1.0  0.30271  0.46859  0.62148  1.0000
  C   C1404     1.0  0.30927  0.49178  0.61721  1.0000
  C   C1405     1.0  0.30347  0.50693  0.60440  1.0000
  C   C1406     1.0  0.29118  0.49894  0.59598  1.0000
  H   H1100     1.0  0.28594  0.44248  0.61626  1.0000
  H   H1101     1.0  0.30722  0.45671  0.63133  1.0000
  H   H1102     1.0  0.30855  0.52476  0.60094  1.0000
  H   H1103     1.0  0.28675  0.51082  0.58610  1.0000
  C   C1407     1.0  0.16675  0.41011  0.62727  1.0000
  C   C1408     1.0  0.14559  0.40666  0.63773  1.0000
  C   C1409     1.0  0.12561  0.42631  0.63947  1.0000
  C   C1410     1.0  0.12662  0.44937  0.63059  1.0000
  C   C1411     1.0  0.14733  0.45253  0.61977  1.0000
  C   C1412     1.0  0.16741  0.43297  0.61815  1.0000
  H   H1104     1.0  0.14480  0.38888  0.64467  1.0000
  H   H1105     1.0  0.10960  0.42364  0.64781  1.0000
  H   H1106     1.0  0.14803  0.47023  0.61280  1.0000
  H   H1107     1.0  0.18359  0.43591  0.61011  1.0000
  S   S204      1.0  0.39284  0.57447  0.48789  1.0000
  H   H1108     1.0  0.03015  0.34853  0.70229  1.0000
  H   H1109     1.0  0.49129  0.60042  0.65022  1.0000
  H   H1110     1.0  0.09689  0.32311  0.62428  1.0000
  C   C1413     1.0  0.25368  0.35597  0.67530  1.0000
  C   C1414     1.0  0.48997  0.63485  0.61665  1.0000
  C   C1415     1.0  0.38221  0.49567  0.49927  1.0000
  C   C1416     1.0  0.39388  0.50458  0.51951  1.0000
  C   C1417     1.0  0.28908  0.61319  0.68592  1.0000
  H   H1111     1.0  0.41296  0.64733  0.66485  1.0000
  C   C1418     1.0  0.15973  0.40289  0.67267  1.0000
  H   H1112     1.0  0.08772  0.33105  0.69714  1.0000
  C   C1419     1.0  0.04244  0.33170  0.67854  1.0000
  C   C1420     1.0  0.20389  0.40434  0.48591  1.0000
  C   C1421     1.0  0.48953  0.51658  0.50631  1.0000
  C   C1422     1.0  0.30185  0.64147  0.64212  1.0000
  C   C1423     1.0  0.02599  0.34612  0.50536  1.0000
  H   H1113     1.0  0.35453  0.60712  0.68281  1.0000
  C   C1424     1.0  0.08439  0.34452  0.70384  1.0000
  H   H1114     1.0  0.46673  0.50864  0.69534  1.0000
  C   C1425     1.0  0.17627  0.36613  0.54826  1.0000
  C   C1426     1.0  0.18010  0.36448  0.56223  1.0000
  C   C1427     1.0  0.20017  0.37267  0.56434  1.0000
  C   C1428     1.0  0.21626  0.38319  0.55251  1.0000
  C   C1429     1.0  0.21249  0.38476  0.53855  1.0000
  C   C1430     1.0  0.19268  0.37616  0.53641  1.0000
  H   H1115     1.0  0.16751  0.35678  0.57145  1.0000
  H   H1116     1.0  0.20300  0.37114  0.57514  1.0000
  H   H1117     1.0  0.22486  0.39280  0.52932  1.0000
  H   H1118     1.0  0.18990  0.37762  0.52561  1.0000
  C   C1431     1.0  0.40048  0.57089  0.53600  1.0000
  C   C1432     1.0  0.40395  0.56409  0.55031  1.0000
  C   C1433     1.0  0.38512  0.57161  0.56157  1.0000
  C   C1434     1.0  0.36259  0.58590  0.55860  1.0000
  C   C1435     1.0  0.35903  0.59264  0.54428  1.0000
  C   C1436     1.0  0.37793  0.58517  0.53299  1.0000
  H   H1119     1.0  0.42134  0.55305  0.55271  1.0000
  H   H1120     1.0  0.38813  0.56646  0.57252  1.0000
  H   H1121     1.0  0.37503  0.59039  0.52199  1.0000
  H   H1122     1.0  0.33643  0.59444  0.49214  1.0000
  C   C1437     1.0  0.29077  0.56565  0.56447  1.0000
  H   H1123     1.0  0.06866  0.40621  0.70246  1.0000
  C   C1438     1.0  0.24759  0.60585  0.69576  1.0000
  C   C1439     1.0  0.27982  0.55367  0.55736  1.0000
  C   C1440     1.0  0.36309  0.51526  0.56041  1.0000
  C   C1441     1.0  0.27952  0.51542  0.52684  1.0000
  H   H1124     1.0  0.29287  0.33264  0.57661  1.0000
  H   H1125     1.0  0.03050  0.52659  0.71732  1.0000
  C   C1442     1.0  0.25854  0.35667  0.66045  1.0000
  C   C1443     1.0  0.29296  0.53141  0.67332  1.0000
  C   C1444     1.0  0.36784  0.47937  0.50863  1.0000
  H   H1126     1.0  0.07980  0.62756  0.69332  1.0000
  H   H1127     1.0  0.20776  0.49435  0.70023  1.0000
  C   C1445     1.0  0.31186  0.59403  0.51279  1.0000
  Fe  Fe108     1.0  0.15778  0.36812  0.49143  1.0000
  H   H1128     1.0  0.19067  0.60540  0.71734  1.0000
  C   C1446     1.0  0.04979  0.33878  0.50859  1.0000
  C   C1447     1.0  0.08624  0.33669  0.71841  1.0000
  H   H1129     1.0  0.09662  0.33346  0.64766  1.0000
  C   C1448     1.0  0.21529  0.35841  0.66141  1.0000
  C   C1449     1.0  0.30261  0.57953  0.52580  1.0000
  C   C1450     1.0  0.26580  0.50031  0.52415  1.0000
  C   C1451     1.0  0.19573  0.59618  0.68128  1.0000
  H   H1130     1.0  0.12891  0.45576  0.68413  1.0000
  C   C1452     1.0  0.07379  0.38685  0.70682  1.0000
  H   H1131     1.0  0.14347  0.43837  0.66181  1.0000
  H   H1132     1.0  0.47209  0.51873  0.51389  1.0000
  H   H1133     1.0  0.01539  0.45394  0.62539  1.0000
  C   C1453     1.0  0.05628  0.51143  0.70005  1.0000
  C   C1454     1.0  0.34483  0.52737  0.55236  1.0000
  H   H1134     1.0  0.20057  0.35992  0.65579  1.0000
  H   H1135     1.0  0.34163  0.60366  0.54189  1.0000
  C   C1455     1.0  0.23928  0.35822  0.65349  1.0000
  C   C1456     1.0  0.12951  0.58826  0.70998  1.0000
  C   C1457     1.0  0.44883  0.63891  0.63164  1.0000
  C   C1458     1.0  0.34193  0.48119  0.56972  1.0000
  C   C1459     1.0  0.09414  0.37213  0.63904  1.0000
  C   C1460     1.0  0.09546  0.34781  0.63817  1.0000
  C   C1461     1.0  0.09547  0.34201  0.62502  1.0000
  C   C1462     1.0  0.09390  0.36055  0.61275  1.0000
  C   C1463     1.0  0.09206  0.38508  0.61363  1.0000
  C   C1464     1.0  0.09260  0.39066  0.62682  1.0000
  P   P49       1.0  0.09054  0.40929  0.59793  1.0000
  C   C1465     1.0  0.12118  0.41468  0.58952  1.0000
  C   C1466     1.0  0.07802  0.40036  0.58492  1.0000
  C   C1467     1.0  0.05290  0.40787  0.58407  1.0000
  C   C1468     1.0  0.04372  0.40079  0.57391  1.0000
  C   C1469     1.0  0.05954  0.38641  0.56441  1.0000
  C   C1470     1.0  0.08452  0.37889  0.56514  1.0000
  C   C1471     1.0  0.09374  0.38574  0.57536  1.0000
  C   C1472     1.0  0.14084  0.40575  0.59696  1.0000
  C   C1473     1.0  0.16464  0.40913  0.59006  1.0000
  C   C1474     1.0  0.16897  0.42169  0.57579  1.0000
  C   C1475     1.0  0.14950  0.43075  0.56835  1.0000
  C   C1476     1.0  0.12565  0.42738  0.57519  1.0000
  C   C1477     1.0  0.07124  0.43625  0.60424  1.0000
  C   C1478     1.0  0.08024  0.45799  0.60175  1.0000
  C   C1479     1.0  0.06589  0.47805  0.60769  1.0000
  C   C1480     1.0  0.04246  0.47665  0.61608  1.0000
  C   C1481     1.0  0.03338  0.45510  0.61863  1.0000
  C   C1482     1.0  0.04786  0.43483  0.61297  1.0000
  H   H1136     1.0  0.09441  0.37679  0.64916  1.0000
  H   H1137     1.0  0.26207  0.51963  0.69806  1.0000
  C   C1483     1.0  0.44713  0.50955  0.67879  1.0000
  H   H1138     1.0  0.09425  0.35565  0.60263  1.0000
  H   H1139     1.0  0.09201  0.40935  0.62764  1.0000
  H   H1140     1.0  0.04031  0.41940  0.59104  1.0000
  H   H1141     1.0  0.35169  0.33460  0.61885  1.0000
  H   H1142     1.0  0.11326  0.37973  0.57563  1.0000
  H   H1143     1.0  0.13808  0.39596  0.60801  1.0000
  S   S205      1.0  0.07180  0.37881  0.68050  1.0000
  H   H1144     1.0  0.15305  0.43984  0.55715  1.0000
  H   H1145     1.0  0.11081  0.43428  0.56921  1.0000
  H   H1146     1.0  0.09860  0.45934  0.59566  1.0000
  H   H1147     1.0  0.07329  0.49444  0.60618  1.0000
  C   C1484     1.0  0.12939  0.33670  0.66941  1.0000
  H   H1148     1.0  0.05118  0.33692  0.47615  1.0000
  H   H1149     1.0  0.04096  0.41792  0.61566  1.0000
  H   H1150     1.0  0.30315  0.51843  0.68095  1.0000
  H   H1151     1.0  0.37830  0.52388  0.55996  1.0000
  H   H1152     1.0  0.15968  0.38721  0.70874  1.0000
  C   C1485     1.0  0.32682  0.48298  0.49337  1.0000
  H   H1153     1.0  0.26487  0.50026  0.51317  1.0000
  Fe  Fe109     1.0  0.32348  0.59068  0.62599  1.0000
  C   C1486     1.0  0.07624  0.37902  0.72129  1.0000
  H   H1154     1.0  0.24339  0.47283  0.53347  1.0000
  H   H1155     1.0  0.38644  0.54364  0.69412  1.0000
  C   C1487     1.0  0.25354  0.48498  0.53558  1.0000
  C   C1488     1.0  0.31556  0.40554  0.53691  1.0000
  H   H1156     1.0  0.32901  0.56267  0.66954  1.0000
  C   C1489     1.0  0.48737  0.44287  0.64560  1.0000
  H   H1157     1.0  0.31016  0.54149  0.47524  1.0000
  H   H1158     1.0  0.43159  0.52312  0.68259  1.0000
  C   C1490     1.0  0.06018  0.33826  0.54306  1.0000
  H   H1159     1.0  0.29060  0.43663  0.54442  1.0000
  H   H1160     1.0  0.31059  0.56376  0.56264  1.0000
  C   C1491     1.0  0.36462  0.61432  0.65965  1.0000
  C   C1492     1.0  0.33847  0.44003  0.51559  1.0000
  Fe  Fe110     1.0  0.05928  0.41954  0.67375  1.0000
  C   C1493     1.0  0.28813  0.48858  0.48528  1.0000
  H   H1161     1.0  0.26871  0.35480  0.68063  1.0000
  S   S206      1.0  0.13874  0.34070  0.48780  1.0000
  H   H1162     1.0  0.05256  0.38133  0.55635  1.0000
  C   C1494     1.0  0.25437  0.48532  0.54974  1.0000
  H   H1163     1.0  0.30557  0.45454  0.49669  1.0000
  C   C1495     1.0  0.28930  0.51306  0.47920  1.0000
  H   H1164     1.0  0.00017  0.41726  0.64957  1.0000
  H   H1165     1.0  0.30553  0.61376  0.51083  1.0000
  C   C1496     1.0  0.26628  0.54829  0.70790  1.0000
  C   C1497     1.0  0.38023  0.48789  0.52888  1.0000
  C   C1498     1.0  0.36663  0.61536  0.67349  1.0000
  H   H1166     1.0  0.28891  0.58837  0.53373  1.0000
  H   H1167     1.0  0.35517  0.54234  0.71680  1.0000
  C   C1499     1.0  0.43902  0.47480  0.64222  1.0000
  H   H1168     1.0  0.47338  0.43137  0.66838  1.0000
  C   C1500     1.0  0.44784  0.50114  0.66633  1.0000
  H   H1169     1.0  0.49082  0.60220  0.49110  1.0000
  H   H1170     1.0  0.31091  0.55076  0.71607  1.0000
  C   C1501     1.0  0.25554  0.64701  0.69117  1.0000
  C   C1502     1.0  0.14724  0.42726  0.67203  1.0000
  C   C1503     1.0  0.42468  0.49718  0.63672  1.0000
  C   C1504     1.0  0.40117  0.49810  0.63438  1.0000
  C   C1505     1.0  0.39163  0.47669  0.63761  1.0000
  C   C1506     1.0  0.40564  0.45432  0.64324  1.0000
  C   C1507     1.0  0.42926  0.45333  0.64555  1.0000
  H   H1171     1.0  0.27689  0.32411  0.62807  1.0000
  C   C1508     1.0  0.40524  0.63039  0.59962  1.0000
  H   H1172     1.0  0.31081  0.46714  0.52574  1.0000
  H   H1173     1.0  0.30638  0.39229  0.54502  1.0000
  H   H1174     1.0  0.19979  0.32982  0.64289  1.0000
  H   H1175     1.0  0.99919  0.40075  0.70454  1.0000
  H   H1176     1.0  0.37989  0.48448  0.54032  1.0000
  H   H1177     1.0  0.22714  0.41467  0.49706  1.0000
  C   C1509     1.0  0.15446  0.33956  0.71405  1.0000
  H   H1178     1.0  0.40627  0.52059  0.49734  1.0000
  C   C1510     1.0  0.32765  0.50774  0.48731  1.0000
  H   H1179     1.0  0.43253  0.50831  0.66076  1.0000
  H   H1180     1.0  0.20292  0.32985  0.61720  1.0000
  H   H1181     1.0  0.21972  0.63775  0.69989  1.0000
  C   C1511     1.0  0.03817  0.34716  0.66552  1.0000
  C   C1512     1.0  0.31799  0.44779  0.52594  1.0000
  H   H1182     1.0  0.43180  0.51392  0.63409  1.0000
  H   H1183     1.0  0.39047  0.51543  0.62991  1.0000
  H   H1184     1.0  0.37343  0.47746  0.63568  1.0000
  H   H1185     1.0  0.39821  0.43773  0.64570  1.0000
  H   H1186     1.0  0.19723  0.53060  0.71161  1.0000
  H   H1187     1.0  0.37314  0.55327  0.67062  1.0000
  H   H1188     1.0  0.36343  0.40828  0.50835  1.0000
  C   C1513     1.0  0.34764  0.41479  0.51615  1.0000
  C   C1514     1.0  0.16320  0.51317  0.59323  1.0000
  C   C1515     1.0  0.18181  0.49961  0.58439  1.0000
  C   C1516     1.0  0.20372  0.48752  0.58910  1.0000
  C   C1517     1.0  0.20687  0.48850  0.60273  1.0000
  C   C1518     1.0  0.18843  0.50224  0.61163  1.0000
  C   C1519     1.0  0.16654  0.51471  0.60673  1.0000
  P   P50       1.0  0.19362  0.50476  0.62878  1.0000
  C   C1520     1.0  0.21048  0.47537  0.63659  1.0000
  C   C1521     1.0  0.21223  0.52767  0.62587  1.0000
  C   C1522     1.0  0.20919  0.54193  0.63631  1.0000
  C   C1523     1.0  0.22372  0.55950  0.63409  1.0000
  C   C1524     1.0  0.24206  0.56230  0.62171  1.0000
  C   C1525     1.0  0.24593  0.54743  0.61160  1.0000
  C   C1526     1.0  0.23106  0.53025  0.61362  1.0000
  C   C1527     1.0  0.20291  0.45368  0.63683  1.0000
  C   C1528     1.0  0.21647  0.43080  0.64211  1.0000
  C   C1529     1.0  0.23803  0.42934  0.64698  1.0000
  C   C1530     1.0  0.24592  0.45080  0.64667  1.0000
  C   C1531     1.0  0.23222  0.47375  0.64153  1.0000
  C   C1532     1.0  0.16359  0.51321  0.63986  1.0000
  C   C1533     1.0  0.15049  0.49515  0.64830  1.0000
  C   C1534     1.0  0.12610  0.50179  0.65531  1.0000
  C   C1535     1.0  0.11460  0.52648  0.65408  1.0000
  C   C1536     1.0  0.15182  0.53805  0.63870  1.0000
  H   H1189     1.0  0.14604  0.52229  0.58968  1.0000
  H   H1190     1.0  0.17924  0.49832  0.57395  1.0000
  H   H1191     1.0  0.21833  0.47726  0.58223  1.0000
  H   H1192     1.0  0.22382  0.47863  0.60629  1.0000
  H   H1193     1.0  0.15175  0.52521  0.61335  1.0000
  H   H1194     1.0  0.19570  0.53942  0.64620  1.0000
  H   H1195     1.0  0.22092  0.57073  0.64206  1.0000
  H   H1196     1.0  0.25360  0.57566  0.62004  1.0000
  H   H1197     1.0  0.26074  0.54892  0.60228  1.0000
  H   H1198     1.0  0.23474  0.51872  0.60571  1.0000
  H   H1199     1.0  0.18671  0.45447  0.63270  1.0000
  H   H1200     1.0  0.21057  0.41415  0.64207  1.0000
  H   H1201     1.0  0.24887  0.41156  0.65071  1.0000
  H   H1202     1.0  0.26303  0.44964  0.65007  1.0000
  H   H1203     1.0  0.23911  0.49000  0.64109  1.0000
  H   H1204     1.0  0.15849  0.47591  0.64905  1.0000
  H   H1205     1.0  0.11571  0.48771  0.66120  1.0000
  H   H1206     1.0  0.16098  0.55234  0.63174  1.0000
  H   H1207     1.0  0.28881  0.52699  0.51773  1.0000
  H   H1208     1.0  0.12728  0.61697  0.68954  1.0000
  C   C1537     1.0  0.02346  0.35235  0.72409  1.0000
  H   H1209     1.0  0.00374  0.37490  0.68685  1.0000
  H   H1210     1.0  0.23453  0.59365  0.69945  1.0000
  C   C1538     1.0  0.39858  0.44576  0.48551  1.0000
  P   P51       1.0  0.28407  0.56412  0.69192  1.0000
  C   C1539     1.0  0.30670  0.47362  0.49238  1.0000
  C   C1540     1.0  0.31650  0.55703  0.69277  1.0000
  C   C1541     1.0  0.32418  0.55142  0.70606  1.0000
  C   C1542     1.0  0.34932  0.54665  0.70652  1.0000
  C   C1543     1.0  0.36696  0.54734  0.69376  1.0000
  C   C1544     1.0  0.19723  0.31943  0.70827  1.0000
  C   C1545     1.0  0.33636  0.32764  0.62627  1.0000
  C   C1546     1.0  0.26754  0.50086  0.55247  1.0000
  H   H1211     1.0  0.00968  0.34550  0.58204  1.0000
  C   C1547     1.0  0.07736  0.36956  0.69816  1.0000
  H   H1212     1.0  0.44716  0.61778  0.65344  1.0000
  H   H1213     1.0  0.07274  0.34816  0.53485  1.0000
  C   C1548     1.0  0.28130  0.55498  0.67595  1.0000
  C   C1549     1.0  0.01938  0.34511  0.65921  1.0000
  H   H1214     1.0  0.38391  0.49838  0.48772  1.0000
  C   C1550     1.0  0.28001  0.54138  0.65032  1.0000
  C   C1551     1.0  0.26868  0.56494  0.65279  1.0000
  C   C1552     1.0  0.26922  0.57172  0.66556  1.0000
  H   H1215     1.0  0.19350  0.39514  0.49566  1.0000
  H   H1216     1.0  0.23846  0.49861  0.72010  1.0000
  C   C1553     1.0  0.31116  0.55398  0.52841  1.0000
  C   C1554     1.0  0.32453  0.51678  0.55323  1.0000
  C   C1555     1.0  0.28051  0.63817  0.68618  1.0000
  H   H1217     1.0  0.34298  0.51558  0.48741  1.0000
  H   H1218     1.0  0.49052  0.55511  0.50165  1.0000
  C   C1556     1.0  0.39971  0.63793  0.66328  1.0000
  H   H1219     1.0  0.16593  0.39558  0.66286  1.0000
  C   C1557     1.0  0.13905  0.43701  0.68458  1.0000
  C   C1558     1.0  0.25394  0.55741  0.55975  1.0000
  C   C1559     1.0  0.32465  0.64782  0.63553  1.0000
  C   C1560     1.0  0.46844  0.48433  0.66099  1.0000
  H   H1220     1.0  0.28016  0.53630  0.64026  1.0000
  H   H1221     1.0  0.26058  0.57845  0.64449  1.0000
  H   H1222     1.0  0.26130  0.59041  0.66691  1.0000
  H   H1223     1.0  0.33588  0.52364  0.51967  1.0000
  C   C1561     1.0  0.23938  0.57233  0.56935  1.0000
  H   H1224     1.0  0.22608  0.35612  0.69469  1.0000
  H   H1225     1.0  0.24494  0.47339  0.55862  1.0000
  C   C1562     1.0  0.18834  0.53081  0.70295  1.0000
  S   S207      1.0  0.35469  0.60230  0.60869  1.0000
  H   H1226     1.0  0.27724  0.35603  0.65432  1.0000
  S   S208      1.0  0.29443  0.61490  0.63959  1.0000
  C   C1563     1.0  0.30889  0.52269  0.48037  1.0000
  C   C1564     1.0  0.16380  0.38794  0.68593  1.0000
  C   C1565     1.0  0.22291  0.41542  0.48668  1.0000
  H   H1227     1.0  0.05714  0.33358  0.68321  1.0000
  C   C1566     1.0  0.04787  0.52744  0.70987  1.0000
  H   H1228     1.0  0.01980  0.36494  0.50032  1.0000
  C   C1567     1.0  0.11378  0.57437  0.72283  1.0000
  S   S209      1.0  0.03848  0.48988  0.70025  1.0000
  C   C1568     1.0  0.30659  0.43061  0.53654  1.0000
  S   S210      1.0  0.02349  0.44146  0.68335  1.0000
  C   C1569     1.0  0.08868  0.61407  0.70131  1.0000
  C   C1570     1.0  0.21567  0.31648  0.62323  1.0000
  C   C1571     1.0  0.17998  0.64511  0.68450  1.0000
  C   C1572     1.0  0.29212  0.52461  0.66061  1.0000
  H   H1229     1.0  0.05462  0.55706  0.71752  1.0000
  H   H1230     1.0  0.02534  0.37140  0.72124  1.0000
  C   C1573     1.0  0.16471  0.34062  0.67793  1.0000
  C   C1574     1.0  0.31395  0.33100  0.62187  1.0000
  H   H1231     1.0  0.21945  0.57493  0.57123  1.0000
  C   C1575     1.0  0.03473  0.34719  0.54466  1.0000
  C   C1576     1.0  0.33616  0.39764  0.52678  1.0000
  H   H1232     1.0  0.34624  0.54539  0.54585  1.0000
  H   H1233     1.0  0.35696  0.46248  0.53107  1.0000
  C   C1577     1.0  0.20614  0.61465  0.67118  1.0000
  C   C1578     1.0  0.16949  0.62672  0.69456  1.0000
  C   C1579     1.0  0.36150  0.49230  0.56922  1.0000
  S   S211      1.0  0.33865  0.59560  0.57255  1.0000
  S   S212      1.0  0.45232  0.55688  0.48337  1.0000
  C   C1580     1.0  0.06944  0.31636  0.55174  1.0000
  H   H1234     1.0  0.11064  0.34378  0.66780  1.0000
  C   C1581     1.0  0.14360  0.42245  0.69777  1.0000
  H   H1235     1.0  0.40377  0.51452  0.52367  1.0000
  H   H1236     1.0  0.02437  0.40675  0.57326  1.0000
  H   H1237     1.0  0.42517  0.61515  0.61685  1.0000
  H   H1238     1.0  0.17982  0.40160  0.59575  1.0000
  C   C1582     1.0  0.14051  0.34983  0.67559  1.0000
  P   P52       1.0  0.35183  0.46262  0.50143  1.0000
  H   H1239     1.0  0.30151  0.50658  0.65845  1.0000
  H   H1240     1.0  0.02811  0.36391  0.53754  1.0000
  P   P53       1.0  0.17930  0.35632  0.68649  1.0000
  H   H1241     1.0  0.30841  0.60689  0.68175  1.0000
  H   H1242     1.0  0.35081  0.60551  0.65815  1.0000
  H   H1243     1.0  0.99683  0.36700  0.60251  1.0000
  Fe  Fe111     1.0  0.10009  0.61126  0.72000  1.0000
  H   H1244     1.0  0.24294  0.35908  0.64193  1.0000
  C   C1583     1.0  0.28092  0.51548  0.54107  1.0000
  C   C1584     1.0  0.48518  0.42590  0.65870  1.0000
  C   C1585     1.0  0.27276  0.59675  0.69096  1.0000
  C   C1586     1.0  0.32360  0.49327  0.56172  1.0000
  S   S213      1.0  0.05358  0.43384  0.65101  1.0000
  H   H1245     1.0  0.26735  0.50142  0.56352  1.0000
  C   C1587     1.0  0.25047  0.58403  0.57641  1.0000
  Fe  Fe112     1.0  0.04559  0.47021  0.68155  1.0000
  P   P54       1.0  0.29889  0.53465  0.54485  1.0000
  C   C1588     1.0  0.23909  0.63085  0.69597  1.0000
  C   C1589     1.0  0.32932  0.58314  0.50224  1.0000
  C   C1590     1.0  0.21041  0.35656  0.67643  1.0000
  C   C1591     1.0  0.32905  0.54326  0.51785  1.0000
  C   C1592     1.0  0.19829  0.63910  0.67280  1.0000
  H   H1246     1.0  0.30850  0.48431  0.56270  1.0000
  H   H1247     1.0  0.09547  0.53151  0.65924  1.0000
  S   S214      1.0  0.03876  0.48888  0.65941  1.0000
  H   H1248     1.0  0.37536  0.48316  0.57570  1.0000
  H   H1249     1.0  0.11844  0.56375  0.64488  1.0000
  H   H1250     1.0  0.28494  0.58991  0.57926  1.0000
  C   C1593     1.0  0.33781  0.55774  0.50476  1.0000
  C   C1594     1.0  0.22961  0.35638  0.68324  1.0000
  H   H1251     1.0  0.04926  0.36102  0.66046  1.0000
  C   C1595     1.0  0.27616  0.58073  0.57393  1.0000
  C   C1596     1.0  0.15614  0.39805  0.69845  1.0000
  C   C1597     1.0  0.39509  0.50822  0.50469  1.0000
  H   H1252     1.0  0.43977  0.43578  0.64982  1.0000
  P   P55       1.0  0.46980  0.47387  0.64465  1.0000
  C   C1598     1.0  0.33438  0.55792  0.67998  1.0000
  S   S215      1.0  0.10262  0.56742  0.69978  1.0000
  H   H1253     1.0  0.34305  0.37817  0.52711  1.0000
  C   C1599     1.0  0.25817  0.52703  0.70775  1.0000
  H   H1254     1.0  0.15572  0.63161  0.70370  1.0000
  C   C1600     1.0  0.36358  0.43847  0.47827  1.0000
  H   H1255     1.0  0.12999  0.36686  0.67872  1.0000
  H   H1256     1.0  0.34046  0.46348  0.57667  1.0000
  C   C1601     1.0  0.11668  0.60796  0.69924  1.0000
  C   C1602     1.0  0.17705  0.60213  0.69302  1.0000
  C   C1603     1.0  0.17093  0.55137  0.69820  1.0000
  C   C1604     1.0  0.16101  0.55153  0.68629  1.0000
  C   C1605     1.0  0.16710  0.53094  0.67983  1.0000
  C   C1606     1.0  0.18381  0.51027  0.68492  1.0000
  H   H1257     1.0  0.40654  0.45206  0.49264  1.0000
  C   C1607     1.0  0.39799  0.63679  0.64931  1.0000
  H   H1258     1.0  0.24489  0.54901  0.55418  1.0000
  C   C1608     1.0  0.12755  0.54463  0.64593  1.0000
  H   H1259     1.0  0.20237  0.57738  0.67986  1.0000
  H   H1260     1.0  0.14838  0.56757  0.68203  1.0000
  H   H1261     1.0  0.15854  0.53097  0.67101  1.0000
  H   H1262     1.0  0.18835  0.49426  0.67998  1.0000
  C   C1609     1.0  0.24458  0.51505  0.72026  1.0000
  H   H1263     1.0  0.48898  0.55422  0.55130  1.0000
  H   H1264     1.0  0.18756  0.42377  0.57036  1.0000
  P   P56       1.0  0.16312  0.57850  0.70614  1.0000
  C   C1610     1.0  0.19462  0.51030  0.69639  1.0000
  C   C1611     1.0  0.38034  0.62481  0.64761  1.0000
  H   H1265     1.0  0.13711  0.43001  0.70750  1.0000
  H   H1266     1.0  0.35134  0.54933  0.49656  1.0000
  Fe  Fe113     1.0  0.01949  0.45820  0.66052  1.0000
  H   H1267     1.0  0.41058  0.61362  0.59532  1.0000
  C   C1612     1.0  0.41350  0.63131  0.61184  1.0000
  H   H1268     1.0  0.34401  0.43905  0.47987  1.0000
  C   C1613     1.0  0.02636  0.33906  0.71328  1.0000
  C   C1614     1.0  0.07331  0.60014  0.71404  1.0000
  C   C1615     1.0  0.01021  0.32922  0.50846  1.0000
  H   H1269     1.0  0.23921  0.59569  0.58377  1.0000
  H   H1270     1.0  0.03153  0.49202  0.62091  1.0000
  H   H1271     1.0  0.21015  0.53056  0.47481  1.0000
  C   C1616     1.0  0.45873  0.62298  0.64313  1.0000
  C   C1617     1.0  0.29417  0.32177  0.63150  1.0000
  H   H1272     1.0  0.37837  0.62368  0.63703  1.0000
  H   H1273     1.0  0.13833  0.35250  0.71100  1.0000
  H   H1274     1.0  0.05345  0.60371  0.71516  1.0000
  H   H1275     1.0  0.48553  0.55640  0.64297  1.0000
  H   H1276     1.0  0.24518  0.33768  0.72213  1.0000
  H   H1277     1.0  0.22626  0.35282  0.48262  1.0000
  S   S216      1.0  0.12752  0.32282  0.52297  1.0000
  H   H1278     1.0  0.46508  0.49030  0.61416  1.0000
  C   C1618     1.0  0.17463  0.57279  0.72276  1.0000
  H   H1279     1.0  0.01052  0.44818  0.71242  1.0000
  C   C1619     1.0  0.47909  0.49849  0.61595  1.0000
  S   S217      1.0  0.25949  0.44196  0.47539  1.0000
  H   H1280     1.0  0.27312  0.48098  0.48418  1.0000
  H   H1281     1.0  0.33785  0.63661  0.62859  1.0000
  C   C1620     1.0  0.48399  0.61302  0.64134  1.0000
  H   H1282     1.0  0.47957  0.53291  0.71975  1.0000
  C   C1621     1.0  0.17720  0.31781  0.67450  1.0000
  C   C1622     1.0  0.00482  0.32756  0.66592  1.0000
  H   H1283     1.0  0.02241  0.64741  0.71906  1.0000
  C   C1623     1.0  0.26040  0.55735  0.72075  1.0000
  H   H1284     1.0  0.09093  0.31732  0.72283  1.0000
  H   H1285     1.0  0.48553  0.51814  0.59401  1.0000
  C   C1624     1.0  0.48521  0.49380  0.62964  1.0000
  H   H1286     1.0  0.38586  0.62786  0.68604  1.0000
  C   C1625     1.0  0.21398  0.31655  0.63776  1.0000
  C   C1626     1.0  0.22886  0.33928  0.47600  1.0000
  C   C1627     1.0  0.06865  0.32408  0.47493  1.0000
  Fe  Fe114     1.0  0.12257  0.33564  0.87172  1.0000
  H   H1287     1.0  0.46998  0.57610  0.81648  1.0000
  H   H1288     1.0  0.26937  0.32490  0.93425  1.0000
  Fe  Fe115     1.0  0.15547  0.37412  0.86032  1.0000
  S   S218      1.0  0.18158  0.35173  0.84475  1.0000
  S   S219      1.0  0.15272  0.41292  0.86371  1.0000
  Fe  Fe116     1.0  0.14764  0.34375  0.84020  1.0000
  S   S220      1.0  0.14367  0.34465  0.81755  1.0000
  H   H1289     1.0  0.22818  0.51502  0.74264  1.0000
  Fe  Fe117     1.0  0.32474  0.63816  0.89220  1.0000
  S   S221      1.0  0.12182  0.36883  0.85405  1.0000
  S   S222      1.0  0.15436  0.34227  0.87923  1.0000
  C   C1628     1.0  0.25740  0.60301  0.74730  1.0000
  C   C1629     1.0  0.24269  0.62529  0.91440  1.0000
  H   H1290     1.0  0.15957  0.33691  0.92935  1.0000
  H   H1291     1.0  0.35142  0.42730  0.97454  1.0000
  S   S223      1.0  0.47022  0.56912  0.94557  1.0000
  C   C1630     1.0  0.15900  0.60715  0.77754  1.0000
  Fe  Fe118     1.0  0.16775  0.57809  0.85330  1.0000
  S   S224      1.0  0.18559  0.60595  0.83652  1.0000
  S   S225      1.0  0.13238  0.58904  0.86882  1.0000
  Fe  Fe119     1.0  0.20603  0.53508  0.84357  1.0000
  S   S226      1.0  0.22732  0.56040  0.82630  1.0000
  S   S227      1.0  0.22044  0.49395  0.84419  1.0000
  Fe  Fe120     1.0  0.22112  0.58398  0.84282  1.0000
  S   S228      1.0  0.24629  0.60977  0.84253  1.0000
  Fe  Fe121     1.0  0.19033  0.58051  0.82147  1.0000
  S   S229      1.0  0.18755  0.59506  0.79801  1.0000
  S   S230      1.0  0.20292  0.55707  0.86067  1.0000
  S   S231      1.0  0.16938  0.55411  0.83767  1.0000
  C   C1631     1.0  0.46701  0.38437  0.90086  1.0000
  C   C1632     1.0  0.14188  0.36990  0.76334  1.0000
  C   C1633     1.0  0.49210  0.53158  0.72684  1.0000
  H   H1292     1.0  0.26711  0.58629  0.74356  1.0000
  C   C1634     1.0  0.44561  0.48690  0.93089  1.0000
  C   C1635     1.0  0.16374  0.37080  0.76719  1.0000
  C   C1636     1.0  0.13259  0.64790  0.81475  1.0000
  H   H1293     1.0  0.17492  0.61279  0.77015  1.0000
  C   C1637     1.0  0.19169  0.58738  0.73908  1.0000
  H   H1294     1.0  0.07499  0.56995  0.73387  1.0000
  H   H1295     1.0  0.12101  0.34695  0.75871  1.0000
  H   H1296     1.0  0.27515  0.35688  0.94579  1.0000
  C   C1638     1.0  0.22929  0.64951  0.91367  1.0000
  C   C1639     1.0  0.45829  0.45131  0.97044  1.0000
  S   S232      1.0  0.08147  0.34488  0.74579  1.0000
  H   H1297     1.0  0.05030  0.62306  0.82262  1.0000
  H   H1298     1.0  0.48232  0.32143  0.92580  1.0000
  H   H1299     1.0  0.04015  0.42896  0.72826  1.0000
  H   H1300     1.0  0.18895  0.56660  0.76081  1.0000
  H   H1301     1.0  0.00478  0.34583  0.96827  1.0000
  H   H1302     1.0  0.12765  0.38626  0.76200  1.0000
  C   C1640     1.0  0.01977  0.34073  0.73853  1.0000
  C   C1641     1.0  0.16971  0.55261  0.73374  1.0000
  H   H1303     1.0  0.44853  0.63357  0.94219  1.0000
  C   C1642     1.0  0.37357  0.55953  0.96853  1.0000
  H   H1304     1.0  0.17864  0.31683  0.79686  1.0000
  S   S233      1.0  0.36378  0.62866  0.93542  1.0000
  C   C1643     1.0  0.49143  0.60419  0.80671  1.0000
  C   C1644     1.0  0.17338  0.63493  0.90336  1.0000
  H   H1305     1.0  0.41148  0.61545  0.86803  1.0000
  C   C1645     1.0  0.48467  0.58624  0.83217  1.0000
  H   H1306     1.0  0.10986  0.55140  0.77676  1.0000
  H   H1307     1.0  0.17175  0.58821  0.88777  1.0000
  H   H1308     1.0  0.32351  0.46376  0.96353  1.0000
  H   H1309     1.0  0.15781  0.63032  0.85853  1.0000
  C   C1646     1.0  0.12764  0.61751  0.87417  1.0000
  C   C1647     1.0  0.10837  0.62324  0.88562  1.0000
  H   H1310     1.0  0.09665  0.61015  0.89111  1.0000
  C   C1648     1.0  0.26257  0.60904  0.85610  1.0000
  C   C1649     1.0  0.27227  0.62964  0.85571  1.0000
  C   C1650     1.0  0.28582  0.62967  0.86608  1.0000
  C   C1651     1.0  0.29012  0.60887  0.87683  1.0000
  C   C1652     1.0  0.28026  0.58835  0.87728  1.0000
  C   C1653     1.0  0.26653  0.58841  0.86699  1.0000
  C   C1654     1.0  0.99289  0.40016  0.74663  1.0000
  H   H1311     1.0  0.47191  0.52019  0.94539  1.0000
  H   H1312     1.0  0.48304  0.49061  0.92886  1.0000
  H   H1313     1.0  0.25935  0.57236  0.86736  1.0000
  C   C1655     1.0  0.15999  0.59738  0.79207  1.0000
  C   C1656     1.0  0.13916  0.58995  0.80143  1.0000
  C   C1657     1.0  0.11739  0.59264  0.79623  1.0000
  C   C1658     1.0  0.11635  0.60298  0.78172  1.0000
  C   C1659     1.0  0.47770  0.35943  0.90188  1.0000
  H   H1314     1.0  0.47639  0.57342  0.84103  1.0000
  H   H1315     1.0  0.13976  0.58237  0.81265  1.0000
  H   H1316     1.0  0.10132  0.58690  0.80346  1.0000
  Fe  Fe122     1.0  0.12846  0.64823  0.72736  1.0000
  C   C1660     1.0  0.44115  0.58644  0.94206  1.0000
  C   C1661     1.0  0.42454  0.59805  0.95262  1.0000
  C   C1662     1.0  0.40105  0.61064  0.95034  1.0000
  C   C1663     1.0  0.39397  0.61276  0.93724  1.0000
  C   C1664     1.0  0.41071  0.60184  0.92636  1.0000
  C   C1665     1.0  0.43428  0.58867  0.92880  1.0000
  C   C1666     1.0  0.48171  0.40212  0.89528  1.0000
  H   H1317     1.0  0.38832  0.61895  0.95880  1.0000
  H   H1318     1.0  0.44713  0.58005  0.92051  1.0000
  H   H1319     1.0  0.16133  0.64640  0.91060  1.0000
  C   C1667     1.0  0.16433  0.61658  0.90018  1.0000
  H   H1320     1.0  0.13181  0.33719  0.79227  1.0000
  S   S234      1.0  0.40127  0.32835  0.95109  1.0000
  C   C1668     1.0  0.17233  0.43475  0.85804  1.0000
  C   C1669     1.0  0.19664  0.42954  0.85055  1.0000
  C   C1670     1.0  0.21119  0.44780  0.84639  1.0000
  C   C1671     1.0  0.20144  0.47155  0.84939  1.0000
  C   C1672     1.0  0.17718  0.47665  0.85687  1.0000
  C   C1673     1.0  0.16288  0.45826  0.86131  1.0000
  H   H1321     1.0  0.20429  0.41144  0.84810  1.0000
  H   H1322     1.0  0.23009  0.44354  0.84081  1.0000
  H   H1323     1.0  0.16960  0.49462  0.85950  1.0000
  H   H1324     1.0  0.14433  0.46224  0.86736  1.0000
  H   H1325     1.0  0.12216  0.55935  0.73024  1.0000
  H   H1326     1.0  0.16648  0.38791  0.76887  1.0000
  H   H1327     1.0  0.06599  0.56383  0.78768  1.0000
  S   S235      1.0  0.30821  0.60728  0.88966  1.0000
  C   C1674     1.0  0.23728  0.60243  0.75879  1.0000
  C   C1675     1.0  0.03519  0.36681  0.90263  1.0000
  H   H1328     1.0  0.19934  0.60145  0.74124  1.0000
  C   C1676     1.0  0.26143  0.62977  0.93325  1.0000
  Fe  Fe123     1.0  0.46864  0.55800  0.96971  1.0000
  S   S236      1.0  0.06655  0.62590  0.73736  1.0000
  C   C1677     1.0  0.45106  0.60776  0.86118  1.0000
  C   C1678     1.0  0.45173  0.57735  0.88827  1.0000
  H   H1329     1.0  0.05417  0.36927  0.89918  1.0000
  C   C1679     1.0  0.15182  0.32354  0.72739  1.0000
  C   C1680     1.0  0.37931  0.53379  0.97031  1.0000
  C   C1681     1.0  0.34885  0.48813  0.96004  1.0000
  C   C1682     1.0  0.37210  0.49038  0.96153  1.0000
  C   C1683     1.0  0.01616  0.40640  0.74323  1.0000
  P   P57       1.0  0.38267  0.51921  0.95520  1.0000
  C   C1684     1.0  0.41448  0.51118  0.94652  1.0000
  C   C1685     1.0  0.36514  0.54022  0.94243  1.0000
  C   C1686     1.0  0.37614  0.54700  0.92789  1.0000
  C   C1687     1.0  0.36271  0.56443  0.91841  1.0000
  C   C1688     1.0  0.33837  0.57540  0.92335  1.0000
  C   C1689     1.0  0.32735  0.56893  0.93779  1.0000
  C   C1690     1.0  0.34065  0.55145  0.94730  1.0000
  C   C1691     1.0  0.43297  0.52075  0.94927  1.0000
  C   C1692     1.0  0.45766  0.51316  0.94298  1.0000
  H   H1330     1.0  0.48586  0.61232  0.95188  1.0000
  C   C1693     1.0  0.02149  0.36737  0.89238  1.0000
  C   C1694     1.0  0.42097  0.49426  0.93725  1.0000
  H   H1331     1.0  0.29319  0.64562  0.86565  1.0000
  H   H1332     1.0  0.07326  0.39236  0.72803  1.0000
  C   C1695     1.0  0.15614  0.32642  0.76349  1.0000
  H   H1333     1.0  0.24215  0.55254  0.74306  1.0000
  C   C1696     1.0  0.08589  0.58040  0.72494  1.0000
  C   C1697     1.0  0.17906  0.60197  0.89051  1.0000
  C   C1698     1.0  0.12715  0.32394  0.81514  1.0000
  C   C1699     1.0  0.18650  0.58966  0.72544  1.0000
  H   H1334     1.0  0.46582  0.34610  0.90560  1.0000
  H   H1335     1.0  0.33650  0.50364  0.95512  1.0000
  H   H1336     1.0  0.29307  0.33011  0.87412  1.0000
  H   H1337     1.0  0.39516  0.53936  0.92387  1.0000
  H   H1338     1.0  0.37120  0.56980  0.90723  1.0000
  H   H1339     1.0  0.32814  0.58916  0.91602  1.0000
  H   H1340     1.0  0.30865  0.57783  0.94165  1.0000
  H   H1341     1.0  0.33205  0.54710  0.95855  1.0000
  H   H1342     1.0  0.42846  0.53387  0.95634  1.0000
  C   C1700     1.0  0.24511  0.32147  0.73059  1.0000
  Fe  Fe124     1.0  0.17816  0.31948  0.86317  1.0000
  C   C1701     1.0  0.48933  0.64937  0.85555  1.0000
  H   H1343     1.0  0.40694  0.48654  0.93506  1.0000
  H   H1344     1.0  0.26946  0.59706  0.92430  1.0000
  H   H1345     1.0  0.48031  0.41466  0.93440  1.0000
  C   C1702     1.0  0.17516  0.55022  0.74735  1.0000
  C   C1703     1.0  0.00046  0.35837  0.92184  1.0000
  H   H1346     1.0  0.37260  0.57100  0.95799  1.0000
  C   C1704     1.0  0.18190  0.34954  0.76910  1.0000
  H   H1347     1.0  0.41209  0.58827  0.89201  1.0000
  H   H1348     1.0  0.02958  0.39765  0.75009  1.0000
  H   H1349     1.0  0.45193  0.56555  0.89878  1.0000
  C   C1705     1.0  0.13813  0.34773  0.76147  1.0000
  C   C1706     1.0  0.99711  0.36394  0.89680  1.0000
  C   C1707     1.0  0.48241  0.63212  0.94853  1.0000
  C   C1708     1.0  0.22636  0.32128  0.74288  1.0000
  H   H1350     1.0  0.13674  0.61813  0.76126  1.0000
  H   H1351     1.0  0.11659  0.60836  0.84000  1.0000
  C   C1709     1.0  0.47394  0.58007  0.87866  1.0000
  H   H1352     1.0  0.28063  0.62570  0.73181  1.0000
  H   H1353     1.0  0.09769  0.59766  0.96547  1.0000
  H   H1354     1.0  0.24139  0.61404  0.90725  1.0000
  H   H1355     1.0  0.45265  0.63679  0.88137  1.0000
  H   H1356     1.0  0.12660  0.36085  0.91597  1.0000
  H   H1357     1.0  0.45032  0.61980  0.85079  1.0000
  C   C1710     1.0  0.46110  0.64419  0.94318  1.0000
  C   C1711     1.0  0.34141  0.46545  0.96476  1.0000
  H   H1358     1.0  0.17041  0.53515  0.75592  1.0000
  C   C1712     1.0  0.14007  0.41668  0.82288  1.0000
  C   C1713     1.0  0.13182  0.41493  0.81084  1.0000
  C   C1714     1.0  0.12276  0.43622  0.80162  1.0000
  C   C1715     1.0  0.12200  0.45930  0.80441  1.0000
  C   C1716     1.0  0.12995  0.46119  0.81663  1.0000
  C   C1717     1.0  0.13892  0.43967  0.82586  1.0000
  P   P58       1.0  0.12984  0.49085  0.82016  1.0000
  C   C1718     1.0  0.10962  0.51412  0.80989  1.0000
  C   C1719     1.0  0.11801  0.49188  0.83900  1.0000
  C   C1720     1.0  0.10174  0.47665  0.84744  1.0000
  C   C1721     1.0  0.09183  0.47837  0.86184  1.0000
  C   C1722     1.0  0.09785  0.49546  0.86789  1.0000
  C   C1723     1.0  0.11393  0.51073  0.85956  1.0000
  C   C1724     1.0  0.12396  0.50895  0.84517  1.0000
  C   C1725     1.0  0.08458  0.52112  0.81595  1.0000
  C   C1726     1.0  0.06889  0.53891  0.80794  1.0000
  C   C1727     1.0  0.07803  0.54973  0.79382  1.0000
  C   C1728     1.0  0.10282  0.54263  0.78764  1.0000
  C   C1729     1.0  0.11854  0.52477  0.79559  1.0000
  C   C1730     1.0  0.16083  0.49693  0.81529  1.0000
  C   C1731     1.0  0.18138  0.47762  0.81626  1.0000
  C   C1732     1.0  0.20522  0.48252  0.81291  1.0000
  C   C1733     1.0  0.20878  0.50668  0.80869  1.0000
  C   C1734     1.0  0.18852  0.52597  0.80764  1.0000
  C   C1735     1.0  0.16463  0.52120  0.81104  1.0000
  H   H1359     1.0  0.14736  0.40020  0.82995  1.0000
  H   H1360     1.0  0.13242  0.39703  0.80870  1.0000
  H   H1361     1.0  0.11630  0.43479  0.79231  1.0000
  H   H1362     1.0  0.11507  0.47550  0.79705  1.0000
  H   H1363     1.0  0.14518  0.44065  0.83533  1.0000
  H   H1364     1.0  0.09668  0.46341  0.84296  1.0000
  H   H1365     1.0  0.07972  0.46622  0.86837  1.0000
  H   H1366     1.0  0.09040  0.49659  0.87910  1.0000
  H   H1367     1.0  0.11897  0.52367  0.86432  1.0000
  H   H1368     1.0  0.13648  0.52080  0.83893  1.0000
  H   H1369     1.0  0.07708  0.51286  0.82683  1.0000
  H   H1370     1.0  0.04963  0.54439  0.81266  1.0000
  C   C1736     1.0  0.14274  0.63453  0.86721  1.0000
  H   H1371     1.0  0.46707  0.45545  0.95927  1.0000
  H   H1372     1.0  0.13765  0.51939  0.79058  1.0000
  H   H1373     1.0  0.17923  0.45878  0.82001  1.0000
  H   H1374     1.0  0.22089  0.46762  0.81423  1.0000
  H   H1375     1.0  0.22716  0.51050  0.80675  1.0000
  H   H1376     1.0  0.19132  0.54467  0.80467  1.0000
  H   H1377     1.0  0.14918  0.53653  0.81067  1.0000
  C   C1737     1.0  0.12022  0.64081  0.97227  1.0000
  H   H1378     1.0  0.16098  0.53906  0.73194  1.0000
  C   C1738     1.0  0.48107  0.58764  0.81826  1.0000
  H   H1379     1.0  0.20142  0.31700  0.88780  1.0000
  S   S237      1.0  0.36473  0.63095  0.89390  1.0000
  H   H1380     1.0  0.40536  0.60324  0.91623  1.0000
  C   C1739     1.0  0.38765  0.46962  0.96789  1.0000
  C   C1740     1.0  0.42926  0.59005  0.88445  1.0000
  H   H1381     1.0  0.45049  0.47363  0.92390  1.0000
  Fe  Fe125     1.0  0.09279  0.62438  0.75159  1.0000
  C   C1741     1.0  0.18575  0.56784  0.75009  1.0000
  C   C1742     1.0  0.46396  0.49639  0.93374  1.0000
  H   H1382     1.0  0.28350  0.57218  0.88555  1.0000
  C   C1743     1.0  0.42892  0.60526  0.87091  1.0000
  C   C1744     1.0  0.22512  0.62393  0.76384  1.0000
  H   H1383     1.0  0.19872  0.35052  0.77210  1.0000
  C   C1745     1.0  0.10440  0.64570  0.89016  1.0000
  S   S238      1.0  0.08501  0.33044  0.88467  1.0000
  H   H1384     1.0  0.26936  0.64566  0.84732  1.0000
  S   S239      1.0  0.46051  0.34772  0.95172  1.0000
  C   C1746     1.0  0.02479  0.36229  0.91729  1.0000
  H   H1385     1.0  0.02695  0.59873  0.96665  1.0000
  C   C1747     1.0  0.12447  0.32400  0.80120  1.0000
  H   H1386     1.0  0.12890  0.63757  0.80779  1.0000
  S   S240      1.0  0.12517  0.60914  0.73622  1.0000
  C   C1748     1.0  0.47383  0.59541  0.86503  1.0000
  C   C1749     1.0  0.44845  0.64554  0.89056  1.0000
  C   C1750     1.0  0.26100  0.33753  0.86452  1.0000
  C   C1751     1.0  0.19745  0.63858  0.89698  1.0000
  C   C1752     1.0  0.20294  0.60556  0.88406  1.0000
  C   C1753     1.0  0.02222  0.42385  0.73092  1.0000
  S   S241      1.0  0.08888  0.60728  0.77526  1.0000
  H   H1387     1.0  0.08204  0.63649  0.80057  1.0000
  C   C1754     1.0  0.14952  0.38514  0.90183  1.0000
  C   C1755     1.0  0.14466  0.36569  0.91318  1.0000
  C   C1756     1.0  0.16324  0.35220  0.92068  1.0000
  C   C1757     1.0  0.18672  0.35810  0.91682  1.0000
  C   C1758     1.0  0.19176  0.37770  0.90545  1.0000
  C   C1759     1.0  0.17296  0.39105  0.89794  1.0000
  P   P59       1.0  0.22265  0.38394  0.89938  1.0000
  C   C1760     1.0  0.23813  0.36660  0.88536  1.0000
  C   C1761     1.0  0.22096  0.41630  0.89203  1.0000
  C   C1762     1.0  0.20241  0.43374  0.89846  1.0000
  C   C1763     1.0  0.20126  0.45881  0.89290  1.0000
  C   C1764     1.0  0.21879  0.46663  0.88101  1.0000
  C   C1765     1.0  0.23742  0.44941  0.87466  1.0000
  C   C1766     1.0  0.23853  0.42432  0.88011  1.0000
  C   C1767     1.0  0.26301  0.35481  0.88451  1.0000
  H   H1388     1.0  0.43008  0.59828  0.96243  1.0000
  C   C1768     1.0  0.13728  0.61008  0.77242  1.0000
  C   C1769     1.0  0.23664  0.35012  0.86484  1.0000
  C   C1770     1.0  0.22521  0.36463  0.87519  1.0000
  C   C1771     1.0  0.23884  0.37551  0.91433  1.0000
  C   C1772     1.0  0.24861  0.35077  0.91938  1.0000
  C   C1773     1.0  0.26163  0.34410  0.93065  1.0000
  C   C1774     1.0  0.26490  0.36209  0.93711  1.0000
  C   C1775     1.0  0.25509  0.38678  0.93228  1.0000
  C   C1776     1.0  0.24211  0.39350  0.92094  1.0000
  H   H1389     1.0  0.27423  0.62235  0.94057  1.0000
  C   C1777     1.0  0.08161  0.35394  0.72723  1.0000
  H   H1390     1.0  0.47055  0.64848  0.85564  1.0000
  H   H1391     1.0  0.20087  0.34710  0.92262  1.0000
  H   H1392     1.0  0.17650  0.40572  0.88881  1.0000
  H   H1393     1.0  0.18879  0.42797  0.90775  1.0000
  H   H1394     1.0  0.18668  0.47222  0.89769  1.0000
  H   H1395     1.0  0.21768  0.48605  0.87650  1.0000
  H   H1396     1.0  0.25062  0.45563  0.86524  1.0000
  H   H1397     1.0  0.25300  0.41129  0.87496  1.0000
  H   H1398     1.0  0.27373  0.35652  0.89188  1.0000
  C   C1778     1.0  0.35710  0.44490  0.97097  1.0000
  C   C1779     1.0  0.21220  0.62364  0.88736  1.0000
  H   H1399     1.0  0.22633  0.34801  0.85735  1.0000
  H   H1400     1.0  0.20622  0.37394  0.87532  1.0000
  H   H1401     1.0  0.24655  0.33655  0.91447  1.0000
  H   H1402     1.0  0.13534  0.39530  0.89575  1.0000
  H   H1403     1.0  0.12886  0.62823  0.96496  1.0000
  H   H1404     1.0  0.25770  0.40074  0.93726  1.0000
  H   H1405     1.0  0.23490  0.41275  0.91736  1.0000
  C   C1780     1.0  0.27424  0.34004  0.87427  1.0000
  H   H1406     1.0  0.03586  0.36152  0.92508  1.0000
  S   S242      1.0  0.46201  0.40526  0.96539  1.0000
  H   H1407     1.0  0.41006  0.64364  0.89518  1.0000
  C   C1781     1.0  0.10161  0.57716  0.84057  1.0000
  C   C1782     1.0  0.08301  0.56864  0.83725  1.0000
  C   C1783     1.0  0.06473  0.58525  0.83062  1.0000
  C   C1784     1.0  0.06509  0.61035  0.82728  1.0000
  C   C1785     1.0  0.08426  0.61891  0.83011  1.0000
  C   C1786     1.0  0.10230  0.60216  0.83700  1.0000
  H   H1408     1.0  0.21419  0.59455  0.87635  1.0000
  H   H1409     1.0  0.21210  0.33754  0.74361  1.0000
  H   H1410     1.0  0.44723  0.38991  0.90422  1.0000
  H   H1411     1.0  0.02998  0.37018  0.88104  1.0000
  C   C1787     1.0  0.26515  0.62516  0.74079  1.0000
  H   H1412     1.0  0.23681  0.63065  0.81269  1.0000
  Fe  Fe126     1.0  0.42882  0.32969  0.96427  1.0000
  H   H1413     1.0  0.11525  0.56456  0.84624  1.0000
  H   H1414     1.0  0.08247  0.54928  0.84010  1.0000
  H   H1415     1.0  0.05006  0.57875  0.82825  1.0000
  C   C1788     1.0  0.25867  0.61550  0.92415  1.0000
  H   H1416     1.0  0.47336  0.42142  0.89435  1.0000
  C   C1789     1.0  0.01353  0.61422  0.96272  1.0000
  H   H1417     1.0  0.13394  0.32444  0.73453  1.0000
  C   C1790     1.0  0.01197  0.32998  0.94917  1.0000
  S   S243      1.0  0.05217  0.63838  0.95145  1.0000
  C   C1791     1.0  0.02104  0.63597  0.95478  1.0000
  H   H1418     1.0  0.23117  0.58536  0.76398  1.0000
  H   H1419     1.0  0.22849  0.63226  0.78895  1.0000
  C   C1792     1.0  0.01639  0.33213  0.96237  1.0000
  H   H1420     1.0  0.08777  0.64042  0.85767  1.0000
  H   H1421     1.0  0.14561  0.61414  0.90493  1.0000
  C   C1793     1.0  0.24674  0.54538  0.73321  1.0000
  H   H1422     1.0  0.26948  0.32558  0.85684  1.0000
  H   H1423     1.0  0.49101  0.57029  0.88202  1.0000
  H   H1424     1.0  0.40569  0.47081  0.96919  1.0000
  H   H1425     1.0  0.48837  0.60556  0.79597  1.0000
  H   H1426     1.0  0.23079  0.62614  0.88228  1.0000
  H   H1427     1.0  0.36796  0.31857  0.93612  1.0000
  H   H1428     1.0  0.45706  0.48745  0.97414  1.0000
  C   C1794     1.0  0.23882  0.52425  0.73297  1.0000
  Fe  Fe127     1.0  0.35158  0.64580  0.91421  1.0000
  Fe  Fe128     1.0  0.45605  0.36565  0.97066  1.0000
  H   H1429     1.0  0.01906  0.35056  0.74687  1.0000
  C   C1795     1.0  0.17819  0.32714  0.76730  1.0000
  H   H1430     1.0  0.17107  0.64445  0.80484  1.0000
  H   H1431     1.0  0.20964  0.62326  0.77275  1.0000
  C   C1796     1.0  0.38022  0.44700  0.97254  1.0000
  H   H1432     1.0  0.99449  0.40264  0.92882  1.0000
  H   H1433     1.0  0.48585  0.64957  0.88875  1.0000
  C   C1797     1.0  0.42436  0.64934  0.89841  1.0000
  C   C1798     1.0  0.22906  0.64923  0.79172  1.0000
  C   C1799     1.0  0.25312  0.64665  0.74597  1.0000
  C   C1800     1.0  0.23369  0.64819  0.80534  1.0000
  C   C1801     1.0  0.23312  0.64611  0.75768  1.0000
  S   S244      1.0  0.15873  0.80060  0.00786  1.0000
  C   C1802     1.0  0.19967  0.95055  0.98533  1.0000
  C   C1803     1.0  0.38635  0.71654  0.12843  1.0000
  H   H1434     1.0  0.48456  0.74822  0.14426  1.0000
  S   S245      1.0  0.33543  0.72553  0.18249  1.0000
  H   H1435     1.0  0.36802  0.66081  0.13186  1.0000
  C   C1804     1.0  0.26556  0.71794  0.15182  1.0000
  H   H1436     1.0  0.16823  0.71591  0.15831  1.0000
  C   C1805     1.0  0.08783  0.67456  0.97895  1.0000
  H   H1437     1.0  0.07162  0.68781  0.97649  1.0000
  S   S246      1.0  0.16313  0.91682  0.18520  1.0000
  C   C1806     1.0  0.15860  0.66920  0.14478  1.0000
  Fe  Fe129     1.0  0.09350  0.94305  0.18715  1.0000
  S   S247      1.0  0.10761  0.90738  0.20092  1.0000
  C   C1807     1.0  0.27106  0.80020  0.19132  1.0000
  Fe  Fe130     1.0  0.13465  0.92741  0.20415  1.0000
  C   C1808     1.0  0.47575  0.70028  0.12372  1.0000
  Fe  Fe131     1.0  0.13467  0.89972  0.18074  1.0000
  S   S248      1.0  0.14510  0.86064  0.17670  1.0000
  C   C1809     1.0  0.44749  0.72145  0.10748  1.0000
  S   S249      1.0  0.11841  0.93402  0.16657  1.0000
  Fe  Fe132     1.0  0.17948  0.76760  0.08731  1.0000
  S   S250      1.0  0.14095  0.78746  0.09504  1.0000
  S   S251      1.0  0.20297  0.76611  0.06500  1.0000
  Fe  Fe133     1.0  0.18778  0.74487  0.11776  1.0000
  S   S252      1.0  0.15031  0.76269  0.12815  1.0000
  S   S253      1.0  0.21421  0.71648  0.13000  1.0000
  Fe  Fe134     1.0  0.13672  0.75231  0.11100  1.0000
  S   S254      1.0  0.10197  0.73629  0.11874  1.0000
  Fe  Fe135     1.0  0.15730  0.79637  0.11171  1.0000
  S   S255      1.0  0.14641  0.83496  0.11641  1.0000
  S   S256      1.0  0.17373  0.73173  0.10193  1.0000
  S   S257      1.0  0.19618  0.77934  0.10267  1.0000
  S   S258      1.0  0.28546  0.75283  0.15769  1.0000
  C   C1810     1.0  0.09455  0.71955  0.10787  1.0000
  C   C1811     1.0  0.07227  0.71099  0.11219  1.0000
  C   C1812     1.0  0.31193  0.71354  0.00410  1.0000
  C   C1813     1.0  0.10386  0.70131  0.08662  1.0000
  C   C1814     1.0  0.11038  0.71462  0.09507  1.0000
  H   H1438     1.0  0.11613  0.69760  0.07670  1.0000
  H   H1439     1.0  0.12760  0.72111  0.09167  1.0000
  C   C1815     1.0  0.23396  0.72720  0.13736  1.0000
  C   C1816     1.0  0.02642  0.75300  0.03549  1.0000
  H   H1440     1.0  0.29106  0.79333  0.09373  1.0000
  C   C1817     1.0  0.26564  0.74291  0.14989  1.0000
  C   C1818     1.0  0.24977  0.76009  0.14165  1.0000
  C   C1819     1.0  0.23370  0.75227  0.13552  1.0000
  C   C1820     1.0  0.44716  0.71844  0.17753  1.0000
  C   C1821     1.0  0.31623  0.66346  0.11486  1.0000
  H   H1441     1.0  0.24967  0.77947  0.14013  1.0000
  H   H1442     1.0  0.22125  0.76560  0.12934  1.0000
  H   H1443     1.0  0.27760  0.70459  0.15811  1.0000
  H   H1444     1.0  0.04807  0.69523  0.05247  1.0000
  H   H1445     1.0  0.19660  0.92012  0.00323  1.0000
  C   C1822     1.0  0.30882  0.75600  0.10096  1.0000
  H   H1446     1.0  0.29245  0.73219  0.02172  1.0000
  C   C1823     1.0  0.14525  0.85366  0.15994  1.0000
  C   C1824     1.0  0.15444  0.82948  0.15768  1.0000
  C   C1825     1.0  0.15488  0.82337  0.14442  1.0000
  C   C1826     1.0  0.14598  0.84143  0.13336  1.0000
  C   C1827     1.0  0.13665  0.86552  0.13569  1.0000
  C   C1828     1.0  0.13633  0.87165  0.14890  1.0000
  H   H1447     1.0  0.16143  0.81546  0.16617  1.0000
  H   H1448     1.0  0.16218  0.80477  0.14273  1.0000
  H   H1449     1.0  0.12948  0.87946  0.12723  1.0000
  H   H1450     1.0  0.12897  0.89023  0.15059  1.0000
  C   C1829     1.0  0.04679  0.71476  0.04829  1.0000
  H   H1451     1.0  0.24614  0.73914  0.10231  1.0000
  C   C1830     1.0  0.29048  0.85851  0.22317  1.0000
  C   C1831     1.0  0.46649  0.71322  0.16606  1.0000
  C   C1832     1.0  0.36254  0.83436  0.19207  1.0000
  C   C1833     1.0  0.03053  0.66469  0.16683  1.0000
  H   H1452     1.0  0.17819  0.94474  0.20367  1.0000
  C   C1834     1.0  0.07539  0.65468  0.02569  1.0000
  C   C1835     1.0  0.21271  0.69119  0.17830  1.0000
  H   H1453     1.0  0.10692  0.67391  0.05129  1.0000
  C   C1836     1.0  0.08141  0.69307  0.09086  1.0000
  H   H1454     1.0  0.12708  0.65529  0.00273  1.0000
  C   C1837     1.0  0.40662  0.68908  0.99038  1.0000
  C   C1838     1.0  0.04228  0.70434  0.16172  1.0000
  C   C1839     1.0  0.25085  0.89085  0.20417  1.0000
  S   S259      1.0  0.37913  0.66184  0.18019  1.0000
  C   C1840     1.0  0.18319  0.66762  0.13746  1.0000
  S   S260      1.0  0.27785  0.72443  0.19777  1.0000
  H   H1455     1.0  0.22733  0.69625  0.18168  1.0000
  C   C1841     1.0  0.27891  0.88695  0.98691  1.0000
  C   C1842     1.0  0.25006  0.71008  0.14542  1.0000
  C   C1843     1.0  0.36763  0.70721  0.06812  1.0000
  H   H1456     1.0  0.28109  0.96711  0.21495  1.0000
  H   H1457     1.0  0.05975  0.71509  0.12194  1.0000
  C   C1844     1.0  0.17178  0.79304  0.02346  1.0000
  C   C1845     1.0  0.19706  0.78397  0.02286  1.0000
  C   C1846     1.0  0.20645  0.77608  0.03568  1.0000
  C   C1847     1.0  0.19073  0.77756  0.04912  1.0000
  C   C1848     1.0  0.16562  0.78737  0.04966  1.0000
  C   C1849     1.0  0.15617  0.79484  0.03688  1.0000
  H   H1458     1.0  0.20921  0.78253  0.01258  1.0000
  H   H1459     1.0  0.22593  0.76862  0.03522  1.0000
  H   H1460     1.0  0.15342  0.78874  0.05994  1.0000
  H   H1461     1.0  0.13668  0.80204  0.03744  1.0000
  C   C1850     1.0  0.32892  0.86855  0.19700  1.0000
  H   H1462     1.0  0.47317  0.65081  0.14343  1.0000
  H   H1463     1.0  0.08936  0.77979  0.00241  1.0000
  C   C1851     1.0  0.35236  0.69896  0.09400  1.0000
  C   C1852     1.0  0.47474  0.68168  0.01541  1.0000
  C   C1853     1.0  0.10620  0.69342  0.17922  1.0000
  C   C1854     1.0  0.03339  0.90093  0.18574  1.0000
  H   H1464     1.0  0.39716  0.67956  0.05980  1.0000
  C   C1855     1.0  0.48649  0.68337  0.11456  1.0000
  C   C1856     1.0  0.42933  0.69251  0.98157  1.0000
  H   H1465     1.0  0.33786  0.75277  0.14616  1.0000
  C   C1857     1.0  0.02629  0.68855  0.16940  1.0000
  H   H1466     1.0  0.20112  0.72726  0.16611  1.0000
  C   C1858     1.0  0.19987  0.90857  0.98318  1.0000
  C   C1859     1.0  0.02298  0.73531  0.98687  1.0000
  H   H1467     1.0  0.31699  0.79783  0.01649  1.0000
  H   H1468     1.0  0.35340  0.66943  0.15658  1.0000
  C   C1860     1.0  0.30610  0.73142  0.10550  1.0000
  P   P60       1.0  0.48720  0.69795  0.13985  1.0000
  H   H1469     1.0  0.47677  0.83016  0.22281  1.0000
  C   C1861     1.0  0.17906  0.70212  0.16528  1.0000
  P   P61       1.0  0.29985  0.88114  0.20759  1.0000
  H   H1470     1.0  0.25027  0.69068  0.14689  1.0000
  C   C1862     1.0  0.40126  0.66553  0.99554  1.0000
  C   C1863     1.0  0.26651  0.76824  0.09745  1.0000
  H   H1471     1.0  0.04943  0.86915  0.17610  1.0000
  H   H1472     1.0  0.05066  0.90727  0.18362  1.0000
  C   C1864     1.0  0.43800  0.71158  0.01037  1.0000
  C   C1865     1.0  0.03594  0.96032  0.20584  1.0000
  C   C1866     1.0  0.27756  0.73406  0.98550  1.0000
  C   C1867     1.0  0.99486  0.66659  0.98579  1.0000
  H   H1473     1.0  0.01278  0.93094  0.19586  1.0000
  C   C1868     1.0  0.23147  0.90199  0.19681  1.0000
  C   C1869     1.0  0.44715  0.67189  0.97840  1.0000
  Fe  Fe136     1.0  0.31314  0.72130  0.20502  1.0000
  C   C1870     1.0  0.05099  0.65642  0.15663  1.0000
  H   H1474     1.0  0.28051  0.70677  0.10944  1.0000
  C   C1871     1.0  0.38547  0.66966  0.08278  1.0000
  H   H1475     1.0  0.40568  0.70871  0.12832  1.0000
  H   H1476     1.0  0.03884  0.72294  0.16352  1.0000
  C   C1872     1.0  0.30669  0.79508  0.00917  1.0000
  C   C1873     1.0  0.28849  0.81417  0.00406  1.0000
  C   C1874     1.0  0.27550  0.81081  0.99442  1.0000
  C   C1875     1.0  0.28024  0.78817  0.99018  1.0000
  C   C1876     1.0  0.29765  0.76851  0.99584  1.0000
  C   C1877     1.0  0.31149  0.77242  0.00494  1.0000
  H   H1477     1.0  0.12105  0.67227  0.14252  1.0000
  H   H1478     1.0  0.37075  0.81503  0.19448  1.0000
  C   C1878     1.0  0.37250  0.66142  0.15310  1.0000
  H   H1479     1.0  0.28444  0.83158  0.00753  1.0000
  H   H1480     1.0  0.26161  0.82574  0.99028  1.0000
  H   H1481     1.0  0.43244  0.73623  0.10468  1.0000
  C   C1879     1.0  0.03156  0.70051  0.01167  1.0000
  C   C1880     1.0  0.47541  0.72533  0.00942  1.0000
  H   H1482     1.0  0.21944  0.72341  0.97535  1.0000
  C   C1881     1.0  0.18041  0.94794  0.21375  1.0000
  C   C1882     1.0  0.20760  0.85289  0.14551  1.0000
  C   C1883     1.0  0.20267  0.87834  0.14434  1.0000
  C   C1884     1.0  0.20509  0.88841  0.15554  1.0000
  C   C1885     1.0  0.21214  0.87300  0.16799  1.0000
  C   C1886     1.0  0.21652  0.84740  0.16942  1.0000
  C   C1887     1.0  0.21466  0.83746  0.15794  1.0000
  P   P62       1.0  0.22523  0.82743  0.18563  1.0000
  C   C1888     1.0  0.21074  0.84085  0.20140  1.0000
  C   C1889     1.0  0.21431  0.79938  0.18774  1.0000
  C   C1890     1.0  0.18985  0.79778  0.19448  1.0000
  C   C1891     1.0  0.18119  0.77631  0.19581  1.0000
  C   C1892     1.0  0.19677  0.75637  0.19030  1.0000
  C   C1893     1.0  0.22087  0.75811  0.18316  1.0000
  C   C1894     1.0  0.22953  0.77960  0.18175  1.0000
  C   C1895     1.0  0.18730  0.85607  0.20215  1.0000
  H   H1483     1.0  0.00274  0.98116  0.19862  1.0000
  S   S261      1.0  0.11855  0.96373  0.19184  1.0000
  C   C1896     1.0  0.09789  0.67399  0.99091  1.0000
  C   C1897     1.0  0.22251  0.83560  0.21323  1.0000
  C   C1898     1.0  0.25831  0.82224  0.18420  1.0000
  C   C1899     1.0  0.27133  0.84090  0.17669  1.0000
  C   C1900     1.0  0.29679  0.83726  0.17595  1.0000
  H   H1484     1.0  0.21216  0.96444  0.20405  1.0000
  C   C1901     1.0  0.46209  0.70559  0.15439  1.0000
  H   H1485     1.0  0.31931  0.69114  0.14157  1.0000
  H   H1486     1.0  0.20526  0.84506  0.13693  1.0000
  H   H1487     1.0  0.19669  0.89018  0.13482  1.0000
  H   H1488     1.0  0.20098  0.90816  0.15469  1.0000
  H   H1489     1.0  0.21358  0.88101  0.17663  1.0000
  H   H1490     1.0  0.21808  0.81781  0.15861  1.0000
  H   H1491     1.0  0.17722  0.81324  0.19844  1.0000
  C   C1902     1.0  0.28024  0.90325  0.18270  1.0000
  H   H1492     1.0  0.19004  0.73975  0.19136  1.0000
  H   H1493     1.0  0.23287  0.74294  0.17854  1.0000
  H   H1494     1.0  0.24796  0.78087  0.17576  1.0000
  H   H1495     1.0  0.17762  0.85996  0.19335  1.0000
  Fe  Fe137     1.0  0.99463  0.66737  0.06956  1.0000
  H   H1496     1.0  0.48539  0.74011  0.00736  1.0000
  H   H1497     1.0  0.00214  0.91139  0.22124  1.0000
  H   H1498     1.0  0.24030  0.82344  0.21311  1.0000
  H   H1499     1.0  0.26189  0.85826  0.17139  1.0000
  H   H1500     1.0  0.41906  0.71571  0.00891  1.0000
  S   S262      1.0  0.01500  0.65347  0.10676  1.0000
  C   C1903     1.0  0.12371  0.69447  0.16629  1.0000
  C   C1904     1.0  0.38895  0.65581  0.16256  1.0000
  H   H1501     1.0  0.25158  0.75057  0.00245  1.0000
  H   H1502     1.0  0.21484  0.74422  0.99575  1.0000
  H   H1503     1.0  0.20795  0.66797  0.11693  1.0000
  C   C1905     1.0  0.35823  0.75212  0.21030  1.0000
  H   H1504     1.0  0.10781  0.67767  0.18786  1.0000
  H   H1505     1.0  0.32972  0.68851  0.98947  1.0000
  C   C1906     1.0  0.27542  0.89169  0.19725  1.0000
  C   C1907     1.0  0.01113  0.97231  0.20787  1.0000
  C   C1908     1.0  0.11912  0.65635  0.99350  1.0000
  H   H1506     1.0  0.13472  0.77280  0.99408  1.0000
  H   H1507     1.0  0.24647  0.88230  0.21538  1.0000
  H   H1508     1.0  0.33534  0.90409  0.18460  1.0000
  H   H1509     1.0  0.34598  0.78464  0.97760  1.0000
  H   H1510     1.0  0.32919  0.81193  0.18192  1.0000
  C   C1909     1.0  0.38462  0.68497  0.06930  1.0000
  C   C1910     1.0  0.32428  0.69070  0.00060  1.0000
  H   H1511     1.0  0.38266  0.73658  0.14520  1.0000
  C   C1911     1.0  0.41923  0.70673  0.16636  1.0000
  C   C1912     1.0  0.42349  0.71534  0.17763  1.0000
  C   C1913     1.0  0.01033  0.87150  0.18430  1.0000
  Fe  Fe138     1.0  0.34100  0.68437  0.18619  1.0000
  C   C1914     1.0  0.02823  0.72778  0.04069  1.0000
  C   C1915     1.0  0.47722  0.68508  0.10222  1.0000
  C   C1916     1.0  0.09665  0.68299  0.03043  1.0000
  C   C1917     1.0  0.19069  0.66024  0.17767  1.0000
  H   H1512     1.0  0.27639  0.87912  0.99831  1.0000
  P   P63       1.0  0.08321  0.69451  0.00338  1.0000
  C   C1918     1.0  0.05167  0.70758  0.00125  1.0000
  C   C1919     1.0  0.09965  0.71938  0.00013  1.0000
  C   C1920     1.0  0.08682  0.74257  0.00294  1.0000
  C   C1921     1.0  0.09940  0.76180  0.00058  1.0000
  C   C1922     1.0  0.12497  0.75787  0.99588  1.0000
  C   C1923     1.0  0.13796  0.73475  0.99336  1.0000
  C   C1924     1.0  0.12538  0.71559  0.99539  1.0000
  C   C1925     1.0  0.30879  0.69492  0.02952  1.0000
  C   C1926     1.0  0.34810  0.74102  0.13860  1.0000
  C   C1927     1.0  0.29653  0.79654  0.19041  1.0000
  H   H1513     1.0  0.27020  0.78610  0.98252  1.0000
  H   H1514     1.0  0.08217  0.66718  0.14053  1.0000
  H   H1515     1.0  0.35960  0.73978  0.20317  1.0000
  C   C1928     1.0  0.37842  0.76273  0.20961  1.0000
  H   H1516     1.0  0.39524  0.75864  0.20186  1.0000
  H   H1517     1.0  0.28356  0.83518  0.21066  1.0000
  C   C1929     1.0  0.01184  0.91437  0.19270  1.0000
  H   H1518     1.0  0.10430  0.69945  0.02729  1.0000
  H   H1519     1.0  0.06709  0.74591  0.00691  1.0000
  H   H1520     1.0  0.27188  0.93212  0.20814  1.0000
  C   C1930     1.0  0.99720  0.97315  0.22183  1.0000
  C   C1931     1.0  0.08493  0.67635  0.02119  1.0000
  H   H1521     1.0  0.32622  0.65677  0.03431  1.0000
  C   C1932     1.0  0.09830  0.66847  0.04406  1.0000
  H   H1522     1.0  0.40106  0.70361  0.16667  1.0000
  H   H1523     1.0  0.03418  0.68730  0.02144  1.0000
  H   H1524     1.0  0.39386  0.84325  0.17592  1.0000
  Fe  Fe139     1.0  0.30061  0.72488  0.17565  1.0000
  C   C1933     1.0  0.03266  0.87950  0.18152  1.0000
  H   H1525     1.0  0.40854  0.71911  0.18658  1.0000
  C   C1934     1.0  0.09521  0.82510  0.01707  1.0000
  C   C1935     1.0  0.07736  0.84481  0.02137  1.0000
  C   C1936     1.0  0.06078  0.84118  0.03447  1.0000
  C   C1937     1.0  0.06223  0.81788  0.04332  1.0000
  C   C1938     1.0  0.08052  0.79807  0.03921  1.0000
  C   C1939     1.0  0.09673  0.80180  0.02590  1.0000
  P   P64       1.0  0.08169  0.76791  0.05053  1.0000
  C   C1940     1.0  0.11270  0.74980  0.04784  1.0000
  C   C1941     1.0  0.07223  0.77177  0.06906  1.0000
  C   C1942     1.0  0.08239  0.78773  0.07387  1.0000
  C   C1943     1.0  0.07568  0.79051  0.08824  1.0000
  C   C1944     1.0  0.05842  0.77779  0.09786  1.0000
  C   C1945     1.0  0.04778  0.76237  0.09308  1.0000
  C   C1946     1.0  0.05480  0.75914  0.07878  1.0000
  C   C1947     1.0  0.12174  0.73927  0.03552  1.0000
  C   C1948     1.0  0.14600  0.72620  0.03289  1.0000
  C   C1949     1.0  0.16135  0.72317  0.04270  1.0000
  C   C1950     1.0  0.15231  0.73288  0.05523  1.0000
  C   C1951     1.0  0.12811  0.74614  0.05781  1.0000
  C   C1952     1.0  0.06130  0.75234  0.04604  1.0000
  C   C1953     1.0  0.04283  0.76531  0.03819  1.0000
  Fe  Fe140     1.0  0.18018  0.81209  0.98542  1.0000
  C   C1954     1.0  0.06337  0.72695  0.05086  1.0000
  H   H1526     1.0  0.10832  0.82795  0.00699  1.0000
  H   H1527     1.0  0.07655  0.86290  0.01458  1.0000
  H   H1528     1.0  0.04694  0.85648  0.03782  1.0000
  H   H1529     1.0  0.04914  0.81538  0.05339  1.0000
  H   H1530     1.0  0.11104  0.78701  0.02241  1.0000
  H   H1531     1.0  0.09601  0.79754  0.06658  1.0000
  H   H1532     1.0  0.08420  0.80216  0.09202  1.0000
  H   H1533     1.0  0.05378  0.77941  0.10909  1.0000
  H   H1534     1.0  0.03466  0.75224  0.10059  1.0000
  H   H1535     1.0  0.04681  0.74651  0.07551  1.0000
  H   H1536     1.0  0.11015  0.74167  0.02779  1.0000
  H   H1537     1.0  0.15306  0.71887  0.02312  1.0000
  H   H1538     1.0  0.18035  0.71362  0.04053  1.0000
  H   H1539     1.0  0.16432  0.73089  0.06274  1.0000
  H   H1540     1.0  0.12189  0.75368  0.06751  1.0000
  H   H1541     1.0  0.04079  0.78492  0.03431  1.0000
  H   H1542     1.0  0.07747  0.71671  0.05694  1.0000
  S   S263      1.0  0.00236  0.69678  0.07867  1.0000
  H   H1543     1.0  0.31900  0.66591  0.10325  1.0000
  P   P65       1.0  0.30446  0.73950  0.99001  1.0000
  C   C1955     1.0  0.32076  0.68109  0.12124  1.0000
  H   H1544     1.0  0.19903  0.88970  0.98824  1.0000
  H   H1545     1.0  0.29883  0.90444  0.17708  1.0000
  S   S264      1.0  0.32094  0.68000  0.20938  1.0000
  C   C1956     1.0  0.36554  0.87535  0.17880  1.0000
  C   C1957     1.0  0.06681  0.67255  0.14887  1.0000
  C   C1958     1.0  0.12084  0.71541  0.15534  1.0000
  C   C1959     1.0  0.10104  0.73499  0.15732  1.0000
  C   C1960     1.0  0.08390  0.73393  0.17026  1.0000
  C   C1961     1.0  0.35157  0.71424  0.08042  1.0000
  H   H1546     1.0  0.30598  0.85613  0.98085  1.0000
  C   C1962     1.0  0.34866  0.71862  0.12019  1.0000
  H   H1547     1.0  0.21252  0.90184  0.20232  1.0000
  C   C1963     1.0  0.33936  0.84336  0.19981  1.0000
  H   H1548     1.0  0.45054  0.72463  0.18644  1.0000
  H   H1549     1.0  0.31602  0.74079  0.13077  1.0000
  H   H1550     1.0  0.13397  0.71683  0.14523  1.0000
  H   H1551     1.0  0.09908  0.75101  0.14874  1.0000
  H   H1552     1.0  0.06872  0.74928  0.17179  1.0000
  H   H1553     1.0  0.01202  0.76307  0.02958  1.0000
  H   H1554     1.0  0.22133  0.92323  0.17687  1.0000
  C   C1964     1.0  0.37334  0.73197  0.13803  1.0000
  H   H1555     1.0  0.07474  0.70869  0.14535  1.0000
  H   H1556     1.0  0.37026  0.66440  0.10540  1.0000
  C   C1965     1.0  0.45076  0.73063  0.00797  1.0000
  C   C1966     1.0  0.19851  0.92590  0.99166  1.0000
  C   C1967     1.0  0.01822  0.66396  0.98885  1.0000
  H   H1557     1.0  0.43497  0.69383  0.14661  1.0000
  C   C1968     1.0  0.33577  0.73431  0.12977  1.0000
  H   H1558     1.0  0.37597  0.88780  0.17093  1.0000
  C   C1969     1.0  0.33651  0.75720  0.22035  1.0000
  C   C1970     1.0  0.23643  0.91400  0.18246  1.0000
  H   H1559     1.0  0.01374  0.65822  0.14194  1.0000
  S   S265      1.0  0.30801  0.68403  0.17751  1.0000
  C   C1971     1.0  0.30349  0.71528  0.01867  1.0000
  Fe  Fe141     1.0  0.14477  0.95183  0.17253  1.0000
  C   C1972     1.0  0.00310  0.72802  0.99722  1.0000
  C   C1973     1.0  0.34237  0.88447  0.18651  1.0000
  H   H1560     1.0  0.45029  0.70495  0.08927  1.0000
  S   S266      1.0  0.19924  0.97125  0.99652  1.0000
  C   C1974     1.0  0.28887  0.92968  0.21193  1.0000
  H   H1561     1.0  0.30634  0.77927  0.19563  1.0000
  C   C1975     1.0  0.29407  0.94972  0.21572  1.0000
  H   H1562     1.0  0.06234  0.73123  0.98078  1.0000
  H   H1563     1.0  0.26143  0.78575  0.19757  1.0000
  H   H1564     1.0  0.39878  0.65249  0.08381  1.0000
  C   C1976     1.0  0.06564  0.69789  0.10369  1.0000
  H   H1565     1.0  0.06578  0.93952  0.21640  1.0000
  H   H1566     1.0  0.00979  0.85489  0.18100  1.0000
  C   C1977     1.0  0.44996  0.68716  0.01394  1.0000
  C   C1978     1.0  0.48734  0.70097  0.01316  1.0000
  C   C1979     1.0  0.08640  0.71310  0.18118  1.0000
  H   H1567     1.0  0.48486  0.71502  0.16636  1.0000
  C   C1980     1.0  0.25396  0.74142  0.99354  1.0000
  H   H1568     1.0  0.04829  0.69165  0.10702  1.0000
  H   H1569     1.0  0.25171  0.91987  0.98987  1.0000
  S   S267      1.0  0.21694  0.82381  0.97865  1.0000
  H   H1570     1.0  0.14840  0.96860  0.08954  1.0000
  C   C1981     1.0  0.30546  0.90700  0.21311  1.0000
  C   C1982     1.0  0.17058  0.66959  0.11506  1.0000
  C   C1983     1.0  0.32718  0.90470  0.21820  1.0000
  H   H1571     1.0  0.07310  0.71230  0.19122  1.0000
  C   C1984     1.0  0.26080  0.91429  0.17535  1.0000
  H   H1572     1.0  0.32620  0.76101  0.10052  1.0000
  P   P66       1.0  0.33202  0.70776  0.11008  1.0000
  H   H1573     1.0  0.26456  0.92365  0.16421  1.0000
  H   H1574     1.0  0.33862  0.73154  0.07925  1.0000
  C   C1985     1.0  0.14993  0.93832  0.10736  1.0000
  C   C1986     1.0  0.15539  0.92933  0.12113  1.0000
  C   C1987     1.0  0.16377  0.94401  0.12774  1.0000
  C   C1988     1.0  0.31638  0.67771  0.13633  1.0000
  C   C1989     1.0  0.16693  0.96761  0.12053  1.0000
  H   H1575     1.0  0.01505  0.71833  0.03904  1.0000
  C   C1990     1.0  0.32209  0.67255  0.02591  1.0000
  Fe  Fe142     1.0  0.28723  0.68352  0.20023  1.0000
  C   C1991     1.0  0.15280  0.96207  0.10018  1.0000
  H   H1576     1.0  0.36695  0.71905  0.05766  1.0000
  C   C1992     1.0  0.43850  0.70148  0.15490  1.0000
  S   S268      1.0  0.07368  0.67669  0.07994  1.0000
  Fe  Fe143     1.0  0.03513  0.66892  0.08499  1.0000
  C   C1993     1.0  0.30941  0.81499  0.18269  1.0000
  C   C1994     1.0  0.37706  0.77845  0.21896  1.0000
  H   H1577     1.0  0.44170  0.74945  0.00468  1.0000
  C   C1995     1.0  0.06255  0.69630  0.15150  1.0000
  H   H1578     1.0  0.43993  0.67270  0.01519  1.0000
  C   C1996     1.0  0.37563  0.85030  0.18160  1.0000
  H   H1579     1.0  0.30678  0.85163  0.17004  1.0000
  H   H1580     1.0  0.32592  0.75793  0.00882  1.0000
  S   S269      1.0  0.05298  0.95936  0.18827  1.0000
  H   H1581     1.0  0.33027  0.83056  0.20819  1.0000
  H   H1582     1.0  0.16224  0.77532  0.20092  1.0000
  P   P67       1.0  0.15031  0.66991  0.16382  1.0000
  H   H1583     1.0  0.14342  0.92683  0.10228  1.0000
  H   H1584     1.0  0.15311  0.91101  0.12669  1.0000
  H   H1585     1.0  0.16768  0.93723  0.13852  1.0000
  C   C1997     1.0  0.30831  0.65671  0.14486  1.0000
  C   C1998     1.0  0.23307  0.73756  0.98989  1.0000
  C   C1999     1.0  0.00740  0.71076  0.00965  1.0000
  C   C2000     1.0  0.37418  0.71017  0.11939  1.0000
  C   C2001     1.0  0.28904  0.77435  0.09703  1.0000
  H   H1586     1.0  0.21237  0.97459  0.10194  1.0000
  C   C2002     1.0  0.32966  0.67039  0.01145  1.0000
  H   H1587     1.0  0.33964  0.65292  0.00865  1.0000
  H   H1588     1.0  0.39310  0.70479  0.99330  1.0000
  H   H1589     1.0  0.13579  0.69802  0.99313  1.0000
  H   H1590     1.0  0.38467  0.69770  0.11234  1.0000
  C   C2003     1.0  0.28322  0.83782  0.22137  1.0000
  C   C2004     1.0  0.17503  0.67793  0.16942  1.0000
  C   C2005     1.0  0.17602  0.86631  0.21435  1.0000
  C   C2006     1.0  0.14014  0.67061  0.13712  1.0000
  C   C2007     1.0  0.28339  0.72545  0.10588  1.0000
  H   H1591     1.0  0.22087  0.65351  0.18890  1.0000
  C   C2008     1.0  0.26374  0.74381  0.10182  1.0000
  H   H1592     1.0  0.25112  0.78243  0.09447  1.0000
  C   C2009     1.0  0.04712  0.72533  0.98893  1.0000
  C   C2010     1.0  0.19779  0.70868  0.16971  1.0000
  H   H1593     1.0  0.30230  0.69641  0.04075  1.0000
  H   H1594     1.0  0.02799  0.67904  0.98499  1.0000
  H   H1595     1.0  0.30530  0.65416  0.15646  1.0000
  C   C2011     1.0  0.04667  0.94879  0.21784  1.0000
  S   S270      1.0  0.31110  0.74367  0.22174  1.0000
  H   H1596     1.0  0.13163  0.67275  0.11639  1.0000
  C   C2012     1.0  0.26499  0.90996  0.98218  1.0000
  S   S271      1.0  0.16928  0.97500  0.15591  1.0000
  H   H1597     1.0  0.19776  0.66702  0.14301  1.0000
  H   H1598     1.0  0.01979  0.74863  0.97717  1.0000
  C   C2013     1.0  0.18910  0.66799  0.12263  1.0000
  H   H1599     1.0  0.35767  0.71650  0.98419  1.0000
  H   H1600     1.0  0.38352  0.66335  0.00224  1.0000
  C   C2014     1.0  0.19958  0.95916  0.21397  1.0000
  H   H1601     1.0  0.01052  0.69497  0.17722  1.0000
  S   S272      1.0  0.25322  0.66672  0.20844  1.0000
  C   C2015     1.0  0.20915  0.66700  0.18228  1.0000
  H   H1602     1.0  0.44867  0.73346  0.12653  1.0000
  C   C2016     1.0  0.14610  0.67084  0.12231  1.0000
  H   H1603     1.0  0.48531  0.67172  0.09534  1.0000
  H   H1604     1.0  0.17509  0.67062  0.10350  1.0000
  C   C2017     1.0  0.45757  0.70392  0.09876  1.0000
  H   H1605     1.0  0.15775  0.73193  0.98950  1.0000
  H   H1606     1.0  0.15788  0.87808  0.21479  1.0000
  C   C2018     1.0  0.38084  0.65669  0.13907  1.0000
  C   C2019     1.0  0.16145  0.97688  0.10671  1.0000
  C   C2020     1.0  0.45663  0.71973  0.11988  1.0000
  H   H1607     1.0  0.25155  0.98190  0.10503  1.0000
  C   C2021     1.0  0.23565  0.72573  0.97846  1.0000
  H   H1608     1.0  0.48513  0.96353  0.97756  1.0000
  H   H1609     1.0  0.34008  0.88729  0.21946  1.0000
  C   C2022     1.0  0.36930  0.67653  0.09504  1.0000
  H   H1610     1.0  0.37632  0.65531  0.97568  1.0000
  C   C2023     1.0  0.33238  0.92484  0.22185  1.0000
  H   H1611     1.0  0.17360  0.97869  0.12577  1.0000
  S   S273      1.0  0.40283  0.79145  0.21766  1.0000
  H   H1612     1.0  0.31960  0.96275  0.22384  1.0000
  C   C2024     1.0  0.29566  0.87400  0.97693  1.0000
  H   H1613     1.0  0.47238  0.96580  0.00338  1.0000
  H   H1614     1.0  0.01784  0.65270  0.17270  1.0000
  C   C2025     1.0  0.49062  0.84114  0.22103  1.0000
  H   H1615     1.0  0.49034  0.67612  0.04222  1.0000
  C   C2026     1.0  0.31582  0.94733  0.22065  1.0000
  P   P68       1.0  0.49070  0.65020  0.01947  1.0000
  C   C2027     1.0  0.49176  0.96059  0.99877  1.0000
  Fe  Fe144     1.0  0.37394  0.84722  0.25433  1.0000
  S   S274      1.0  0.37769  0.80668  0.25638  1.0000
  S   S275      1.0  0.33487  0.86820  0.25860  1.0000
  C   C2028     1.0  0.09075  0.97080  0.26855  1.0000
  H   H1616     1.0  0.30934  0.78629  0.33430  1.0000
  H   H1617     1.0  0.24454  0.95412  0.39236  1.0000
  C   C2029     1.0  0.14790  0.97710  0.34635  1.0000
  H   H1618     1.0  0.35375  0.79634  0.23588  1.0000
  Fe  Fe145     1.0  0.42873  0.84533  0.24397  1.0000
  C   C2030     1.0  0.41383  0.69335  0.31404  1.0000
  C   C2031     1.0  0.40479  0.92919  0.36871  1.0000
  H   H1619     1.0  0.37639  0.97562  0.44183  1.0000
  C   C2032     1.0  0.39566  0.73324  0.24811  1.0000
  C   C2033     1.0  0.01954  0.96422  0.41384  1.0000
  H   H1620     1.0  0.26137  0.73439  0.35064  1.0000
  C   C2034     1.0  0.03266  0.94921  0.23178  1.0000
  C   C2035     1.0  0.22311  0.88205  0.26163  1.0000
  H   H1621     1.0  0.18611  0.87241  0.31143  1.0000
  H   H1622     1.0  0.28174  0.88167  0.27641  1.0000
  C   C2036     1.0  0.48514  0.78808  0.27667  1.0000
  C   C2037     1.0  0.31004  0.80264  0.41601  1.0000
  Fe  Fe146     1.0  0.38908  0.84751  0.35450  1.0000
  S   S276      1.0  0.40137  0.80934  0.36612  1.0000
  S   S277      1.0  0.35076  0.86015  0.34962  1.0000
  Fe  Fe147     1.0  0.41919  0.82761  0.37767  1.0000
  S   S278      1.0  0.41812  0.82066  0.40138  1.0000
  S   S279      1.0  0.40430  0.86593  0.36733  1.0000
  H   H1623     1.0  0.26748  0.77724  0.34136  1.0000
  C   C2038     1.0  0.44934  0.75456  0.31884  1.0000
  S   S280      1.0  0.17353  0.85397  0.45348  1.0000
  H   H1624     1.0  0.28535  0.95072  0.25339  1.0000
  C   C2039     1.0  0.44165  0.75291  0.30656  1.0000
  C   C2040     1.0  0.40660  0.69025  0.32901  1.0000
  H   H1625     1.0  0.22093  0.85937  0.45497  1.0000
  Fe  Fe148     1.0  0.31607  0.89202  0.44873  1.0000
  H   H1626     1.0  0.00745  0.91558  0.44760  1.0000
  C   C2041     1.0  0.30716  0.76735  0.33753  1.0000
  Fe  Fe149     1.0  0.26939  0.75983  0.38713  1.0000
  S   S281      1.0  0.27341  0.75930  0.40949  1.0000
  S   S282      1.0  0.27103  0.79233  0.36869  1.0000
  Fe  Fe150     1.0  0.25926  0.70790  0.39435  1.0000
  S   S283      1.0  0.26289  0.70267  0.41753  1.0000
  S   S284      1.0  0.25655  0.67639  0.38463  1.0000
  Fe  Fe151     1.0  0.24051  0.74125  0.41661  1.0000
  S   S285      1.0  0.20976  0.74918  0.43558  1.0000
  Fe  Fe152     1.0  0.29555  0.72099  0.40894  1.0000
  S   S286      1.0  0.33313  0.71069  0.41546  1.0000
  S   S287      1.0  0.23430  0.74488  0.39414  1.0000
  S   S288      1.0  0.29399  0.72316  0.38579  1.0000
  H   H1627     1.0  0.41436  0.67363  0.33582  1.0000
  H   H1628     1.0  0.29331  0.75243  0.30717  1.0000
  H   H1629     1.0  0.27142  0.80376  0.23181  1.0000
  C   C2042     1.0  0.48977  0.78697  0.29030  1.0000
  S   S289      1.0  0.31483  0.87598  0.43012  1.0000
  Fe  Fe153     1.0  0.29880  0.94000  0.45884  1.0000
  C   C2043     1.0  0.01418  0.91211  0.41760  1.0000
  S   S290      1.0  0.33223  0.92560  0.44353  1.0000
  S   S291      1.0  0.28115  0.90736  0.46287  1.0000
  C   C2044     1.0  0.24790  0.92031  0.24747  1.0000
  C   C2045     1.0  0.36128  0.79129  0.46392  1.0000
  C   C2046     1.0  0.24487  0.96282  0.42434  1.0000
  C   C2047     1.0  0.26049  0.96099  0.43387  1.0000
  H   H1630     1.0  0.43841  0.69663  0.42761  1.0000
  H   H1631     1.0  0.23137  0.68881  0.23904  1.0000
  C   C2048     1.0  0.43737  0.86892  0.29212  1.0000
  H   H1632     1.0  0.24395  0.94656  0.42083  1.0000
  H   H1633     1.0  0.27182  0.94348  0.43739  1.0000
  H   H1634     1.0  0.41936  0.93496  0.36001  1.0000
  S   S292      1.0  0.45514  0.82429  0.36212  1.0000
  C   C2049     1.0  0.32777  0.74819  0.33857  1.0000
  C   C2050     1.0  0.26748  0.75793  0.46854  1.0000
  C   C2051     1.0  0.32512  0.67371  0.43946  1.0000
  S   S293      1.0  0.43704  0.80474  0.24465  1.0000
  Fe  Fe154     1.0  0.43579  0.81043  0.34915  1.0000
  C   C2052     1.0  0.42958  0.77385  0.29830  1.0000
  S   S294      1.0  0.27827  0.97867  0.45241  1.0000
  H   H1635     1.0  0.30677  0.67607  0.43741  1.0000
  S   S295      1.0  0.42259  0.84762  0.33672  1.0000
  H   H1636     1.0  0.35502  0.75152  0.41896  1.0000
  H   H1637     1.0  0.29539  0.90674  0.25209  1.0000
  H   H1638     1.0  0.30520  0.68833  0.28159  1.0000
  S   S296      1.0  0.41948  0.77037  0.28332  1.0000
  S   S297      1.0  0.46468  0.88955  0.34301  1.0000
  C   C2053     1.0  0.19095  0.68608  0.37175  1.0000
  C   C2054     1.0  0.21042  0.69046  0.37683  1.0000
  C   C2055     1.0  0.23076  0.67163  0.37916  1.0000
  H   H1639     1.0  0.27604  0.68083  0.26879  1.0000
  C   C2056     1.0  0.18845  0.83390  0.31306  1.0000
  H   H1640     1.0  0.17548  0.70084  0.36975  1.0000
  H   H1641     1.0  0.20990  0.70847  0.37871  1.0000
  C   C2057     1.0  0.37713  0.97481  0.43072  1.0000
  H   H1642     1.0  0.42968  0.81580  0.31782  1.0000
  C   C2058     1.0  0.18431  0.82450  0.44896  1.0000
  C   C2059     1.0  0.20273  0.82146  0.43665  1.0000
  C   C2060     1.0  0.21115  0.79839  0.43255  1.0000
  C   C2061     1.0  0.20082  0.77828  0.44058  1.0000
  C   C2062     1.0  0.18235  0.78137  0.45282  1.0000
  C   C2063     1.0  0.17428  0.80427  0.45708  1.0000
  H   H1643     1.0  0.21057  0.83700  0.43029  1.0000
  H   H1644     1.0  0.22536  0.79625  0.42308  1.0000
  C   C2064     1.0  0.38714  0.73351  0.31154  1.0000
  C   C2065     1.0  0.30025  0.71902  0.34799  1.0000
  H   H1645     1.0  0.04777  0.87825  0.46258  1.0000
  H   H1646     1.0  0.41856  0.75008  0.36497  1.0000
  H   H1647     1.0  0.34425  0.77839  0.30693  1.0000
  C   C2066     1.0  0.45720  0.87311  0.29684  1.0000
  C   C2067     1.0  0.39198  0.75275  0.35196  1.0000
  C   C2068     1.0  0.38966  0.83640  0.40932  1.0000
  C   C2069     1.0  0.38776  0.84635  0.42143  1.0000
  C   C2070     1.0  0.36487  0.85882  0.42784  1.0000
  C   C2071     1.0  0.34387  0.86121  0.42214  1.0000
  C   C2072     1.0  0.34596  0.85156  0.40990  1.0000
  C   C2073     1.0  0.36880  0.83931  0.40344  1.0000
  H   H1648     1.0  0.40408  0.84481  0.42567  1.0000
  H   H1649     1.0  0.36350  0.86650  0.43719  1.0000
  H   H1650     1.0  0.32978  0.85312  0.40558  1.0000
  H   H1651     1.0  0.37014  0.83171  0.39406  1.0000
  C   C2074     1.0  0.33094  0.83880  0.35481  1.0000
  C   C2075     1.0  0.33221  0.81948  0.36680  1.0000
  C   C2076     1.0  0.31420  0.80457  0.37118  1.0000
  C   C2077     1.0  0.29538  0.80865  0.36336  1.0000
  C   C2078     1.0  0.29485  0.82732  0.35114  1.0000
  C   C2079     1.0  0.31219  0.84256  0.34709  1.0000
  H   H1652     1.0  0.34639  0.81663  0.37302  1.0000
  H   H1653     1.0  0.31462  0.79024  0.38066  1.0000
  H   H1654     1.0  0.28036  0.83055  0.34508  1.0000
  H   H1655     1.0  0.31088  0.85769  0.33810  1.0000
  C   C2080     1.0  0.02481  0.80304  0.46166  1.0000
  C   C2081     1.0  0.49121  0.80832  0.29440  1.0000
  C   C2082     1.0  0.21672  0.85751  0.29585  1.0000
  C   C2083     1.0  0.03508  0.90776  0.40677  1.0000
  H   H1656     1.0  0.17907  0.86954  0.23532  1.0000
  H   H1657     1.0  0.32043  0.69805  0.46472  1.0000
  C   C2084     1.0  0.31228  0.80727  0.27793  1.0000
  C   C2085     1.0  0.04916  0.80407  0.46153  1.0000
  C   C2086     1.0  0.22242  0.81363  0.29702  1.0000
  H   H1658     1.0  0.18915  0.66859  0.40914  1.0000
  H   H1659     1.0  0.17429  0.76590  0.45900  1.0000
  H   H1660     1.0  0.38449  0.70606  0.34689  1.0000
  H   H1661     1.0  0.21245  0.86801  0.26698  1.0000
  H   H1662     1.0  0.23279  0.79705  0.29325  1.0000
  H   H1663     1.0  0.15366  0.96331  0.32685  1.0000
  C   C2087     1.0  0.01521  0.86822  0.42454  1.0000
  H   H1664     1.0  0.44844  0.75982  0.44945  1.0000
  Fe  Fe155     1.0  0.41081  0.80306  0.26590  1.0000
  H   H1665     1.0  0.41632  0.81289  0.29593  1.0000
  H   H1666     1.0  0.33958  0.70894  0.34524  1.0000
  C   C2088     1.0  0.18632  0.95673  0.23974  1.0000
  C   C2089     1.0  0.16747  0.94485  0.23957  1.0000
  C   C2090     1.0  0.39952  0.74994  0.36500  1.0000
  C   C2091     1.0  0.37290  0.66671  0.44484  1.0000
  H   H1667     1.0  0.15526  0.93895  0.24950  1.0000
  H   H1668     1.0  0.34470  0.78385  0.46854  1.0000
  S   S298      1.0  0.24088  0.97907  0.26593  1.0000
  C   C2092     1.0  0.36644  0.80850  0.47027  1.0000
  C   C2093     1.0  0.33012  0.89975  0.25860  1.0000
  C   C2094     1.0  0.34704  0.91008  0.26236  1.0000
  C   C2095     1.0  0.34125  0.93512  0.26330  1.0000
  C   C2096     1.0  0.31871  0.94980  0.26032  1.0000
  C   C2097     1.0  0.30225  0.93944  0.25626  1.0000
  C   C2098     1.0  0.30792  0.91454  0.25549  1.0000
  H   H1669     1.0  0.36432  0.89877  0.26476  1.0000
  H   H1670     1.0  0.35418  0.94309  0.26635  1.0000
  S   S299      1.0  0.45722  0.86919  0.23925  1.0000
  Fe  Fe156     1.0  0.40323  0.81151  0.23502  1.0000
  H   H1671     1.0  0.28334  0.78376  0.45065  1.0000
  C   C2099     1.0  0.06687  0.97711  0.27640  1.0000
  H   H1672     1.0  0.40691  0.74984  0.26244  1.0000
  C   C2100     1.0  0.35906  0.73845  0.45717  1.0000
  C   C2101     1.0  0.28994  0.86148  0.23714  1.0000
  C   C2102     1.0  0.00402  0.89219  0.42625  1.0000
  H   H1673     1.0  0.29238  0.76475  0.26104  1.0000
  H   H1674     1.0  0.04258  0.92291  0.39953  1.0000
  H   H1675     1.0  0.47575  0.77062  0.39584  1.0000
  H   H1676     1.0  0.36843  0.74877  0.28057  1.0000
  H   H1677     1.0  0.04104  0.94011  0.24102  1.0000
  S   S300      1.0  0.31087  0.98092  0.26187  1.0000
  H   H1678     1.0  0.31822  0.77734  0.23727  1.0000
  H   H1679     1.0  0.19566  0.79527  0.31271  1.0000
  C   C2103     1.0  0.27611  0.82011  0.23335  1.0000
  H   H1680     1.0  0.44945  0.88321  0.41755  1.0000
  C   C2104     1.0  0.27555  0.82329  0.24723  1.0000
  C   C2105     1.0  0.35524  0.72255  0.25601  1.0000
  C   C2106     1.0  0.26077  0.98153  0.43918  1.0000
  C   C2107     1.0  0.21407  0.65201  0.29436  1.0000
  C   C2108     1.0  0.31279  0.76348  0.28532  1.0000
  C   C2109     1.0  0.20155  0.81261  0.30800  1.0000
  C   C2110     1.0  0.38970  0.70880  0.33525  1.0000
  C   C2111     1.0  0.24130  0.67270  0.24521  1.0000
  C   C2112     1.0  0.40507  0.92226  0.46882  1.0000
  C   C2113     1.0  0.24565  0.98185  0.35185  1.0000
  H   H1681     1.0  0.46734  0.89232  0.31057  1.0000
  H   H1682     1.0  0.47746  0.91278  0.28015  1.0000
  C   C2114     1.0  0.32378  0.96040  0.40434  1.0000
  H   H1683     1.0  0.37932  0.71714  0.23580  1.0000
  H   H1684     1.0  0.42469  0.91129  0.31986  1.0000
  H   H1685     1.0  0.26412  0.75661  0.24794  1.0000
  C   C2115     1.0  0.38298  0.95014  0.41276  1.0000
  C   C2116     1.0  0.12161  0.76683  0.46661  1.0000
  H   H1686     1.0  0.33031  0.78122  0.26434  1.0000
  C   C2117     1.0  0.34111  0.72684  0.45559  1.0000
  H   H1687     1.0  0.34094  0.71548  0.25367  1.0000
  C   C2118     1.0  0.04613  0.88374  0.40498  1.0000
  C   C2119     1.0  0.29814  0.81104  0.29135  1.0000
  C   C2120     1.0  0.48577  0.86121  0.22779  1.0000
  C   C2121     1.0  0.37072  0.74122  0.27103  1.0000
  C   C2122     1.0  0.29563  0.70362  0.27473  1.0000
  C   C2123     1.0  0.31541  0.97731  0.41355  1.0000
  C   C2124     1.0  0.45242  0.88875  0.30674  1.0000
  H   H1688     1.0  0.48088  0.84914  0.26358  1.0000
  C   C2125     1.0  0.25327  0.97370  0.30454  1.0000
  C   C2126     1.0  0.37711  0.72337  0.24579  1.0000
  H   H1689     1.0  0.41983  0.81932  0.44751  1.0000
  H   H1690     1.0  0.47650  0.76367  0.37167  1.0000
  H   H1691     1.0  0.46775  0.79230  0.43253  1.0000
  C   C2127     1.0  0.28333  0.76228  0.34152  1.0000
  C   C2128     1.0  0.20662  0.66074  0.30731  1.0000
  H   H1692     1.0  0.02420  0.97453  0.31260  1.0000
  H   H1693     1.0  0.29723  0.95514  0.33375  1.0000
  P   P69       1.0  0.22832  0.88553  0.28888  1.0000
  C   C2129     1.0  0.20641  0.91237  0.29339  1.0000
  C   C2130     1.0  0.25526  0.88123  0.29657  1.0000
  C   C2131     1.0  0.25256  0.87778  0.31159  1.0000
  C   C2132     1.0  0.27327  0.87319  0.31789  1.0000
  C   C2133     1.0  0.29680  0.87212  0.30922  1.0000
  C   C2134     1.0  0.29959  0.87570  0.29429  1.0000
  C   C2135     1.0  0.27895  0.87995  0.28795  1.0000
  C   C2136     1.0  0.21428  0.93086  0.29730  1.0000
  C   C2137     1.0  0.19834  0.95334  0.29850  1.0000
  C   C2138     1.0  0.17451  0.95765  0.29581  1.0000
  C   C2139     1.0  0.16650  0.93935  0.29192  1.0000
  C   C2140     1.0  0.18245  0.91683  0.29059  1.0000
  C   C2141     1.0  0.23397  0.89276  0.26949  1.0000
  H   H1694     1.0  0.23445  0.87847  0.31845  1.0000
  H   H1695     1.0  0.27104  0.87057  0.32949  1.0000
  H   H1696     1.0  0.31299  0.86865  0.31396  1.0000
  H   H1697     1.0  0.31788  0.87483  0.28764  1.0000
  H   H1698     1.0  0.23302  0.92852  0.29879  1.0000
  H   H1699     1.0  0.20471  0.96772  0.30119  1.0000
  H   H1700     1.0  0.20848  0.66241  0.25903  1.0000
  H   H1701     1.0  0.14820  0.94293  0.28947  1.0000
  H   H1702     1.0  0.17643  0.90329  0.28685  1.0000
  H   H1703     1.0  0.25321  0.92173  0.26826  1.0000
  C   C2142     1.0  0.40364  0.81123  0.45219  1.0000
  H   H1704     1.0  0.06224  0.88046  0.39661  1.0000
  S   S301      1.0  0.39733  0.85256  0.23219  1.0000
  H   H1705     1.0  0.29699  0.84999  0.45750  1.0000
  C   C2143     1.0  0.00802  0.96162  0.23381  1.0000
  C   C2144     1.0  0.47487  0.77348  0.43125  1.0000
  P   P70       1.0  0.36963  0.76266  0.44313  1.0000
  C   C2145     1.0  0.34582  0.77828  0.43283  1.0000
  C   C2146     1.0  0.37707  0.78425  0.45147  1.0000
  H   H1706     1.0  0.21560  0.88304  0.24079  1.0000
  C   C2147     1.0  0.39833  0.79434  0.44565  1.0000
  C   C2148     1.0  0.33004  0.80028  0.43578  1.0000
  C   C2149     1.0  0.31204  0.81219  0.42751  1.0000
  C   C2150     1.0  0.34336  0.76862  0.42139  1.0000
  C   C2151     1.0  0.39611  0.74956  0.43093  1.0000
  C   C2152     1.0  0.40351  0.76347  0.41728  1.0000
  C   C2153     1.0  0.42368  0.75367  0.40756  1.0000
  C   C2154     1.0  0.43639  0.72965  0.41131  1.0000
  C   C2155     1.0  0.42887  0.71543  0.42479  1.0000
  C   C2156     1.0  0.40885  0.72534  0.43460  1.0000
  H   H1707     1.0  0.05756  0.96258  0.28288  1.0000
  C   C2157     1.0  0.36732  0.75299  0.35178  1.0000
  C   C2158     1.0  0.04313  0.95687  0.41733  1.0000
  C   C2159     1.0  0.32578  0.78092  0.41293  1.0000
  H   H1708     1.0  0.41056  0.78974  0.43590  1.0000
  H   H1709     1.0  0.33170  0.80865  0.44424  1.0000
  H   H1710     1.0  0.30007  0.82927  0.42978  1.0000
  C   C2160     1.0  0.41093  0.91117  0.38047  1.0000
  H   H1711     1.0  0.39347  0.78192  0.41414  1.0000
  H   H1712     1.0  0.42925  0.76482  0.39711  1.0000
  H   H1713     1.0  0.45190  0.72198  0.40372  1.0000
  H   H1714     1.0  0.16254  0.97545  0.29641  1.0000
  H   H1715     1.0  0.40319  0.71384  0.44487  1.0000
  H   H1716     1.0  0.28322  0.71489  0.44089  1.0000
  C   C2161     1.0  0.34979  0.68350  0.31480  1.0000
  C   C2162     1.0  0.16194  0.96451  0.33551  1.0000
  C   C2163     1.0  0.18671  0.95373  0.33578  1.0000
  C   C2164     1.0  0.19775  0.95584  0.34673  1.0000
  C   C2165     1.0  0.48386  0.83184  0.27107  1.0000
  P   P71       1.0  0.23004  0.94263  0.34669  1.0000
  C   C2166     1.0  0.23403  0.91011  0.35419  1.0000
  C   C2167     1.0  0.24749  0.94803  0.32846  1.0000
  C   C2168     1.0  0.26867  0.93111  0.32388  1.0000
  C   C2169     1.0  0.28198  0.93553  0.30975  1.0000
  C   C2170     1.0  0.27418  0.95671  0.30006  1.0000
  C   C2171     1.0  0.23679  0.82431  0.46660  1.0000
  C   C2172     1.0  0.24006  0.96948  0.31869  1.0000
  C   C2173     1.0  0.25571  0.89757  0.35928  1.0000
  C   C2174     1.0  0.25834  0.87271  0.36569  1.0000
  C   C2175     1.0  0.23961  0.86004  0.36689  1.0000
  C   C2176     1.0  0.21818  0.87224  0.36166  1.0000
  C   C2177     1.0  0.21533  0.89719  0.35536  1.0000
  C   C2178     1.0  0.24037  0.95827  0.35751  1.0000
  C   C2179     1.0  0.24029  0.94828  0.37217  1.0000
  H   H1717     1.0  0.48310  0.77169  0.27371  1.0000
  C   C2180     1.0  0.36576  0.68371  0.43275  1.0000
  H   H1718     1.0  0.00614  0.93750  0.32227  1.0000
  H   H1719     1.0  0.46919  0.82553  0.39338  1.0000
  H   H1720     1.0  0.44528  0.73534  0.30338  1.0000
  C   C2181     1.0  0.01396  0.96921  0.30619  1.0000
  C   C2182     1.0  0.35517  0.78386  0.22885  1.0000
  H   H1721     1.0  0.19736  0.94385  0.32743  1.0000
  H   H1722     1.0  0.07735  0.96782  0.41633  1.0000
  H   H1723     1.0  0.27522  0.91465  0.33118  1.0000
  H   H1724     1.0  0.29849  0.92266  0.30625  1.0000
  H   H1725     1.0  0.28446  0.96005  0.28911  1.0000
  H   H1726     1.0  0.27675  0.67810  0.23256  1.0000
  C   C2183     1.0  0.38153  0.95188  0.42698  1.0000
  H   H1727     1.0  0.27046  0.90704  0.35851  1.0000
  H   H1728     1.0  0.27495  0.86312  0.36974  1.0000
  H   H1729     1.0  0.24175  0.84074  0.37190  1.0000
  H   H1730     1.0  0.20366  0.86234  0.36269  1.0000
  H   H1731     1.0  0.19837  0.90631  0.35164  1.0000
  H   H1732     1.0  0.23509  0.93074  0.37709  1.0000
  H   H1733     1.0  0.32966  0.66457  0.33424  1.0000
  C   C2184     1.0  0.03617  0.86397  0.41386  1.0000
  Fe  Fe157     1.0  0.34915  0.90904  0.46308  1.0000
  H   H1734     1.0  0.23788  0.91675  0.22830  1.0000
  H   H1735     1.0  0.40539  0.75477  0.34198  1.0000
  H   H1736     1.0  0.29634  0.81207  0.40947  1.0000
  H   H1737     1.0  0.29744  0.70046  0.35266  1.0000
  C   C2185     1.0  0.27983  0.81906  0.46783  1.0000
  H   H1738     1.0  0.10282  0.97304  0.23365  1.0000
  H   H1739     1.0  0.29295  0.82925  0.29379  1.0000
  C   C2186     1.0  0.48234  0.81051  0.26703  1.0000
  C   C2187     1.0  0.31109  0.95025  0.35319  1.0000
  C   C2188     1.0  0.32429  0.95939  0.36054  1.0000
  H   H1740     1.0  0.19105  0.96912  0.36667  1.0000
  P   P72       1.0  0.32887  0.94441  0.37863  1.0000
  C   C2189     1.0  0.31207  0.91963  0.38529  1.0000
  C   C2190     1.0  0.36109  0.93109  0.37901  1.0000
  C   C2191     1.0  0.36748  0.91241  0.39059  1.0000
  C   C2192     1.0  0.39228  0.90258  0.39131  1.0000
  C   C2193     1.0  0.38002  0.93911  0.36795  1.0000
  C   C2194     1.0  0.29129  0.92112  0.39648  1.0000
  C   C2195     1.0  0.27832  0.90189  0.40133  1.0000
  C   C2196     1.0  0.28594  0.88110  0.39503  1.0000
  C   C2197     1.0  0.30669  0.87944  0.38395  1.0000
  C   C2198     1.0  0.31987  0.89847  0.37920  1.0000
  C   C2199     1.0  0.01833  0.80015  0.44930  1.0000
  C   C2200     1.0  0.29119  0.79120  0.30175  1.0000
  C   C2201     1.0  0.22843  0.65755  0.25643  1.0000
  C   C2202     1.0  0.27910  0.76561  0.45431  1.0000
  H   H1741     1.0  0.09954  0.95165  0.26897  1.0000
  C   C2203     1.0  0.29857  0.76747  0.29881  1.0000
  H   H1742     1.0  0.47528  0.85847  0.36984  1.0000
  S   S302      1.0  0.33571  0.87371  0.46702  1.0000
  H   H1743     1.0  0.30342  0.93400  0.35806  1.0000
  C   C2204     1.0  0.35174  0.73172  0.26867  1.0000
  H   H1744     1.0  0.35335  0.90522  0.39906  1.0000
  H   H1745     1.0  0.39700  0.88797  0.40017  1.0000
  H   H1746     1.0  0.37597  0.95265  0.35859  1.0000
  H   H1747     1.0  0.28512  0.93693  0.40161  1.0000
  H   H1748     1.0  0.26266  0.90290  0.41019  1.0000
  H   H1749     1.0  0.27614  0.86603  0.39899  1.0000
  H   H1750     1.0  0.31310  0.86306  0.37933  1.0000
  H   H1751     1.0  0.33618  0.89664  0.37076  1.0000
  C   C2205     1.0  0.00390  0.94807  0.31168  1.0000
  H   H1752     1.0  0.21885  0.66470  0.28445  1.0000
  H   H1753     1.0  0.22683  0.92944  0.45211  1.0000
  C   C2206     1.0  0.36859  0.82585  0.31949  1.0000
  C   C2207     1.0  0.36162  0.83153  0.30609  1.0000
  C   C2208     1.0  0.35295  0.81432  0.30161  1.0000
  C   C2209     1.0  0.35131  0.79136  0.31051  1.0000
  C   C2210     1.0  0.35922  0.78509  0.32377  1.0000
  C   C2211     1.0  0.36746  0.80277  0.32829  1.0000
  C   C2212     1.0  0.35029  0.75053  0.36486  1.0000
  C   C2213     1.0  0.35797  0.74739  0.37791  1.0000
  C   C2214     1.0  0.38253  0.74719  0.37800  1.0000
  H   H1754     1.0  0.37525  0.83920  0.32304  1.0000
  H   H1755     1.0  0.36313  0.84918  0.29913  1.0000
  H   H1756     1.0  0.34793  0.81868  0.29111  1.0000
  H   H1757     1.0  0.37308  0.79901  0.33858  1.0000
  H   H1758     1.0  0.33110  0.75098  0.36508  1.0000
  H   H1759     1.0  0.34486  0.74495  0.38797  1.0000
  H   H1760     1.0  0.38832  0.74491  0.38814  1.0000
  C   C2215     1.0  0.03618  0.79856  0.43673  1.0000
  C   C2216     1.0  0.18801  0.86138  0.22595  1.0000
  H   H1761     1.0  0.43955  0.89714  0.46443  1.0000
  S   S303      1.0  0.16698  0.65839  0.36222  1.0000
  C   C2217     1.0  0.06736  0.80206  0.44903  1.0000
  C   C2218     1.0  0.06052  0.79988  0.43651  1.0000
  P   P73       1.0  0.09794  0.80670  0.44850  1.0000
  C   C2219     1.0  0.12081  0.79452  0.43421  1.0000
  C   C2220     1.0  0.11956  0.77264  0.43048  1.0000
  C   C2221     1.0  0.13848  0.76204  0.42039  1.0000
  C   C2222     1.0  0.15886  0.77308  0.41401  1.0000
  C   C2223     1.0  0.16022  0.79484  0.41760  1.0000
  C   C2224     1.0  0.14137  0.80549  0.42770  1.0000
  C   C2225     1.0  0.23727  0.90954  0.23970  1.0000
  C   C2226     1.0  0.09607  0.83945  0.44574  1.0000
  C   C2227     1.0  0.07826  0.85580  0.43846  1.0000
  C   C2228     1.0  0.07736  0.88108  0.43571  1.0000
  C   C2229     1.0  0.09418  0.89030  0.44025  1.0000
  C   C2230     1.0  0.11186  0.87419  0.44756  1.0000
  C   C2231     1.0  0.11281  0.84887  0.45033  1.0000
  H   H1762     1.0  0.03099  0.79674  0.42709  1.0000
  H   H1763     1.0  0.00740  0.85299  0.43151  1.0000
  C   C2232     1.0  0.18329  0.96782  0.35783  1.0000
  H   H1764     1.0  0.07376  0.79975  0.42649  1.0000
  H   H1765     1.0  0.17397  0.76441  0.40659  1.0000
  H   H1766     1.0  0.17642  0.80293  0.41300  1.0000
  H   H1767     1.0  0.14349  0.82174  0.43075  1.0000
  H   H1768     1.0  0.28044  0.79419  0.31220  1.0000
  H   H1769     1.0  0.06486  0.84913  0.43501  1.0000
  H   H1770     1.0  0.06336  0.89345  0.43025  1.0000
  H   H1771     1.0  0.09359  0.90987  0.43813  1.0000
  H   H1772     1.0  0.12508  0.88132  0.45096  1.0000
  C   C2233     1.0  0.23734  0.84809  0.45861  1.0000
  H   H1773     1.0  0.43016  0.90317  0.38082  1.0000
  H   H1774     1.0  0.31821  0.82257  0.26996  1.0000
  C   C2234     1.0  0.32412  0.72396  0.34381  1.0000
  C   C2235     1.0  0.24589  0.91228  0.26232  1.0000
  H   H1775     1.0  0.32413  0.77330  0.40415  1.0000
  H   H1776     1.0  0.10448  0.76323  0.43578  1.0000
  H   H1777     1.0  0.13776  0.74487  0.41780  1.0000
  H   H1778     1.0  0.04916  0.93835  0.42286  1.0000
  S   S304      1.0  0.40455  0.84318  0.26611  1.0000
  P   P74       1.0  0.35843  0.75476  0.33489  1.0000
  H   H1779     1.0  0.24654  0.83645  0.28270  1.0000
  C   C2236     1.0  0.44485  0.77714  0.32310  1.0000
  C   C2237     1.0  0.42544  0.79661  0.30232  1.0000
  C   C2238     1.0  0.24550  0.96159  0.38097  1.0000
  C   C2239     1.0  0.27986  0.73817  0.34685  1.0000
  C   C2240     1.0  0.45760  0.85563  0.40452  1.0000
  C   C2241     1.0  0.33336  0.98096  0.35382  1.0000
  Fe  Fe158     1.0  0.43953  0.86172  0.35099  1.0000
  C   C2242     1.0  0.43289  0.79822  0.31481  1.0000
  H   H1780     1.0  0.38058  0.75021  0.30450  1.0000
  H   H1781     1.0  0.29401  0.75582  0.43356  1.0000
  H   H1782     1.0  0.47852  0.81158  0.25649  1.0000
  C   C2243     1.0  0.23007  0.83597  0.29102  1.0000
  S   S305      1.0  0.45477  0.77808  0.33873  1.0000
  H   H1783     1.0  0.25953  0.87564  0.44895  1.0000
  C   C2244     1.0  0.34174  0.68757  0.43012  1.0000
  H   H1784     1.0  0.36761  0.67553  0.31776  1.0000
  C   C2245     1.0  0.37993  0.73075  0.32656  1.0000
  C   C2246     1.0  0.28489  0.74996  0.44448  1.0000
  C   C2247     1.0  0.32842  0.67728  0.32408  1.0000
  C   C2248     1.0  0.19611  0.85627  0.30710  1.0000
  H   H1785     1.0  0.47867  0.83851  0.32100  1.0000
  C   C2249     1.0  0.28231  0.84406  0.24910  1.0000
  C   C2250     1.0  0.39332  0.94379  0.47414  1.0000
  C   C2251     1.0  0.34821  0.70004  0.30174  1.0000
  C   C2252     1.0  0.31940  0.78366  0.27486  1.0000
  H   H1786     1.0  0.41007  0.71774  0.29371  1.0000
  C   C2253     1.0  0.27908  0.72665  0.44870  1.0000
  C   C2254     1.0  0.42818  0.89976  0.31195  1.0000
  C   C2255     1.0  0.21071  0.95908  0.46363  1.0000
  H   H1787     1.0  0.04464  0.84538  0.41246  1.0000
  C   C2256     1.0  0.40398  0.71491  0.30532  1.0000
  H   H1788     1.0  0.27012  0.80957  0.25650  1.0000
  H   H1789     1.0  0.38636  0.93225  0.41004  1.0000
  C   C2257     1.0  0.25903  0.85731  0.45526  1.0000
  H   H1790     1.0  0.36500  0.70450  0.29474  1.0000
  H   H1791     1.0  0.22143  0.89686  0.47390  1.0000
  C   C2258     1.0  0.47910  0.85375  0.42350  1.0000
  P   P75       1.0  0.32266  0.73289  0.28136  1.0000
  C   C2259     1.0  0.21835  0.93437  0.46250  1.0000
  H   H1792     1.0  0.25559  0.71493  0.25187  1.0000
  C   C2260     1.0  0.38757  0.81853  0.46437  1.0000
  H   H1793     1.0  0.00207  0.90595  0.24696  1.0000
  H   H1794     1.0  0.20566  0.67988  0.30730  1.0000
  H   H1795     1.0  0.17247  0.83299  0.32172  1.0000
  H   H1796     1.0  0.38408  0.93534  0.43512  1.0000
  C   C2261     1.0  0.38021  0.97139  0.40217  1.0000
  C   C2262     1.0  0.46368  0.75508  0.44086  1.0000
  C   C2263     1.0  0.30736  0.96229  0.33936  1.0000
  C   C2264     1.0  0.19134  0.66275  0.36924  1.0000
  C   C2265     1.0  0.30375  0.70416  0.30728  1.0000
  H   H1797     1.0  0.28202  0.84669  0.25978  1.0000
  C   C2266     1.0  0.26767  0.71842  0.25790  1.0000
  C   C2267     1.0  0.28019  0.84283  0.45998  1.0000
  H   H1798     1.0  0.34898  0.92283  0.22600  1.0000
  C   C2268     1.0  0.31810  0.96640  0.39050  1.0000
  C   C2269     1.0  0.10735  0.79076  0.46535  1.0000
  C   C2270     1.0  0.39257  0.74190  0.26079  1.0000
  C   C2271     1.0  0.26697  0.66656  0.24149  1.0000
  C   C2272     1.0  0.20255  0.96365  0.22692  1.0000
  C   C2273     1.0  0.30541  0.68758  0.32031  1.0000
  H   H1799     1.0  0.28882  0.68284  0.32757  1.0000
  H   H1800     1.0  0.29548  0.87714  0.23890  1.0000
  C   C2274     1.0  0.47225  0.83321  0.40178  1.0000
  H   H1801     1.0  0.44339  0.86474  0.39831  1.0000
  C   C2275     1.0  0.27928  0.69923  0.26739  1.0000
  H   H1802     1.0  0.25710  0.93547  0.24203  1.0000
  C   C2276     1.0  0.27229  0.74203  0.25579  1.0000
  C   C2277     1.0  0.16455  0.94043  0.22655  1.0000
  H   H1803     1.0  0.41220  0.73477  0.23992  1.0000
  C   C2278     1.0  0.22477  0.89051  0.24677  1.0000
  H   H1804     1.0  0.21377  0.97292  0.45403  1.0000
  H   H1805     1.0  0.37875  0.69431  0.42557  1.0000
  H   H1806     1.0  0.18881  0.95982  0.24979  1.0000
  H   H1807     1.0  0.38974  0.90350  0.31156  1.0000
  H   H1808     1.0  0.45866  0.73823  0.32513  1.0000
  C   C2279     1.0  0.40854  0.89529  0.30732  1.0000
  H   H1809     1.0  0.39799  0.87651  0.29371  1.0000
  H   H1810     1.0  0.42731  0.67924  0.30919  1.0000
  H   H1811     1.0  0.46328  0.71637  0.44679  1.0000
  H   H1812     1.0  0.38145  0.96990  0.39113  1.0000
  H   H1813     1.0  0.44044  0.85719  0.28438  1.0000
  C   C2280     1.0  0.30008  0.72742  0.27284  1.0000
  C   C2281     1.0  0.41315  0.87994  0.29737  1.0000
  C   C2282     1.0  0.28840  0.74655  0.26322  1.0000
  H   H1814     1.0  0.28572  0.71213  0.30461  1.0000
  H   H1815     1.0  0.12790  0.75771  0.45750  1.0000
  H   H1816     1.0  0.33313  0.73236  0.44602  1.0000
  C   C2283     1.0  0.99738  0.97591  0.28455  1.0000
  C   C2284     1.0  0.32515  0.71061  0.29790  1.0000
  H   H1817     1.0  0.12682  0.83669  0.45587  1.0000
  H   H1818     1.0  0.15996  0.80632  0.46649  1.0000
  C   C2285     1.0  0.15852  0.97859  0.35756  1.0000
  C   C2286     1.0  0.49075  0.88288  0.35131  1.0000
  C   C2287     1.0  0.46096  0.86590  0.41538  1.0000
  C   C2288     1.0  0.33500  0.77321  0.22956  1.0000
  C   C2289     1.0  0.37058  0.72943  0.46917  1.0000
  C   C2290     1.0  0.05904  0.97354  0.41379  1.0000
  S   S306      1.0  0.00180  0.86601  0.46412  1.0000
  C   C2291     1.0  0.26795  0.71863  0.46293  1.0000
  C   C2292     1.0  0.26234  0.73413  0.47288  1.0000
  H   H1819     1.0  0.31955  0.97248  0.42428  1.0000
  C   C2293     1.0  0.49057  0.77198  0.37332  1.0000
  H   H1820     1.0  0.33426  0.94254  0.40820  1.0000
  C   C2294     1.0  0.33210  0.65706  0.45170  1.0000
  S   S307      1.0  0.38988  0.90501  0.46218  1.0000
  H   H1821     1.0  0.39116  0.66452  0.44701  1.0000
  H   H1822     1.0  0.22040  0.84171  0.23452  1.0000
  H   H1823     1.0  0.21976  0.81760  0.46899  1.0000
  H   H1824     1.0  0.00409  0.96036  0.38793  1.0000
  H   H1825     1.0  0.39129  0.83231  0.46909  1.0000
  H   H1826     1.0  0.05711  0.98061  0.23843  1.0000
  C   C2295     1.0  0.47199  0.73061  0.43934  1.0000
  H   H1827     1.0  0.99933  0.79966  0.44941  1.0000
  P   P76       1.0  0.99860  0.94312  0.41902  1.0000
  C   C2296     1.0  0.43030  0.91363  0.46857  1.0000
  H   H1828     1.0  0.05346  0.80722  0.47110  1.0000
  H   H1829     1.0  0.01078  0.80524  0.47124  1.0000
  H   H1830     1.0  0.26345  0.70051  0.46615  1.0000
  C   C2297     1.0  0.48849  0.83093  0.28474  1.0000
  H   H1831     1.0  0.49139  0.76967  0.29789  1.0000
  C   C2298     1.0  0.49120  0.86642  0.36443  1.0000
  S   S308      1.0  0.14152  0.92489  0.22646  1.0000
  P   P77       1.0  0.48859  0.85908  0.29007  1.0000
  C   C2299     1.0  0.04276  0.86787  0.47327  1.0000
  C   C2300     1.0  0.25808  0.80962  0.47130  1.0000
  C   C2301     1.0  0.33408  0.70712  0.46611  1.0000
  S   S309      1.0  0.22800  0.97615  0.22659  1.0000
  H   H1832     1.0  0.48172  0.86174  0.43191  1.0000
  C   C2302     1.0  0.21121  0.84588  0.22544  1.0000
  H   H1833     1.0  0.19418  0.65159  0.33037  1.0000
  H   H1834     1.0  0.21551  0.77220  0.47195  1.0000
  H   H1835     1.0  0.29663  0.80806  0.47109  1.0000
  H   H1836     1.0  0.01563  0.98012  0.44592  1.0000
  C   C2303     1.0  0.35593  0.65365  0.45453  1.0000
  C   C2304     1.0  0.49027  0.77592  0.38700  1.0000
  H   H1837     1.0  0.29672  0.65166  0.40293  1.0000
  H   H1838     1.0  0.38518  0.73751  0.47032  1.0000
  C   C2305     1.0  0.49039  0.82083  0.40990  1.0000
  C   C2306     1.0  0.49135  0.72452  0.42811  1.0000
  C   C2307     1.0  0.44375  0.92589  0.47379  1.0000
  H   H1839     1.0  0.46322  0.91872  0.47364  1.0000
  H   H1840     1.0  0.37380  0.95057  0.47440  1.0000
  H   H1841     1.0  0.99355  0.73774  0.31811  1.0000
  H   H1842     1.0  0.15931  0.65019  0.40234  1.0000
  Fe  Fe159     1.0  0.13709  0.89317  0.49811  1.0000
  S   S310      1.0  0.12818  0.86256  0.51624  1.0000
  S   S311      1.0  0.13253  0.92830  0.50594  1.0000
  S   S312      1.0  0.07340  0.84117  0.50898  1.0000
  Fe  Fe160     1.0  0.16464  0.84175  0.50658  1.0000
  S   S313      1.0  0.19315  0.82473  0.52061  1.0000
  C   C2308     1.0  0.13426  0.89614  0.56493  1.0000
  C   C2309     1.0  0.19580  0.74240  0.63378  1.0000
  C   C2310     1.0  0.04895  0.93789  0.59010  1.0000
  S   S314      1.0  0.10511  0.65208  0.71112  1.0000
  C   C2311     1.0  0.10639  0.78915  0.49064  1.0000
  H   H1843     1.0  0.46676  0.93936  0.61091  1.0000
  C   C2312     1.0  0.09876  0.89765  0.61232  1.0000
  P   P78       1.0  0.41645  0.65303  0.63385  1.0000
  H   H1844     1.0  0.07285  0.83675  0.54127  1.0000
  S   S315      1.0  0.28866  0.87241  0.50335  1.0000
  Fe  Fe161     1.0  0.18349  0.91989  0.60501  1.0000
  S   S316      1.0  0.18402  0.89199  0.62587  1.0000
  C   C2313     1.0  0.08537  0.96640  0.61130  1.0000
  C   C2314     1.0  0.06243  0.95027  0.51865  1.0000
  C   C2315     1.0  0.99450  0.89542  0.52750  1.0000
  S   S317      1.0  0.47588  0.95561  0.69506  1.0000
  S   S318      1.0  0.39308  0.86137  0.72051  1.0000
  H   H1845     1.0  0.16221  0.95344  0.54269  1.0000
  Fe  Fe162     1.0  0.28635  0.75535  0.69055  1.0000
  S   S319      1.0  0.25268  0.78281  0.68519  1.0000
  S   S320      1.0  0.30181  0.75141  0.71046  1.0000
  Fe  Fe163     1.0  0.29497  0.73415  0.66358  1.0000
  S   S321      1.0  0.26235  0.75994  0.65582  1.0000
  S   S322      1.0  0.32239  0.70864  0.65031  1.0000
  Fe  Fe164     1.0  0.27478  0.78891  0.66265  1.0000
  S   S323      1.0  0.27898  0.82565  0.64827  1.0000
  Fe  Fe165     1.0  0.24299  0.75142  0.67892  1.0000
  S   S324      1.0  0.20349  0.74677  0.68287  1.0000
  S   S325      1.0  0.30930  0.76379  0.66856  1.0000
  S   S326      1.0  0.27486  0.72323  0.68619  1.0000
  H   H1846     1.0  0.29676  0.79893  0.51592  1.0000
  C   C2316     1.0  0.03138  0.96168  0.54413  1.0000
  C   C2317     1.0  0.30757  0.79945  0.70182  1.0000
  C   C2318     1.0  0.31491  0.82031  0.70327  1.0000
  H   H1847     1.0  0.29916  0.80020  0.69283  1.0000
  H   H1848     1.0  0.31229  0.83686  0.69526  1.0000
  C   C2319     1.0  0.19371  0.72099  0.69476  1.0000
  C   C2320     1.0  0.16950  0.71791  0.69607  1.0000
  C   C2321     1.0  0.16116  0.69739  0.70532  1.0000
  C   C2322     1.0  0.38151  0.98188  0.59454  1.0000
  H   H1849     1.0  0.23137  0.71481  0.65892  1.0000
  C   C2323     1.0  0.20952  0.70358  0.70285  1.0000
  Fe  Fe166     1.0  0.15449  0.85819  0.47632  1.0000
  H   H1850     1.0  0.22808  0.70600  0.70206  1.0000
  H   H1851     1.0  0.11345  0.96102  0.54746  1.0000
  H   H1852     1.0  0.10641  0.98025  0.50148  1.0000
  C   C2324     1.0  0.29057  0.67736  0.65341  1.0000
  C   C2325     1.0  0.31364  0.68337  0.64703  1.0000
  H   H1853     1.0  0.32712  0.97211  0.48468  1.0000
  H   H1854     1.0  0.20269  0.90802  0.49766  1.0000
  C   C2326     1.0  0.20470  0.92236  0.48817  1.0000
  H   H1855     1.0  0.27747  0.68861  0.66041  1.0000
  H   H1856     1.0  0.48850  0.76594  0.71812  1.0000
  S   S327      1.0  0.04183  0.95595  0.65762  1.0000
  S   S328      1.0  0.19888  0.91135  0.55283  1.0000
  C   C2327     1.0  0.33913  0.96150  0.64207  1.0000
  S   S329      1.0  0.15852  0.91620  0.59128  1.0000
  C   C2328     1.0  0.21098  0.87344  0.63133  1.0000
  C   C2329     1.0  0.20873  0.85254  0.64217  1.0000
  C   C2330     1.0  0.22958  0.83755  0.64723  1.0000
  C   C2331     1.0  0.25274  0.84372  0.64171  1.0000
  C   C2332     1.0  0.25507  0.86461  0.63082  1.0000
  C   C2333     1.0  0.23424  0.87934  0.62552  1.0000
  H   H1857     1.0  0.19074  0.84797  0.64670  1.0000
  H   H1858     1.0  0.22765  0.82150  0.65563  1.0000
  H   H1859     1.0  0.27300  0.86943  0.62648  1.0000
  H   H1860     1.0  0.23610  0.89549  0.61718  1.0000
  C   C2334     1.0  0.21075  0.77159  0.48347  1.0000
  H   H1861     1.0  0.08889  0.82016  0.47683  1.0000
  C   C2335     1.0  0.16764  0.97046  0.63853  1.0000
  H   H1862     1.0  0.17404  0.66402  0.68589  1.0000
  H   H1863     1.0  0.45004  0.68812  0.62817  1.0000
  C   C2336     1.0  0.11509  0.89032  0.62190  1.0000
  H   H1864     1.0  0.19789  0.82438  0.69258  1.0000
  C   C2337     1.0  0.40076  0.98246  0.58256  1.0000
  H   H1865     1.0  0.36775  0.94033  0.65351  1.0000
  C   C2338     1.0  0.02993  0.84137  0.50102  1.0000
  P   P79       1.0  0.25837  0.77850  0.48113  1.0000
  C   C2339     1.0  0.21980  0.83797  0.51525  1.0000
  C   C2340     1.0  0.22849  0.84795  0.50079  1.0000
  C   C2341     1.0  0.24945  0.85887  0.49694  1.0000
  C   C2342     1.0  0.26203  0.85948  0.50753  1.0000
  C   C2343     1.0  0.25373  0.84889  0.52189  1.0000
  C   C2344     1.0  0.23283  0.83809  0.52571  1.0000
  H   H1866     1.0  0.21966  0.84653  0.49249  1.0000
  H   H1867     1.0  0.25609  0.86646  0.48579  1.0000
  H   H1868     1.0  0.26341  0.84923  0.53012  1.0000
  H   H1869     1.0  0.22649  0.83023  0.53684  1.0000
  C   C2345     1.0  0.05772  0.84611  0.54841  1.0000
  S   S330      1.0  0.17394  0.87286  0.48891  1.0000
  C   C2346     1.0  0.15074  0.92377  0.51910  1.0000
  C   C2347     1.0  0.14924  0.94258  0.52642  1.0000
  C   C2348     1.0  0.16355  0.93894  0.53701  1.0000
  C   C2349     1.0  0.16707  0.90151  0.52222  1.0000
  H   H1870     1.0  0.13700  0.95997  0.52391  1.0000
  S   S331      1.0  0.16587  0.95917  0.60621  1.0000
  C   C2350     1.0  0.14581  0.94245  0.66383  1.0000
  H   H1871     1.0  0.40154  0.75038  0.64359  1.0000
  C   C2351     1.0  0.42794  0.72043  0.63546  1.0000
  C   C2352     1.0  0.29809  0.75025  0.49381  1.0000
  H   H1872     1.0  0.03347  0.85497  0.53336  1.0000
  H   H1873     1.0  0.31188  0.95767  0.56674  1.0000
  H   H1874     1.0  0.15011  0.86313  0.55643  1.0000
  H   H1875     1.0  0.06493  0.94442  0.59077  1.0000
  H   H1876     1.0  0.21847  0.97668  0.69831  1.0000
  C   C2353     1.0  0.23718  0.85232  0.70140  1.0000
  H   H1877     1.0  0.44491  0.84429  0.65468  1.0000
  C   C2354     1.0  0.01583  0.90545  0.52167  1.0000
  H   H1878     1.0  0.29320  0.65079  0.68230  1.0000
  C   C2355     1.0  0.19670  0.94706  0.48933  1.0000
  C   C2356     1.0  0.29248  0.66824  0.60704  1.0000
  C   C2357     1.0  0.47644  0.93019  0.66395  1.0000
  C   C2358     1.0  0.01374  0.84668  0.49124  1.0000
  C   C2359     1.0  0.22075  0.93153  0.67886  1.0000
  C   C2360     1.0  0.41207  0.68401  0.63669  1.0000
  H   H1879     1.0  0.44504  0.82302  0.68010  1.0000
  C   C2361     1.0  0.38866  0.69566  0.64297  1.0000
  H   H1880     1.0  0.02493  0.83099  0.51176  1.0000
  C   C2362     1.0  0.24536  0.91904  0.71055  1.0000
  C   C2363     1.0  0.32206  0.77704  0.72360  1.0000
  C   C2364     1.0  0.12053  0.76541  0.49178  1.0000
  C   C2365     1.0  0.02528  0.92561  0.57636  1.0000
  H   H1881     1.0  0.15069  0.89596  0.56875  1.0000
  P   P80       1.0  0.25827  0.89341  0.68776  1.0000
  C   C2366     1.0  0.13683  0.85630  0.60996  1.0000
  H   H1882     1.0  0.18763  0.73012  0.65687  1.0000
  H   H1883     1.0  0.38475  0.68978  0.61553  1.0000
  H   H1884     1.0  0.44065  0.97386  0.67115  1.0000
  H   H1885     1.0  0.30778  0.89766  0.68988  1.0000
  C   C2367     1.0  0.40299  0.93229  0.68507  1.0000
  C   C2368     1.0  0.05821  0.96055  0.63973  1.0000
  H   H1886     1.0  0.02667  0.97998  0.63031  1.0000
  H   H1887     1.0  0.37326  0.68629  0.64600  1.0000
  C   C2369     1.0  0.40628  0.65267  0.61772  1.0000
  S   S332      1.0  0.14708  0.82554  0.49357  1.0000
  H   H1888     1.0  0.23678  0.86785  0.56407  1.0000
  H   H1889     1.0  0.20653  0.65338  0.66507  1.0000
  H   H1890     1.0  0.14701  0.86501  0.62795  1.0000
  C   C2370     1.0  0.15587  0.81449  0.63788  1.0000
  C   C2371     1.0  0.43175  0.69658  0.63296  1.0000
  H   H1891     1.0  0.00634  0.73921  0.71707  1.0000
  C   C2372     1.0  0.01048  0.92476  0.60196  1.0000
  C   C2373     1.0  0.17708  0.67984  0.71326  1.0000
  C   C2374     1.0  0.22291  0.86013  0.57250  1.0000
  H   H1892     1.0  0.18857  0.79086  0.59251  1.0000
  C   C2375     1.0  0.40452  0.73189  0.64168  1.0000
  C   C2376     1.0  0.02325  0.91198  0.50674  1.0000
  H   H1893     1.0  0.13714  0.93149  0.67355  1.0000
  H   H1894     1.0  0.28286  0.97109  0.49070  1.0000
  C   C2377     1.0  0.31118  0.94446  0.69953  1.0000
  H   H1895     1.0  0.20155  0.85433  0.60854  1.0000
  C   C2378     1.0  0.44479  0.84257  0.67702  1.0000
  C   C2379     1.0  0.29737  0.97482  0.53323  1.0000
  H   H1896     1.0  0.29906  0.73671  0.48751  1.0000
  C   C2380     1.0  0.26247  0.93692  0.66759  1.0000
  C   C2381     1.0  0.12821  0.75428  0.47975  1.0000
  H   H1897     1.0  0.04048  0.91831  0.50227  1.0000
  H   H1898     1.0  0.11690  0.94715  0.62076  1.0000
  H   H1899     1.0  0.40314  0.95922  0.65339  1.0000
  P   P81       1.0  0.16189  0.83031  0.60806  1.0000
  H   H1900     1.0  0.12553  0.75568  0.50199  1.0000
  P   P82       1.0  0.44602  0.92549  0.66412  1.0000
  H   H1901     1.0  0.28460  0.86376  0.71049  1.0000
  C   C2382     1.0  0.38666  0.96947  0.69473  1.0000
  C   C2383     1.0  0.13390  0.87745  0.55808  1.0000
  H   H1902     1.0  0.36997  0.93760  0.70116  1.0000
  C   C2384     1.0  0.20613  0.79567  0.63742  1.0000
  C   C2385     1.0  0.19936  0.96564  0.47701  1.0000
  H   H1903     1.0  0.37001  0.68775  0.59412  1.0000
  C   C2386     1.0  0.44903  0.92110  0.71012  1.0000
  C   C2387     1.0  0.27504  0.95871  0.49993  1.0000
  C   C2388     1.0  0.41268  0.96479  0.63043  1.0000
  H   H1904     1.0  0.22145  0.82031  0.71169  1.0000
  C   C2389     1.0  0.16941  0.78908  0.59589  1.0000
  H   H1905     1.0  0.31835  0.90707  0.71129  1.0000
  H   H1906     1.0  0.48665  0.89667  0.67911  1.0000
  C   C2390     1.0  0.47480  0.72565  0.70586  1.0000
  C   C2391     1.0  0.21536  0.91601  0.47476  1.0000
  C   C2392     1.0  0.04114  0.86011  0.57098  1.0000
  C   C2393     1.0  0.06065  0.84782  0.56194  1.0000
  C   C2394     1.0  0.31213  0.66900  0.59529  1.0000
  S   S333      1.0  0.04421  0.69641  0.72100  1.0000
  H   H1907     1.0  0.47496  0.92089  0.63542  1.0000
  C   C2395     1.0  0.05582  0.94922  0.54439  1.0000
  H   H1908     1.0  0.44317  0.73007  0.63254  1.0000
  H   H1909     1.0  0.00344  0.97720  0.53119  1.0000
  H   H1910     1.0  0.20089  0.85825  0.67132  1.0000
  C   C2396     1.0  0.31106  0.77776  0.71202  1.0000
  H   H1911     1.0  0.37290  0.97978  0.70198  1.0000
  H   H1912     1.0  0.19168  0.96090  0.67201  1.0000
  C   C2397     1.0  0.18942  0.79449  0.65052  1.0000
  H   H1913     1.0  0.43365  0.98119  0.71303  1.0000
  C   C2398     1.0  0.44490  0.87973  0.65873  1.0000
  H   H1914     1.0  0.99875  0.83162  0.54417  1.0000
  C   C2399     1.0  0.35064  0.95369  0.65400  1.0000
  C   C2400     1.0  0.42343  0.94211  0.67669  1.0000
  H   H1915     1.0  0.99641  0.84038  0.49445  1.0000
  H   H1916     1.0  0.35654  0.97116  0.51657  1.0000
  H   H1917     1.0  0.04344  0.86152  0.58146  1.0000
  H   H1918     1.0  0.07808  0.83969  0.56539  1.0000
  H   H1919     1.0  0.17639  0.98101  0.62874  1.0000
  H   H1920     1.0  0.37231  0.68677  0.67557  1.0000
  C   C2401     1.0  0.25304  0.95963  0.65966  1.0000
  C   C2402     1.0  0.09728  0.95442  0.62278  1.0000
  H   H1921     1.0  0.17469  0.91220  0.65800  1.0000
  H   H1922     1.0  0.21094  0.80681  0.61448  1.0000
  C   C2403     1.0  0.12768  0.80266  0.60821  1.0000
  C   C2404     1.0  0.31942  0.97512  0.71016  1.0000
  H   H1923     1.0  0.09299  0.94175  0.64578  1.0000
  C   C2405     1.0  0.33049  0.66873  0.63797  1.0000
  H   H1924     1.0  0.22557  0.78839  0.63731  1.0000
  S   S334      1.0  0.45095  0.96086  0.48593  1.0000
  C   C2406     1.0  0.05887  0.86257  0.48297  1.0000
  H   H1925     1.0  0.20582  0.85082  0.55763  1.0000
  C   C2407     1.0  0.16700  0.93160  0.65516  1.0000
  H   H1926     1.0  0.16871  0.88687  0.51663  1.0000
  H   H1927     1.0  0.11429  0.81492  0.61452  1.0000
  H   H1928     1.0  0.14249  0.69509  0.70623  1.0000
  C   C2408     1.0  0.32617  0.93229  0.72198  1.0000
  H   H1929     1.0  0.01556  0.91313  0.48599  1.0000
  H   H1930     1.0  0.11477  0.92995  0.57154  1.0000
  C   C2409     1.0  0.18003  0.91669  0.53998  1.0000
  C   C2410     1.0  0.18576  0.84192  0.59409  1.0000
  C   C2411     1.0  0.12060  0.86400  0.60020  1.0000
  H   H1931     1.0  0.34974  0.95759  0.67549  1.0000
  C   C2412     1.0  0.28898  0.88169  0.67865  1.0000
  C   C2413     1.0  0.30979  0.88683  0.68185  1.0000
  C   C2414     1.0  0.33353  0.87731  0.67500  1.0000
  C   C2415     1.0  0.33669  0.86283  0.66475  1.0000
  C   C2416     1.0  0.31608  0.85795  0.66134  1.0000
  C   C2417     1.0  0.29232  0.86737  0.66822  1.0000
  C   C2418     1.0  0.22664  0.72276  0.64841  1.0000
  S   S335      1.0  0.33455  0.84657  0.71624  1.0000
  C   C2419     1.0  0.13537  0.96727  0.65978  1.0000
  H   H1932     1.0  0.37354  0.70172  0.48842  1.0000
  H   H1933     1.0  0.34116  0.68191  0.48562  1.0000
  Fe  Fe167     1.0  0.18649  0.92937  0.57231  1.0000
  P   P83       1.0  0.39944  0.73448  0.71287  1.0000
  H   H1934     1.0  0.34946  0.88077  0.67787  1.0000
  H   H1935     1.0  0.35506  0.85525  0.65952  1.0000
  H   H1936     1.0  0.31840  0.84665  0.65344  1.0000
  H   H1937     1.0  0.27669  0.86321  0.66543  1.0000
  H   H1938     1.0  0.41910  0.77552  0.71591  1.0000
  C   C2420     1.0  0.19779  0.80639  0.62453  1.0000
  C   C2421     1.0  0.42507  0.96588  0.67736  1.0000
  C   C2422     1.0  0.21440  0.74503  0.62149  1.0000
  C   C2423     1.0  0.23933  0.73638  0.62258  1.0000
  C   C2424     1.0  0.24526  0.72528  0.63615  1.0000
  P   P84       1.0  0.26398  0.74139  0.60725  1.0000
  C   C2425     1.0  0.28194  0.75838  0.61270  1.0000
  C   C2426     1.0  0.28290  0.71282  0.60296  1.0000
  C   C2427     1.0  0.27791  0.69001  0.61092  1.0000
  S   S336      1.0  0.44909  0.80679  0.72284  1.0000
  C   C2428     1.0  0.31840  0.92614  0.71097  1.0000
  C   C2429     1.0  0.31721  0.69161  0.58733  1.0000
  C   C2430     1.0  0.30265  0.71345  0.59113  1.0000
  C   C2431     1.0  0.27208  0.78275  0.61433  1.0000
  C   C2432     1.0  0.28517  0.79565  0.61933  1.0000
  C   C2433     1.0  0.30783  0.78407  0.62325  1.0000
  C   C2434     1.0  0.31754  0.75963  0.62201  1.0000
  C   C2435     1.0  0.30465  0.74675  0.61680  1.0000
  C   C2436     1.0  0.25221  0.75753  0.59109  1.0000
  C   C2437     1.0  0.23796  0.74645  0.58554  1.0000
  C   C2438     1.0  0.22901  0.75826  0.57292  1.0000
  C   C2439     1.0  0.23429  0.78118  0.56570  1.0000
  C   C2440     1.0  0.24893  0.79207  0.57094  1.0000
  C   C2441     1.0  0.25813  0.78021  0.58346  1.0000
  H   H1939     1.0  0.26321  0.96583  0.69813  1.0000
  C   C2442     1.0  0.11294  0.87768  0.55296  1.0000
  H   H1940     1.0  0.07673  0.89708  0.54995  1.0000
  H   H1941     1.0  0.20919  0.75446  0.61133  1.0000
  H   H1942     1.0  0.26438  0.71916  0.63730  1.0000
  H   H1943     1.0  0.26284  0.68879  0.62008  1.0000
  S   S337      1.0  0.11815  0.88315  0.48312  1.0000
  C   C2443     1.0  0.27401  0.88031  0.71411  1.0000
  Fe  Fe168     1.0  0.00237  0.97627  0.66244  1.0000
  H   H1944     1.0  0.30671  0.73086  0.58481  1.0000
  H   H1945     1.0  0.25417  0.79179  0.61186  1.0000
  H   H1946     1.0  0.27749  0.81449  0.62051  1.0000
  H   H1947     1.0  0.31749  0.79392  0.62760  1.0000
  H   H1948     1.0  0.33470  0.75037  0.62553  1.0000
  H   H1949     1.0  0.31210  0.72755  0.61650  1.0000
  H   H1950     1.0  0.23394  0.72856  0.59093  1.0000
  H   H1951     1.0  0.21822  0.74954  0.56861  1.0000
  H   H1952     1.0  0.22743  0.79030  0.55589  1.0000
  H   H1953     1.0  0.25346  0.80962  0.56514  1.0000
  H   H1954     1.0  0.27022  0.78870  0.58686  1.0000
  C   C2444     1.0  0.37385  0.80183  0.68933  1.0000
  C   C2445     1.0  0.38587  0.81730  0.69306  1.0000
  C   C2446     1.0  0.40227  0.80759  0.70253  1.0000
  C   C2447     1.0  0.40665  0.78249  0.70835  1.0000
  C   C2448     1.0  0.39462  0.76677  0.70470  1.0000
  C   C2449     1.0  0.37795  0.77673  0.69524  1.0000
  C   C2450     1.0  0.01864  0.87061  0.56650  1.0000
  C   C2451     1.0  0.39133  0.71794  0.70156  1.0000
  C   C2452     1.0  0.22239  0.83541  0.70254  1.0000
  C   C2453     1.0  0.45015  0.73354  0.70429  1.0000
  H   H1955     1.0  0.46362  0.90841  0.70480  1.0000
  C   C2454     1.0  0.00756  0.92088  0.58888  1.0000
  H   H1956     1.0  0.40377  0.96989  0.57528  1.0000
  C   C2455     1.0  0.09989  0.80182  0.47749  1.0000
  C   C2456     1.0  0.36642  0.71766  0.70239  1.0000
  C   C2457     1.0  0.35964  0.70645  0.69306  1.0000
  C   C2458     1.0  0.37770  0.69522  0.68288  1.0000
  C   C2459     1.0  0.40259  0.69527  0.68201  1.0000
  C   C2460     1.0  0.40942  0.70662  0.69130  1.0000
  H   H1957     1.0  0.17435  0.76531  0.48512  1.0000
  C   C2461     1.0  0.31064  0.96273  0.54423  1.0000
  S   S338      1.0  0.10185  0.96938  0.59343  1.0000
  H   H1958     1.0  0.36052  0.80944  0.68234  1.0000
  H   H1959     1.0  0.38186  0.83690  0.68901  1.0000
  H   H1960     1.0  0.41127  0.81959  0.70563  1.0000
  H   H1961     1.0  0.41657  0.68680  0.67400  1.0000
  H   H1962     1.0  0.36759  0.76546  0.69259  1.0000
  H   H1963     1.0  0.44573  0.74769  0.69516  1.0000
  H   H1964     1.0  0.07474  0.94606  0.50879  1.0000
  H   H1965     1.0  0.39795  0.97269  0.48361  1.0000
  C   C2462     1.0  0.38500  0.94574  0.69425  1.0000
  H   H1966     1.0  0.02732  0.90725  0.52861  1.0000
  H   H1967     1.0  0.17664  0.74963  0.63297  1.0000
  H   H1968     1.0  0.34027  0.70693  0.69359  1.0000
  H   H1969     1.0  0.24767  0.75255  0.72126  1.0000
  H   H1970     1.0  0.07628  0.86856  0.47955  1.0000
  H   H1971     1.0  0.42872  0.70678  0.69033  1.0000
  C   C2463     1.0  0.11400  0.91555  0.56626  1.0000
  C   C2464     1.0  0.10102  0.97464  0.55309  1.0000
  C   C2465     1.0  0.10149  0.88449  0.60147  1.0000
  C   C2466     1.0  0.18743  0.76750  0.49093  1.0000
  C   C2467     1.0  0.45287  0.94341  0.62025  1.0000
  C   C2468     1.0  0.45743  0.93299  0.63413  1.0000
  C   C2469     1.0  0.43958  0.93840  0.64626  1.0000
  Fe  Fe169     1.0  0.19388  0.96829  0.58620  1.0000
  H   H1972     1.0  0.20909  0.73920  0.72168  1.0000
  H   H1973     1.0  0.28227  0.93064  0.66610  1.0000
  C   C2470     1.0  0.44499  0.89310  0.66908  1.0000
  C   C2471     1.0  0.44452  0.88093  0.68347  1.0000
  C   C2472     1.0  0.44460  0.85579  0.68738  1.0000
  H   H1974     1.0  0.32760  0.94953  0.54214  1.0000
  C   C2473     1.0  0.20281  0.85257  0.59756  1.0000
  H   H1975     1.0  0.17308  0.83464  0.57651  1.0000
  H   H1976     1.0  0.36665  0.72833  0.65021  1.0000
  Fe  Fe170     1.0  0.14295  0.95598  0.59125  1.0000
  H   H1977     1.0  0.19600  0.78656  0.66049  1.0000
  H   H1978     1.0  0.15136  0.80246  0.66096  1.0000
  P   P85       1.0  0.06805  0.94269  0.56070  1.0000
  C   C2474     1.0  0.22147  0.86139  0.58682  1.0000
  Fe  Fe171     1.0  0.11148  0.85095  0.50093  1.0000
  H   H1979     1.0  0.08432  0.91384  0.61315  1.0000
  C   C2475     1.0  0.20543  0.85043  0.56886  1.0000
  C   C2476     1.0  0.08370  0.95132  0.63694  1.0000
  H   H1980     1.0  0.48914  0.73376  0.69809  1.0000
  H   H1981     1.0  0.35384  0.81441  0.47961  1.0000
  H   H1982     1.0  0.10148  0.78058  0.60891  1.0000
  H   H1983     1.0  0.44427  0.89086  0.69168  1.0000
  H   H1984     1.0  0.44471  0.84653  0.69848  1.0000
  H   H1985     1.0  0.14721  0.97277  0.48579  1.0000
  C   C2477     1.0  0.45070  0.94583  0.70757  1.0000
  H   H1986     1.0  0.13632  0.82145  0.63824  1.0000
  H   H1987     1.0  0.40086  0.91423  0.68464  1.0000
  H   H1988     1.0  0.13188  0.75147  0.59505  1.0000
  H   H1989     1.0  0.11337  0.90084  0.63011  1.0000
  C   C2478     1.0  0.43233  0.94718  0.47925  1.0000
  C   C2479     1.0  0.05272  0.84907  0.49685  1.0000
  C   C2480     1.0  0.18681  0.84148  0.57959  1.0000
  H   H1990     1.0  0.08909  0.89049  0.59389  1.0000
  C   C2481     1.0  0.13413  0.86984  0.62069  1.0000
  H   H1991     1.0  0.22784  0.88737  0.66875  1.0000
  C   C2482     1.0  0.25929  0.89798  0.70537  1.0000
  H   H1992     1.0  0.45744  0.65711  0.60935  1.0000
  C   C2483     1.0  0.22779  0.77487  0.49082  1.0000
  C   C2484     1.0  0.20915  0.83766  0.69176  1.0000
  H   H1993     1.0  0.13937  0.73592  0.48055  1.0000
  C   C2485     1.0  0.31550  0.74615  0.50256  1.0000
  C   C2486     1.0  0.31506  0.76361  0.51055  1.0000
  C   C2487     1.0  0.03132  0.93300  0.60260  1.0000
  H   H1994     1.0  0.26539  0.97052  0.65204  1.0000
  C   C2488     1.0  0.22108  0.77407  0.50573  1.0000
  C   C2489     1.0  0.19772  0.76995  0.51315  1.0000
  C   C2490     1.0  0.18087  0.76673  0.50576  1.0000
  H   H1995     1.0  0.42711  0.89381  0.72105  1.0000
  C   C2491     1.0  0.04573  0.93488  0.57682  1.0000
  C   C2492     1.0  0.16427  0.80364  0.65076  1.0000
  C   C2493     1.0  0.27954  0.78915  0.50127  1.0000
  H   H1996     1.0  0.03090  0.96648  0.50863  1.0000
  S   S339      1.0  0.16909  0.96905  0.57117  1.0000
  S   S340      1.0  0.16782  0.65323  0.72430  1.0000
  H   H1997     1.0  0.11280  0.86327  0.54754  1.0000
  S   S341      1.0  0.21339  0.92914  0.58601  1.0000
  C   C2494     1.0  0.28465  0.65646  0.65090  1.0000
  H   H1998     1.0  0.18847  0.95160  0.49983  1.0000
  H   H1999     1.0  0.02282  0.92229  0.56637  1.0000
  H   H2000     1.0  0.32946  0.72948  0.50307  1.0000
  H   H2001     1.0  0.32872  0.76055  0.51719  1.0000
  H   H2002     1.0  0.26587  0.80602  0.50077  1.0000
  H   H2003     1.0  0.44502  0.88854  0.64759  1.0000
  H   H2004     1.0  0.23355  0.77708  0.51165  1.0000
  H   H2005     1.0  0.19241  0.77017  0.52457  1.0000
  H   H2006     1.0  0.16259  0.76420  0.51148  1.0000
  C   C2495     1.0  0.41714  0.95436  0.64430  1.0000
  H   H2007     1.0  0.34736  0.95432  0.63231  1.0000
  C   C2496     1.0  0.17809  0.94570  0.64262  1.0000
  C   C2497     1.0  0.09262  0.89700  0.55426  1.0000
  C   C2498     1.0  0.15209  0.80615  0.60327  1.0000
  C   C2499     1.0  0.39074  0.67314  0.61117  1.0000
  H   H2008     1.0  0.23435  0.86991  0.58957  1.0000
  H   H2009     1.0  0.19491  0.88105  0.53443  1.0000
  C   C2500     1.0  0.40658  0.97959  0.68621  1.0000
  H   H2010     1.0  0.12290  0.85441  0.59150  1.0000
  C   C2501     1.0  0.07151  0.94439  0.53143  1.0000
  C   C2502     1.0  0.18199  0.89819  0.53237  1.0000
  C   C2503     1.0  0.07774  0.97047  0.56074  1.0000
  C   C2504     1.0  0.21143  0.95427  0.67089  1.0000
  Fe  Fe172     1.0  0.30225  0.89218  0.48082  1.0000
  C   C2505     1.0  0.22761  0.96833  0.66135  1.0000
  H   H2011     1.0  0.15713  0.73145  0.68991  1.0000
  C   C2506     1.0  0.38489  0.71950  0.64541  1.0000
  H   H2012     1.0  0.19439  0.93722  0.63581  1.0000
  C   C2507     1.0  0.31788  0.98055  0.66727  1.0000
  H   H2013     1.0  0.30540  0.93945  0.69100  1.0000
  H   H2014     1.0  0.10044  0.79777  0.49997  1.0000
  C   C2508     1.0  0.36087  0.90704  0.50834  1.0000
  C   C2509     1.0  0.38214  0.91443  0.50907  1.0000
  C   C2510     1.0  0.38040  0.93735  0.51234  1.0000
  C   C2511     1.0  0.35745  0.95309  0.51458  1.0000
  C   C2512     1.0  0.33597  0.94581  0.51386  1.0000
  C   C2513     1.0  0.33781  0.92256  0.51083  1.0000
  C   C2514     1.0  0.31176  0.96909  0.69898  1.0000
  C   C2515     1.0  0.20193  0.73140  0.64724  1.0000
  H   H2015     1.0  0.21350  0.66960  0.71834  1.0000
  C   C2516     1.0  0.38232  0.67207  0.59900  1.0000
  C   C2517     1.0  0.44478  0.85456  0.66272  1.0000
  H   H2016     1.0  0.24747  0.84993  0.70979  1.0000
  C   C2518     1.0  0.24636  0.92260  0.67721  1.0000
  C   C2519     1.0  0.20120  0.68305  0.71210  1.0000
  H   H2017     1.0  0.23338  0.93270  0.70427  1.0000
  C   C2520     1.0  0.00918  0.90906  0.49755  1.0000
  P   P86       1.0  0.30697  0.96740  0.51544  1.0000
  C   C2521     1.0  0.12040  0.78309  0.60516  1.0000
  C   C2522     1.0  0.23888  0.87167  0.68942  1.0000
  C   C2523     1.0  0.28286  0.95382  0.51314  1.0000
  C   C2524     1.0  0.27222  0.93731  0.52476  1.0000
  C   C2525     1.0  0.25429  0.92579  0.52314  1.0000
  C   C2526     1.0  0.24689  0.93051  0.50992  1.0000
  C   C2527     1.0  0.25716  0.94704  0.49833  1.0000
  S   S342      1.0  0.31719  0.92642  0.47812  1.0000
  H   H2018     1.0  0.36230  0.88950  0.50548  1.0000
  H   H2019     1.0  0.40009  0.90271  0.50671  1.0000
  H   H2020     1.0  0.39702  0.94328  0.51255  1.0000
  C   C2528     1.0  0.32667  0.95674  0.72157  1.0000
  H   H2021     1.0  0.32169  0.91649  0.50998  1.0000
  C   C2529     1.0  0.17270  0.81655  0.62470  1.0000
  H   H2022     1.0  0.17539  0.75661  0.58699  1.0000
  H   H2023     1.0  0.09089  0.93621  0.53109  1.0000
  H   H2024     1.0  0.39549  0.97748  0.62905  1.0000
  C   C2530     1.0  0.03781  0.96180  0.51859  1.0000
  C   C2531     1.0  0.36402  0.70921  0.47946  1.0000
  C   C2532     1.0  0.43144  0.72347  0.71453  1.0000
  C   C2533     1.0  0.09334  0.91654  0.56046  1.0000
  H   H2025     1.0  0.35212  0.72674  0.71001  1.0000
  C   C2534     1.0  0.22601  0.87339  0.67845  1.0000
  H   H2026     1.0  0.27804  0.93294  0.53503  1.0000
  H   H2027     1.0  0.24641  0.91277  0.53206  1.0000
  H   H2028     1.0  0.23355  0.92091  0.50867  1.0000
  H   H2029     1.0  0.25167  0.95043  0.48799  1.0000
  C   C2535     1.0  0.40702  0.95633  0.47933  1.0000
  C   C2536     1.0  0.16207  0.76955  0.59285  1.0000
  C   C2537     1.0  0.13755  0.76662  0.59741  1.0000
  C   C2538     1.0  0.21091  0.85669  0.67976  1.0000
  C   C2539     1.0  0.27994  0.77182  0.49312  1.0000
  H   H2030     1.0  0.00382  0.87989  0.57371  1.0000
  C   C2540     1.0  0.02030  0.85978  0.47726  1.0000
  C   C2541     1.0  0.99726  0.66666  0.70479  1.0000
  C   C2542     1.0  0.14584  0.98132  0.64684  1.0000
  H   H2031     1.0  0.47265  0.96512  0.64905  1.0000
  H   H2032     1.0  0.24893  0.66643  0.69120  1.0000
  C   C2543     1.0  0.43049  0.95928  0.61840  1.0000
  H   H2033     1.0  0.25346  0.72780  0.48384  1.0000
  C   C2544     1.0  0.29707  0.78513  0.50989  1.0000
  C   C2545     1.0  0.02234  0.96768  0.53130  1.0000
  H   H2034     1.0  0.36979  0.96855  0.59674  1.0000
  H   H2035     1.0  0.20798  0.92092  0.68630  1.0000
  H   H2036     1.0  0.22805  0.98198  0.63081  1.0000
  C   C2546     1.0  0.30170  0.96714  0.55826  1.0000
  C   C2547     1.0  0.32596  0.81969  0.71481  1.0000
  H   H2037     1.0  0.03365  0.93597  0.61275  1.0000
  C   C2548     1.0  0.00449  0.65896  0.71815  1.0000
  C   C2549     1.0  0.34572  0.69809  0.47794  1.0000
  H   H2038     1.0  0.99656  0.92148  0.61161  1.0000
  H   H2039     1.0  0.34821  0.67343  0.63292  1.0000
  H   H2040     1.0  0.33233  0.69217  0.57813  1.0000
  C   C2550     1.0  0.01558  0.86910  0.55287  1.0000
  C   C2551     1.0  0.42846  0.91283  0.71935  1.0000
  H   H2041     1.0  0.42709  0.96755  0.60766  1.0000
  C   C2552     1.0  0.03528  0.85657  0.54391  1.0000
  C   C2553     1.0  0.43229  0.96212  0.71483  1.0000
  H   H2042     1.0  0.48345  0.96644  0.72135  1.0000
  C   C2554     1.0  0.48461  0.95127  0.65531  1.0000
  C   C2555     1.0  0.04633  0.97290  0.62825  1.0000
  C   C2556     1.0  0.34024  0.96338  0.66650  1.0000
  H   H2043     1.0  0.01938  0.96702  0.55378  1.0000
  H   H2044     1.0  0.21307  0.97397  0.61081  1.0000
  H   H2045     1.0  0.11903  0.97522  0.66671  1.0000
  C   C2557     1.0  0.05989  0.97572  0.61405  1.0000
  C   C2558     1.0  0.48101  0.70743  0.71754  1.0000
  H   H2046     1.0  0.00951  0.66076  0.69536  1.0000
  C   C2559     1.0  0.31714  0.97887  0.64266  1.0000
  C   C2560     1.0  0.41188  0.95374  0.72431  1.0000
  H   H2047     1.0  0.32331  0.65204  0.59232  1.0000
  C   C2561     1.0  0.24688  0.92272  0.72399  1.0000
  H   H2048     1.0  0.28858  0.65066  0.61318  1.0000
  C   C2562     1.0  0.38957  0.65071  0.59322  1.0000
  H   H2049     1.0  0.26688  0.65168  0.65595  1.0000
  H   H2050     1.0  0.38288  0.64974  0.58388  1.0000
  C   C2563     1.0  0.05745  0.69423  0.78525  1.0000
  Fe  Fe173     1.0  0.43409  0.86265  0.85426  1.0000
  S   S343      1.0  0.39414  0.87457  0.86334  1.0000
  S   S344      1.0  0.45868  0.89093  0.84735  1.0000
  Fe  Fe174     1.0  0.42742  0.80989  0.85577  1.0000
  S   S345      1.0  0.38716  0.81847  0.86516  1.0000
  S   S346      1.0  0.44621  0.77288  0.85022  1.0000
  Fe  Fe175     1.0  0.38735  0.85327  0.84851  1.0000
  S   S347      1.0  0.36041  0.86950  0.83353  1.0000
  Fe  Fe176     1.0  0.39900  0.83851  0.87882  1.0000
  S   S348      1.0  0.38608  0.83408  0.90290  1.0000
  S   S349      1.0  0.42709  0.84372  0.83831  1.0000
  S   S350      1.0  0.43957  0.82747  0.87049  1.0000
  H   H2051     1.0  0.41847  0.71442  0.90235  1.0000
  C   C2564     1.0  0.46701  0.65284  0.89467  1.0000
  H   H2052     1.0  0.36772  0.88825  0.90012  1.0000
  Fe  Fe177     1.0  0.36385  0.67065  0.88314  1.0000
  S   S351      1.0  0.35310  0.68511  0.90370  1.0000
  S   S352      1.0  0.39700  0.67864  0.86588  1.0000
  H   H2053     1.0  0.05004  0.72626  0.79470  1.0000
  Fe  Fe178     1.0  0.31421  0.68804  0.90108  1.0000
  S   S353      1.0  0.28132  0.71906  0.90427  1.0000
  H   H2054     1.0  0.14590  0.69818  0.93898  1.0000
  S   S354      1.0  0.32503  0.67650  0.87948  1.0000
  Fe  Fe179     1.0  0.19819  0.85518  0.96358  1.0000
  C   C2565     1.0  0.47318  0.94209  0.74136  1.0000
  C   C2566     1.0  0.39332  0.96807  0.80518  1.0000
  H   H2055     1.0  0.47980  0.72604  0.86146  1.0000
  C   C2567     1.0  0.05324  0.65679  0.86945  1.0000
  H   H2056     1.0  0.05115  0.70422  0.77540  1.0000
  H   H2057     1.0  0.41901  0.70631  0.80619  1.0000
  Fe  Fe180     1.0  0.22349  0.80199  0.96113  1.0000
  S   S355      1.0  0.26104  0.77872  0.95453  1.0000
  H   H2058     1.0  0.47723  0.72409  0.77519  1.0000
  S   S356      1.0  0.20741  0.83390  0.94561  1.0000
  H   H2059     1.0  0.09063  0.65817  0.96078  1.0000
  C   C2568     1.0  0.47934  0.96407  0.73299  1.0000
  H   H2060     1.0  0.23630  0.93911  0.72787  1.0000
  H   H2061     1.0  0.33785  0.79734  0.73399  1.0000
  Fe  Fe181     1.0  0.03576  0.72347  0.92003  1.0000
  S   S357      1.0  0.03973  0.71057  0.94319  1.0000
  Fe  Fe182     1.0  0.08737  0.69770  0.90865  1.0000
  S   S358      1.0  0.09616  0.68281  0.93069  1.0000
  S   S359      1.0  0.11488  0.69125  0.88827  1.0000
  Fe  Fe183     1.0  0.05821  0.67437  0.93700  1.0000
  C   C2569     1.0  0.06648  0.66894  0.78699  1.0000
  Fe  Fe184     1.0  0.07742  0.72012  0.93545  1.0000
  S   S360      1.0  0.09188  0.73250  0.95167  1.0000
  S   S361      1.0  0.05091  0.68598  0.91456  1.0000
  S   S362      1.0  0.07194  0.73621  0.91264  1.0000
  H   H2062     1.0  0.11824  0.74737  0.96826  1.0000
  C   C2570     1.0  0.24866  0.65407  0.93235  1.0000
  H   H2063     1.0  0.47751  0.86852  0.93139  1.0000
  H   H2064     1.0  0.33859  0.77526  0.94003  1.0000
  Fe  Fe185     1.0  0.38490  0.87880  0.73980  1.0000
  S   S363      1.0  0.35014  0.86427  0.74985  1.0000
  H   H2065     1.0  0.17543  0.69237  0.78636  1.0000
  C   C2571     1.0  0.48786  0.78027  0.75512  1.0000
  S   S364      1.0  0.38204  0.81084  0.74304  1.0000
  H   H2066     1.0  0.42848  0.74422  0.74516  1.0000
  H   H2067     1.0  0.26332  0.90804  0.74285  1.0000
  C   C2572     1.0  0.07456  0.65594  0.79967  1.0000
  Fe  Fe186     1.0  0.37541  0.83227  0.76066  1.0000
  S   S365      1.0  0.36969  0.81196  0.78371  1.0000
  C   C2573     1.0  0.45456  0.73226  0.75941  1.0000
  S   S366      1.0  0.40951  0.84833  0.75206  1.0000
  H   H2068     1.0  0.12178  0.80624  0.92177  1.0000
  C   C2574     1.0  0.99544  0.79201  0.85769  1.0000
  S   S367      1.0  0.20596  0.89428  0.95687  1.0000
  H   H2069     1.0  0.43719  0.89292  0.79794  1.0000
  C   C2575     1.0  0.44041  0.74366  0.78297  1.0000
  H   H2070     1.0  0.38932  0.78920  0.97405  1.0000
  H   H2071     1.0  0.22097  0.71120  0.77972  1.0000
  C   C2576     1.0  0.47004  0.78874  0.73373  1.0000
  C   C2577     1.0  0.38290  0.82612  0.96178  1.0000
  H   H2072     1.0  0.41321  0.93161  0.88771  1.0000
  P   P87       1.0  0.08306  0.65141  0.82746  1.0000
  C   C2578     1.0  0.42174  0.72588  0.90881  1.0000
  Fe  Fe187     1.0  0.07334  0.66405  0.72831  1.0000
  C   C2579     1.0  0.46465  0.89085  0.81001  1.0000
  C   C2580     1.0  0.17481  0.66717  0.75809  1.0000
  H   H2073     1.0  0.27435  0.70849  0.87330  1.0000
  C   C2581     1.0  0.33410  0.82072  0.96552  1.0000
  H   H2074     1.0  0.28724  0.87024  0.73408  1.0000
  H   H2075     1.0  0.45574  0.80819  0.75128  1.0000
  C   C2582     1.0  0.46134  0.66428  0.90653  1.0000
  H   H2076     1.0  0.47469  0.91621  0.94210  1.0000
  H   H2077     1.0  0.14072  0.78146  0.96368  1.0000
  C   C2583     1.0  0.43003  0.73153  0.93094  1.0000
  C   C2584     1.0  0.11374  0.65686  0.82553  1.0000
  H   H2078     1.0  0.38339  0.69560  0.82498  1.0000
  H   H2079     1.0  0.33936  0.72070  0.76901  1.0000
  H   H2080     1.0  0.35089  0.68747  0.75487  1.0000
  C   C2585     1.0  0.40743  0.92293  0.82288  1.0000
  H   H2081     1.0  0.35454  0.94144  0.92703  1.0000
  C   C2586     1.0  0.35141  0.80161  0.97154  1.0000
  C   C2587     1.0  0.39039  0.92534  0.81418  1.0000
  C   C2588     1.0  0.46967  0.86237  0.74068  1.0000
  C   C2589     1.0  0.37392  0.74865  0.73881  1.0000
  H   H2082     1.0  0.20629  0.67091  0.87017  1.0000
  C   C2590     1.0  0.20218  0.95770  0.97034  1.0000
  C   C2591     1.0  0.40115  0.68006  0.94135  1.0000
  C   C2592     1.0  0.13301  0.79603  0.94237  1.0000
  C   C2593     1.0  0.12112  0.79331  0.93191  1.0000
  C   C2594     1.0  0.10840  0.77392  0.93452  1.0000
  C   C2595     1.0  0.10751  0.75719  0.94764  1.0000
  C   C2596     1.0  0.11913  0.76012  0.95810  1.0000
  C   C2597     1.0  0.13191  0.77937  0.95549  1.0000
  C   C2598     1.0  0.42690  0.93274  0.87788  1.0000
  H   H2083     1.0  0.09918  0.77205  0.92645  1.0000
  H   H2084     1.0  0.33326  0.96128  0.73000  1.0000
  C   C2599     1.0  0.43789  0.70499  0.72618  1.0000
  C   C2600     1.0  0.27547  0.73402  0.91897  1.0000
  C   C2601     1.0  0.29400  0.73286  0.92641  1.0000
  C   C2602     1.0  0.28935  0.74665  0.93727  1.0000
  C   C2603     1.0  0.26601  0.76127  0.94102  1.0000
  C   C2604     1.0  0.24722  0.76171  0.93394  1.0000
  C   C2605     1.0  0.25201  0.74827  0.92287  1.0000
  H   H2085     1.0  0.31207  0.72180  0.92356  1.0000
  H   H2086     1.0  0.30392  0.74593  0.94275  1.0000
  H   H2087     1.0  0.22907  0.77262  0.93690  1.0000
  H   H2088     1.0  0.23750  0.74900  0.91726  1.0000
  C   C2606     1.0  0.37702  0.66562  0.96474  1.0000
  C   C2607     1.0  0.25967  0.70006  0.87258  1.0000
  H   H2089     1.0  0.00330  0.68857  0.85500  1.0000
  H   H2090     1.0  0.33941  0.69663  0.94118  1.0000
  S   S368      1.0  0.99979  0.74099  0.91251  1.0000
  C   C2608     1.0  0.00362  0.65572  0.94946  1.0000
  C   C2609     1.0  0.46258  0.69703  0.72764  1.0000
  C   C2610     1.0  0.41292  0.75454  0.76582  1.0000
  C   C2611     1.0  0.41038  0.83253  0.91159  1.0000
  C   C2612     1.0  0.41018  0.81935  0.92574  1.0000
  C   C2613     1.0  0.43125  0.81471  0.93190  1.0000
  C   C2614     1.0  0.45229  0.82367  0.92402  1.0000
  C   C2615     1.0  0.45182  0.83816  0.91028  1.0000
  C   C2616     1.0  0.43096  0.84259  0.90406  1.0000
  H   H2091     1.0  0.39425  0.81163  0.93165  1.0000
  H   H2092     1.0  0.43145  0.80374  0.94261  1.0000
  H   H2093     1.0  0.11390  0.67908  0.77323  1.0000
  H   H2094     1.0  0.43094  0.85359  0.89337  1.0000
  C   C2617     1.0  0.43102  0.74757  0.85520  1.0000
  C   C2618     1.0  0.40911  0.74673  0.86555  1.0000
  C   C2619     1.0  0.39843  0.72555  0.86930  1.0000
  C   C2620     1.0  0.40952  0.70539  0.86253  1.0000
  C   C2621     1.0  0.43128  0.70647  0.85224  1.0000
  C   C2622     1.0  0.44195  0.72729  0.84864  1.0000
  H   H2095     1.0  0.40038  0.76231  0.87064  1.0000
  H   H2096     1.0  0.38150  0.72498  0.87719  1.0000
  H   H2097     1.0  0.43980  0.69112  0.84692  1.0000
  H   H2098     1.0  0.45870  0.72776  0.84058  1.0000
  C   C2623     1.0  0.36368  0.85369  0.81949  1.0000
  C   C2624     1.0  0.38059  0.83155  0.81870  1.0000
  C   C2625     1.0  0.38249  0.81905  0.80757  1.0000
  C   C2626     1.0  0.36788  0.82874  0.79705  1.0000
  C   C2627     1.0  0.35101  0.85090  0.79781  1.0000
  C   C2628     1.0  0.34890  0.86332  0.80902  1.0000
  H   H2099     1.0  0.39191  0.82381  0.82679  1.0000
  H   H2100     1.0  0.39536  0.80186  0.80705  1.0000
  H   H2101     1.0  0.33937  0.85829  0.78986  1.0000
  H   H2102     1.0  0.33569  0.88034  0.80963  1.0000
  C   C2629     1.0  0.39989  0.66773  0.95574  1.0000
  C   C2630     1.0  0.45076  0.91479  0.85735  1.0000
  C   C2631     1.0  0.46254  0.93503  0.85263  1.0000
  C   C2632     1.0  0.45627  0.95425  0.86042  1.0000
  H   H2103     1.0  0.45348  0.88403  0.82018  1.0000
  C   C2633     1.0  0.42776  0.71584  0.92249  1.0000
  P   P88       1.0  0.45878  0.91102  0.76742  1.0000
  C   C2634     1.0  0.45648  0.66969  0.93844  1.0000
  H   H2104     1.0  0.37372  0.95830  0.76620  1.0000
  C   C2635     1.0  0.45904  0.73237  0.77291  1.0000
  C   C2636     1.0  0.42558  0.91490  0.77085  1.0000
  H   H2105     1.0  0.14708  0.68436  0.83950  1.0000
  C   C2637     1.0  0.00805  0.90377  0.91987  1.0000
  H   H2106     1.0  0.40269  0.76362  0.78686  1.0000
  C   C2638     1.0  0.20387  0.94029  0.96184  1.0000
  H   H2107     1.0  0.14214  0.66205  0.75282  1.0000
  H   H2108     1.0  0.34451  0.86182  0.91970  1.0000
  C   C2639     1.0  0.37912  0.69109  0.93630  1.0000
  C   C2640     1.0  0.25554  0.72646  0.74038  1.0000
  H   H2109     1.0  0.44297  0.89431  0.74562  1.0000
  C   C2641     1.0  0.22491  0.67186  0.78215  1.0000
  H   H2110     1.0  0.41656  0.75856  0.89244  1.0000
  H   H2111     1.0  0.23099  0.69072  0.84803  1.0000
  C   C2642     1.0  0.36642  0.74846  0.94986  1.0000
  S   S369      1.0  0.47932  0.81744  0.93107  1.0000
  C   C2643     1.0  0.29871  0.88409  0.96212  1.0000
  C   C2644     1.0  0.16167  0.66528  0.82179  1.0000
  C   C2645     1.0  0.46696  0.90192  0.91622  1.0000
  C   C2646     1.0  0.44672  0.91930  0.91190  1.0000
  C   C2647     1.0  0.42266  0.91723  0.91893  1.0000
  C   C2648     1.0  0.41848  0.89748  0.93020  1.0000
  C   C2649     1.0  0.43846  0.88010  0.93463  1.0000
  C   C2650     1.0  0.46259  0.88238  0.92775  1.0000
  H   H2112     1.0  0.26517  0.70957  0.84944  1.0000
  Fe  Fe188     1.0  0.17173  0.82099  0.95485  1.0000
  C   C2651     1.0  0.47156  0.88536  0.75828  1.0000
  C   C2652     1.0  0.38328  0.94792  0.80538  1.0000
  H   H2113     1.0  0.43069  0.94069  0.82957  1.0000
  C   C2653     1.0  0.48679  0.88309  0.88628  1.0000
  H   H2114     1.0  0.44945  0.93435  0.90291  1.0000
  H   H2115     1.0  0.40732  0.93087  0.91543  1.0000
  H   H2116     1.0  0.39980  0.89549  0.93539  1.0000
  H   H2117     1.0  0.43533  0.86446  0.94318  1.0000
  H   H2118     1.0  0.05906  0.65033  0.87976  1.0000
  C   C2654     1.0  0.11905  0.67035  0.83432  1.0000
  C   C2655     1.0  0.48801  0.89488  0.80971  1.0000
  C   C2656     1.0  0.21201  0.71149  0.74093  1.0000
  C   C2657     1.0  0.22585  0.69996  0.75174  1.0000
  C   C2658     1.0  0.24788  0.70739  0.75127  1.0000
  Fe  Fe189     1.0  0.36012  0.84435  0.73130  1.0000
  C   C2659     1.0  0.18459  0.67550  0.76754  1.0000
  C   C2660     1.0  0.99453  0.70931  0.75752  1.0000
  C   C2661     1.0  0.35732  0.70456  0.75037  1.0000
  C   C2662     1.0  0.26781  0.92007  0.96749  1.0000
  H   H2119     1.0  0.19543  0.70567  0.74065  1.0000
  C   C2663     1.0  0.47401  0.72506  0.80396  1.0000
  H   H2120     1.0  0.44438  0.83390  0.77825  1.0000
  C   C2664     1.0  0.22494  0.69344  0.78665  1.0000
  C   C2665     1.0  0.13354  0.67827  0.77165  1.0000
  S   S370      1.0  0.16078  0.84496  0.97146  1.0000
  C   C2666     1.0  0.37430  0.91983  0.77457  1.0000
  C   C2667     1.0  0.46963  0.79364  0.74719  1.0000
  H   H2121     1.0  0.43184  0.76815  0.93161  1.0000
  C   C2668     1.0  0.48940  0.97849  0.90328  1.0000
  C   C2669     1.0  0.02980  0.91480  0.89540  1.0000
  C   C2670     1.0  0.34267  0.76234  0.94967  1.0000
  H   H2122     1.0  0.15061  0.66994  0.86633  1.0000
  S   S371      1.0  0.09721  0.66346  0.74376  1.0000
  S   S372      1.0  0.42982  0.97643  0.88350  1.0000
  S   S373      1.0  0.18846  0.78741  0.96930  1.0000
  H   H2123     1.0  0.25940  0.69814  0.75912  1.0000
  C   C2671     1.0  0.47405  0.68294  0.93881  1.0000
  H   H2124     1.0  0.25957  0.66352  0.74081  1.0000
  H   H2125     1.0  0.39519  0.76361  0.76307  1.0000
  C   C2672     1.0  0.43160  0.74357  0.75580  1.0000
  Fe  Fe190     1.0  0.41441  0.82919  0.73369  1.0000
  C   C2673     1.0  0.47331  0.70345  0.81444  1.0000
  H   H2126     1.0  0.48198  0.87552  0.95820  1.0000
  H   H2127     1.0  0.00923  0.67254  0.94330  1.0000
  H   H2128     1.0  0.40185  0.82813  0.96027  1.0000
  C   C2674     1.0  0.45551  0.89588  0.79730  1.0000
  C   C2675     1.0  0.23413  0.66965  0.80961  1.0000
  H   H2129     1.0  0.38071  0.75067  0.94036  1.0000
  H   H2130     1.0  0.31527  0.81830  0.96705  1.0000
  C   C2676     1.0  0.06288  0.72199  0.84955  1.0000
  C   C2677     1.0  0.06747  0.71311  0.86350  1.0000
  C   C2678     1.0  0.04885  0.71793  0.87530  1.0000
  H   H2131     1.0  0.33761  0.67348  0.96626  1.0000
  C   C2679     1.0  0.02084  0.74072  0.85923  1.0000
  C   C2680     1.0  0.03974  0.73589  0.84740  1.0000
  H   H2132     1.0  0.99896  0.85690  0.86202  1.0000
  S   S374      1.0  0.14876  0.82055  0.93887  1.0000
  H   H2133     1.0  0.41859  0.95432  0.76295  1.0000
  C   C2681     1.0  0.01110  0.81794  0.86843  1.0000
  C   C2682     1.0  0.24606  0.68840  0.88517  1.0000
  H   H2134     1.0  0.46490  0.67427  0.97181  1.0000
  H   H2135     1.0  0.00826  0.78919  0.82717  1.0000
  C   C2683     1.0  0.45981  0.88190  0.74798  1.0000
  C   C2684     1.0  0.99724  0.77668  0.82645  1.0000
  H   H2136     1.0  0.01880  0.77886  0.87375  1.0000
  H   H2137     1.0  0.37699  0.69322  0.73058  1.0000
  C   C2685     1.0  0.42041  0.75093  0.90317  1.0000
  S   S375      1.0  0.48405  0.74462  0.94105  1.0000
  H   H2138     1.0  0.45778  0.84271  0.79871  1.0000
  C   C2686     1.0  0.38509  0.94052  0.76930  1.0000
  C   C2687     1.0  0.20272  0.91563  0.96819  1.0000
  H   H2139     1.0  0.07745  0.71858  0.84040  1.0000
  H   H2140     1.0  0.08552  0.70272  0.86524  1.0000
  H   H2141     1.0  0.05273  0.71164  0.88606  1.0000
  H   H2142     1.0  0.46539  0.96978  0.85672  1.0000
  H   H2143     1.0  0.03693  0.74324  0.83648  1.0000
  Fe  Fe191     1.0  0.46965  0.73595  0.96500  1.0000
  P   P89       1.0  0.21749  0.67348  0.76479  1.0000
  C   C2688     1.0  0.15647  0.65201  0.81294  1.0000
  C   C2689     1.0  0.00879  0.93182  0.89201  1.0000
  H   H2144     1.0  0.33232  0.91807  0.73069  1.0000
  C   C2690     1.0  0.41064  0.93812  0.76744  1.0000
  H   H2145     1.0  0.47870  0.68610  0.85961  1.0000
  C   C2691     1.0  0.14305  0.68688  0.78102  1.0000
  H   H2146     1.0  0.46051  0.85977  0.73274  1.0000
  H   H2147     1.0  0.46528  0.95389  0.80621  1.0000
  C   C2692     1.0  0.00953  0.79462  0.86708  1.0000
  H   H2148     1.0  0.45599  0.69918  0.82079  1.0000
  H   H2149     1.0  0.42422  0.89799  0.87406  1.0000
  H   H2150     1.0  0.39752  0.96638  0.72981  1.0000
  C   C2693     1.0  0.18336  0.68502  0.90754  1.0000
  C   C2694     1.0  0.17175  0.70413  0.89790  1.0000
  C   C2695     1.0  0.15124  0.72102  0.90305  1.0000
  C   C2696     1.0  0.14219  0.71897  0.91784  1.0000
  C   C2697     1.0  0.15339  0.69985  0.92753  1.0000
  C   C2698     1.0  0.17371  0.68271  0.92241  1.0000
  H   H2151     1.0  0.48583  0.83131  0.84529  1.0000
  H   H2152     1.0  0.47553  0.72099  0.90664  1.0000
  H   H2153     1.0  0.22974  0.70896  0.80369  1.0000
  H   H2154     1.0  0.01162  0.73562  0.88253  1.0000
  C   C2699     1.0  0.22967  0.69229  0.80029  1.0000
  H   H2155     1.0  0.00773  0.89270  0.93061  1.0000
  C   C2700     1.0  0.35629  0.68885  0.94530  1.0000
  H   H2156     1.0  0.18032  0.66792  0.82060  1.0000
  C   C2701     1.0  0.38023  0.73015  0.73062  1.0000
  H   H2157     1.0  0.14200  0.73540  0.89555  1.0000
  H   H2158     1.0  0.12616  0.73188  0.92181  1.0000
  C   C2702     1.0  0.41792  0.94287  0.82249  1.0000
  H   H2159     1.0  0.48792  0.78453  0.76534  1.0000
  H   H2160     1.0  0.38006  0.76585  0.73455  1.0000
  H   H2161     1.0  0.46111  0.71131  0.88676  1.0000
  H   H2162     1.0  0.38087  0.88061  0.78159  1.0000
  C   C2703     1.0  0.02945  0.67034  0.86877  1.0000
  C   C2704     1.0  0.33479  0.75708  0.89831  1.0000
  C   C2705     1.0  0.35163  0.76036  0.90569  1.0000
  C   C2706     1.0  0.35291  0.78403  0.90655  1.0000
  C   C2707     1.0  0.33722  0.80439  0.90015  1.0000
  C   C2708     1.0  0.32009  0.80123  0.89281  1.0000
  C   C2709     1.0  0.31914  0.77737  0.89188  1.0000
  P   P90       1.0  0.30044  0.82736  0.88386  1.0000
  C   C2710     1.0  0.26847  0.83011  0.89311  1.0000
  C   C2711     1.0  0.31070  0.85536  0.88302  1.0000
  C   C2712     1.0  0.30560  0.86569  0.89537  1.0000
  C   C2713     1.0  0.31248  0.88786  0.89468  1.0000
  C   C2714     1.0  0.32482  0.89975  0.88169  1.0000
  C   C2715     1.0  0.33006  0.88956  0.86936  1.0000
  C   C2716     1.0  0.32310  0.86744  0.87001  1.0000
  C   C2717     1.0  0.25824  0.80919  0.89973  1.0000
  C   C2718     1.0  0.23340  0.81166  0.90658  1.0000
  C   C2719     1.0  0.21868  0.83488  0.90715  1.0000
  C   C2720     1.0  0.22858  0.85579  0.90053  1.0000
  C   C2721     1.0  0.25322  0.85346  0.89335  1.0000
  C   C2722     1.0  0.30308  0.82341  0.86566  1.0000
  C   C2723     1.0  0.32558  0.81175  0.85830  1.0000
  C   C2724     1.0  0.32836  0.81043  0.84383  1.0000
  C   C2725     1.0  0.30876  0.82073  0.83658  1.0000
  C   C2726     1.0  0.28623  0.83216  0.84386  1.0000
  C   C2727     1.0  0.28338  0.83356  0.85834  1.0000
  H   H2163     1.0  0.33366  0.73881  0.89757  1.0000
  H   H2164     1.0  0.36373  0.74459  0.91065  1.0000
  H   H2165     1.0  0.36626  0.78671  0.91203  1.0000
  H   H2166     1.0  0.33888  0.82248  0.90083  1.0000
  H   H2167     1.0  0.30648  0.77433  0.88606  1.0000
  H   H2168     1.0  0.29607  0.85674  0.90549  1.0000
  H   H2169     1.0  0.30817  0.89582  0.90424  1.0000
  H   H2170     1.0  0.33032  0.91684  0.88116  1.0000
  H   H2171     1.0  0.32734  0.86002  0.86030  1.0000
  H   H2172     1.0  0.26916  0.79091  0.89968  1.0000
  H   H2173     1.0  0.22546  0.79556  0.91157  1.0000
  H   H2174     1.0  0.19956  0.83660  0.91275  1.0000
  H   H2175     1.0  0.21708  0.87380  0.90096  1.0000
  H   H2176     1.0  0.26024  0.86997  0.88801  1.0000
  H   H2177     1.0  0.34118  0.80418  0.86360  1.0000
  H   H2178     1.0  0.34592  0.80190  0.83812  1.0000
  H   H2179     1.0  0.31121  0.82010  0.82528  1.0000
  H   H2180     1.0  0.27108  0.84024  0.83821  1.0000
  H   H2181     1.0  0.26597  0.84290  0.86371  1.0000
  H   H2182     1.0  0.37212  0.92852  0.90348  1.0000
  C   C2728     1.0  0.01507  0.69882  0.74807  1.0000
  C   C2729     1.0  0.41455  0.89425  0.77613  1.0000
  P   P91       1.0  0.44604  0.74607  0.80004  1.0000
  C   C2730     1.0  0.41963  0.73882  0.81366  1.0000
  H   H2183     1.0  0.42567  0.87613  0.77856  1.0000
  H   H2184     1.0  0.30594  0.77075  0.96168  1.0000
  C   C2731     1.0  0.42455  0.76613  0.91124  1.0000
  H   H2185     1.0  0.37957  0.70099  0.92532  1.0000
  H   H2186     1.0  0.43285  0.72449  0.94193  1.0000
  C   C2732     1.0  0.07300  0.66803  0.81092  1.0000
  C   C2733     1.0  0.40790  0.75379  0.82383  1.0000
  C   C2734     1.0  0.38738  0.74795  0.83416  1.0000
  C   C2735     1.0  0.37863  0.72695  0.83460  1.0000
  C   C2736     1.0  0.39009  0.71201  0.82450  1.0000
  C   C2737     1.0  0.41035  0.71804  0.81397  1.0000
  C   C2738     1.0  0.45020  0.77670  0.79929  1.0000
  C   C2739     1.0  0.44519  0.79578  0.78763  1.0000
  C   C2740     1.0  0.44830  0.81940  0.78733  1.0000
  C   C2741     1.0  0.45597  0.82429  0.79878  1.0000
  C   C2742     1.0  0.46101  0.80538  0.81042  1.0000
  C   C2743     1.0  0.45846  0.78162  0.81058  1.0000
  C   C2744     1.0  0.14942  0.66862  0.76015  1.0000
  H   H2187     1.0  0.20322  0.97653  0.96529  1.0000
  H   H2188     1.0  0.35399  0.75986  0.75871  1.0000
  H   H2189     1.0  0.43871  0.79268  0.77877  1.0000
  H   H2190     1.0  0.46922  0.72408  0.75158  1.0000
  H   H2191     1.0  0.41459  0.76979  0.82406  1.0000
  H   H2192     1.0  0.37873  0.75933  0.84214  1.0000
  H   H2193     1.0  0.36330  0.72197  0.84297  1.0000
  C   C2745     1.0  0.37201  0.70795  0.73657  1.0000
  H   H2194     1.0  0.25060  0.68815  0.89538  1.0000
  H   H2195     1.0  0.03158  0.67879  0.83283  1.0000
  H   H2196     1.0  0.41764  0.97514  0.84540  1.0000
  H   H2197     1.0  0.46227  0.76718  0.81972  1.0000
  C   C2746     1.0  0.02943  0.90076  0.90931  1.0000
  C   C2747     1.0  0.22131  0.67875  0.87098  1.0000
  H   H2198     1.0  0.02143  0.81977  0.87600  1.0000
  C   C2748     1.0  0.24148  0.73801  0.72980  1.0000
  H   H2199     1.0  0.41643  0.65941  0.96006  1.0000
  H   H2200     1.0  0.10501  0.67749  0.84273  1.0000
  H   H2201     1.0  0.22376  0.68311  0.92165  1.0000
  S   S376      1.0  0.38365  0.91910  0.73770  1.0000
  H   H2202     1.0  0.47212  0.70226  0.93440  1.0000
  C   C2749     1.0  0.11953  0.66268  0.88315  1.0000
  C   C2750     1.0  0.03816  0.67313  0.84289  1.0000
  H   H2203     1.0  0.38222  0.90987  0.81455  1.0000
  H   H2204     1.0  0.01634  0.78468  0.91446  1.0000
  C   C2751     1.0  0.38906  0.89674  0.77795  1.0000
  H   H2205     1.0  0.04635  0.91228  0.88721  1.0000
  C   C2752     1.0  0.21975  0.73052  0.73006  1.0000
  P   P92       1.0  0.20915  0.66259  0.90078  1.0000
  H   H2206     1.0  0.26111  0.70862  0.96180  1.0000
  H   H2207     1.0  0.47653  0.93586  0.84293  1.0000
  H   H2208     1.0  0.42414  0.78539  0.90667  1.0000
  H   H2209     1.0  0.02748  0.68240  0.75209  1.0000
  C   C2753     1.0  0.35916  0.74527  0.75257  1.0000
  C   C2754     1.0  0.41124  0.96553  0.81344  1.0000
  C   C2755     1.0  0.41724  0.75452  0.77935  1.0000
  H   H2210     1.0  0.99876  0.82915  0.90733  1.0000
  C   C2756     1.0  0.06474  0.69359  0.80888  1.0000
  H   H2211     1.0  0.13071  0.69435  0.78995  1.0000
  H   H2212     1.0  0.46794  0.84530  0.90429  1.0000
  C   C2757     1.0  0.42904  0.75646  0.92518  1.0000
  C   C2758     1.0  0.00298  0.73076  0.72835  1.0000
  P   P93       1.0  0.43045  0.68346  0.92960  1.0000
  C   C2759     1.0  0.43827  0.95321  0.87305  1.0000
  H   H2213     1.0  0.17812  0.70576  0.88638  1.0000
  H   H2214     1.0  0.33960  0.89870  0.85922  1.0000
  C   C2760     1.0  0.47066  0.96475  0.81220  1.0000
  H   H2215     1.0  0.06432  0.70343  0.81718  1.0000
  C   C2761     1.0  0.01928  0.70947  0.73341  1.0000
  H   H2216     1.0  0.41216  0.90571  0.83017  1.0000
  C   C2762     1.0  0.25915  0.71738  0.97083  1.0000
  S   S377      1.0  0.47058  0.77310  0.96875  1.0000
  C   C2763     1.0  0.14296  0.67447  0.83246  1.0000
  C   C2764     1.0  0.40978  0.92916  0.72639  1.0000
  H   H2217     1.0  0.33229  0.91462  0.94701  1.0000
  H   H2218     1.0  0.47911  0.94795  0.91935  1.0000
  C   C2765     1.0  0.06237  0.66010  0.84343  1.0000
  C   C2766     1.0  0.02187  0.67841  0.85550  1.0000
  H   H2219     1.0  0.35460  0.92154  0.77560  1.0000
  C   C2767     1.0  0.35525  0.67590  0.95947  1.0000
  C   C2768     1.0  0.48779  0.91245  0.94915  1.0000
  H   H2220     1.0  0.25656  0.93770  0.96387  1.0000
  C   C2769     1.0  0.26202  0.90521  0.73246  1.0000
  C   C2770     1.0  0.43712  0.66810  0.91454  1.0000
  C   C2771     1.0  0.49127  0.84609  0.74362  1.0000
  C   C2772     1.0  0.16849  0.68562  0.77896  1.0000
  H   H2221     1.0  0.27264  0.73208  0.73993  1.0000
  H   H2222     1.0  0.46749  0.88947  0.89055  1.0000
  C   C2773     1.0  0.28453  0.90723  0.95749  1.0000
  P   P94       1.0  0.31905  0.86683  0.94901  1.0000
  C   C2774     1.0  0.34117  0.84265  0.95742  1.0000
  C   C2775     1.0  0.30087  0.85332  0.94127  1.0000
  C   C2776     1.0  0.31089  0.83102  0.93645  1.0000
  C   C2777     1.0  0.29628  0.81992  0.93127  1.0000
  C   C2778     1.0  0.27195  0.83140  0.93036  1.0000
  C   C2779     1.0  0.26231  0.85415  0.93441  1.0000
  C   C2780     1.0  0.27651  0.86490  0.94002  1.0000
  C   C2781     1.0  0.36570  0.84525  0.95568  1.0000
  H   H2223     1.0  0.20612  0.94597  0.95026  1.0000
  C   C2782     1.0  0.22701  0.67729  0.88447  1.0000
  C   C2783     1.0  0.32959  0.79793  0.72498  1.0000
  C   C2784     1.0  0.47560  0.72174  0.88439  1.0000
  C   C2785     1.0  0.33581  0.88660  0.93467  1.0000
  C   C2786     1.0  0.33938  0.90888  0.93674  1.0000
  C   C2787     1.0  0.35223  0.92405  0.92547  1.0000
  C   C2788     1.0  0.36218  0.91679  0.91222  1.0000
  C   C2789     1.0  0.35952  0.89424  0.91028  1.0000
  C   C2790     1.0  0.34635  0.87923  0.92144  1.0000
  H   H2224     1.0  0.08972  0.64979  0.89911  1.0000
  C   C2791     1.0  0.02556  0.73148  0.87323  1.0000
  C   C2792     1.0  0.43302  0.91369  0.87007  1.0000
  C   C2793     1.0  0.05678  0.70659  0.79615  1.0000
  H   H2225     1.0  0.28596  0.91520  0.94613  1.0000
  H   H2226     1.0  0.32982  0.82200  0.93689  1.0000
  H   H2227     1.0  0.30350  0.80216  0.92822  1.0000
  H   H2228     1.0  0.26046  0.82247  0.92672  1.0000
  H   H2229     1.0  0.24351  0.86332  0.93361  1.0000
  H   H2230     1.0  0.26800  0.88204  0.94355  1.0000
  H   H2231     1.0  0.37174  0.86186  0.94948  1.0000
  H   H2232     1.0  0.46655  0.80909  0.81946  1.0000
  C   C2794     1.0  0.35084  0.72324  0.75835  1.0000
  C   C2795     1.0  0.32409  0.75948  0.96190  1.0000
  C   C2796     1.0  0.37583  0.80421  0.96958  1.0000
  H   H2233     1.0  0.36945  0.94992  0.79901  1.0000
  H   H2234     1.0  0.06741  0.65935  0.77846  1.0000
  C   C2797     1.0  0.23513  0.69022  0.85839  1.0000
  H   H2235     1.0  0.47599  0.66994  0.90950  1.0000
  H   H2236     1.0  0.01694  0.67448  0.87857  1.0000
  H   H2237     1.0  0.18163  0.66756  0.93004  1.0000
  H   H2238     1.0  0.04564  0.88739  0.91189  1.0000
  C   C2798     1.0  0.46993  0.90469  0.78408  1.0000
  C   C2799     1.0  0.13864  0.65704  0.87165  1.0000
  H   H2239     1.0  0.00946  0.94229  0.88114  1.0000
  C   C2800     1.0  0.23281  0.66397  0.92254  1.0000
  C   C2801     1.0  0.09880  0.65784  0.96981  1.0000
  H   H2240     1.0  0.46353  0.95627  0.77461  1.0000
  P   P95       1.0  0.99240  0.76188  0.85641  1.0000
  H   H2241     1.0  0.47836  0.86521  0.87151  1.0000
  C   C2802     1.0  0.99844  0.83885  0.86055  1.0000
  C   C2803     1.0  0.25437  0.70078  0.85918  1.0000
  H   H2242     1.0  0.18672  0.65963  0.74907  1.0000
  H   H2243     1.0  0.32460  0.76032  0.73156  1.0000
  H   H2244     1.0  0.47241  0.92790  0.73595  1.0000
  C   C2804     1.0  0.27545  0.88393  0.72755  1.0000
  C   C2805     1.0  0.00038  0.79037  0.90938  1.0000
  Fe  Fe192     1.0  0.48767  0.78034  0.94532  1.0000
  C   C2806     1.0  0.46775  0.93887  0.75644  1.0000
  H   H2245     1.0  0.23775  0.66858  0.82022  1.0000
  C   C2807     1.0  0.46821  0.95810  0.76300  1.0000
  H   H2246     1.0  0.42396  0.69675  0.73420  1.0000
  H   H2247     1.0  0.46760  0.68276  0.73663  1.0000
  C   C2808     1.0  0.37168  0.73193  0.96236  1.0000
  H   H2248     1.0  0.00070  0.78826  0.80341  1.0000
  C   C2809     1.0  0.48359  0.72732  0.89552  1.0000
  H   H2249     1.0  0.40006  0.66227  0.91663  1.0000
  C   C2810     1.0  0.48824  0.95371  0.90838  1.0000
  H   H2250     1.0  0.99480  0.66121  0.74061  1.0000
  C   C2811     1.0  0.48624  0.72982  0.87010  1.0000
  C   C2812     1.0  0.48812  0.76980  0.72852  1.0000
  H   H2251     1.0  0.29807  0.71541  0.96810  1.0000
  C   C2813     1.0  0.06957  0.65147  0.85687  1.0000
  C   C2814     1.0  0.47451  0.98000  0.75459  1.0000
  C   C2815     1.0  0.41869  0.66028  0.91049  1.0000
  H   H2252     1.0  0.39023  0.72136  0.96258  1.0000
  C   C2816     1.0  0.99322  0.77604  0.81294  1.0000
  H   H2253     1.0  0.25163  0.66551  0.93893  1.0000
  C   C2817     1.0  0.28007  0.72148  0.97434  1.0000
  C   C2818     1.0  0.32891  0.74230  0.97433  1.0000
  S   S378      1.0  0.43344  0.72311  0.97441  1.0000
  C   C2819     1.0  0.35305  0.72898  0.97459  1.0000
  C   C2820     1.0  0.49170  0.88958  0.95831  1.0000
  S   S379      1.0  0.31164  0.65013  0.91351  1.0000
  S   S380      1.0  0.62956  0.09604  0.98236  1.0000
  C   C2821     1.0  0.51644  0.13307  0.99484  1.0000
  Fe  Fe193     1.0  0.67151  0.06702  0.01049  1.0000
  S   S381      1.0  0.63083  0.08055  0.01670  1.0000
  Fe  Fe194     1.0  0.63725  0.11301  0.99892  1.0000
  S   S382      1.0  0.61893  0.15227  0.00013  1.0000
  Fe  Fe195     1.0  0.62786  0.06189  0.99946  1.0000
  C   C2822     1.0  0.69464  0.05216  0.05493  1.0000
  H   H2254     1.0  0.64392  0.29518  0.99186  1.0000
  H   H2255     1.0  0.69580  0.05673  0.07618  1.0000
  S   S383      1.0  0.90774  0.05042  0.22153  1.0000
  Fe  Fe196     1.0  0.67875  0.04374  0.12385  1.0000
  H   H2256     1.0  0.90453  0.23798  0.17446  1.0000
  C   C2823     1.0  0.74330  0.06602  0.00014  1.0000
  H   H2257     1.0  0.98080  0.99650  0.16738  1.0000
  S   S384      1.0  0.68195  0.23429  0.99085  1.0000
  H   H2258     1.0  0.70415  0.03320  0.05648  1.0000
  C   C2824     1.0  0.61225  0.27380  0.12082  1.0000
  H   H2259     1.0  0.86031  0.23197  0.07805  1.0000
  Fe  Fe197     1.0  0.52913  0.22182  0.10016  1.0000
  S   S385      1.0  0.54884  0.25132  0.08662  1.0000
  S   S386      1.0  0.55094  0.18378  0.09856  1.0000
  C   C2825     1.0  0.51762  0.15435  0.98429  1.0000
  C   C2826     1.0  0.65882  0.00026  0.05415  1.0000
  S   S387      1.0  0.51192  0.24270  0.11820  1.0000
  H   H2260     1.0  0.88249  0.28066  0.16952  1.0000
  C   C2827     1.0  0.94114  0.99888  0.19946  1.0000
  C   C2828     1.0  0.73288  0.08640  0.17612  1.0000
  H   H2261     1.0  0.82736  0.19593  0.13323  1.0000
  C   C2829     1.0  0.58182  0.02378  0.06697  1.0000
  C   C2830     1.0  0.96390  0.28129  0.03155  1.0000
  H   H2262     1.0  0.97932  0.19971  0.01186  1.0000
  H   H2263     1.0  0.59097  0.22610  0.12113  1.0000
  C   C2831     1.0  0.96743  0.06816  0.21520  1.0000
  C   C2832     1.0  0.57901  0.27453  0.02321  1.0000
  Fe  Fe198     1.0  0.64963  0.09305  0.13044  1.0000
  S   S388      1.0  0.67677  0.11405  0.11503  1.0000
  S   S389      1.0  0.61546  0.11418  0.14251  1.0000
  Fe  Fe199     1.0  0.67700  0.08947  0.10012  1.0000
  S   S390      1.0  0.67198  0.10760  0.07745  1.0000
  Fe  Fe200     1.0  0.70558  0.08387  0.12401  1.0000
  S   S391      1.0  0.74123  0.08798  0.12891  1.0000
  S   S392      1.0  0.64770  0.07057  0.11492  1.0000
  S   S393      1.0  0.67834  0.06449  0.14080  1.0000
  Fe  Fe201     1.0  0.80598  0.15666  0.19359  1.0000
  S   S394      1.0  0.76845  0.17952  0.19106  1.0000
  S   S395      1.0  0.67833  0.10092  0.99415  1.0000
  Fe  Fe202     1.0  0.83177  0.18551  0.16639  1.0000
  S   S396      1.0  0.79652  0.21026  0.16158  1.0000
  S   S397      1.0  0.86940  0.18829  0.15237  1.0000
  Fe  Fe203     1.0  0.78710  0.21186  0.18513  1.0000
  S   S398      1.0  0.76860  0.25025  0.18898  1.0000
  Fe  Fe204     1.0  0.78026  0.17623  0.16774  1.0000
  S   S399      1.0  0.75048  0.17563  0.15581  1.0000
  S   S400      1.0  0.82373  0.18944  0.18954  1.0000
  S   S401      1.0  0.81650  0.15093  0.17067  1.0000
  C   C2833     1.0  0.64151  0.00133  0.14900  1.0000
  C   C2834     1.0  0.74933  0.28366  0.20654  1.0000
  C   C2835     1.0  0.76264  0.25983  0.20560  1.0000
  H   H2264     1.0  0.67186  0.15180  0.98908  1.0000
  H   H2265     1.0  0.74312  0.29558  0.19713  1.0000
  C   C2836     1.0  0.61015  0.29917  0.11618  1.0000
  S   S402      1.0  0.52513  0.27621  0.05227  1.0000
  S   S403      1.0  0.90504  0.29002  0.13714  1.0000
  H   H2266     1.0  0.89517  0.08972  0.19836  1.0000
  H   H2267     1.0  0.85641  0.11975  0.19490  1.0000
  C   C2837     1.0  0.74334  0.11228  0.13657  1.0000
  C   C2838     1.0  0.76498  0.11126  0.14143  1.0000
  C   C2839     1.0  0.76735  0.13033  0.14756  1.0000
  C   C2840     1.0  0.74820  0.15077  0.14864  1.0000
  C   C2841     1.0  0.72663  0.15185  0.14367  1.0000
  C   C2842     1.0  0.72410  0.13261  0.13777  1.0000
  H   H2268     1.0  0.77994  0.09557  0.14055  1.0000
  H   H2269     1.0  0.78406  0.12930  0.15132  1.0000
  H   H2270     1.0  0.71177  0.16760  0.14438  1.0000
  H   H2271     1.0  0.70737  0.13361  0.13405  1.0000
  C   C2843     1.0  0.50939  0.16035  0.08398  1.0000
  H   H2272     1.0  0.52103  0.11531  0.99173  1.0000
  C   C2844     1.0  0.68058  0.99895  0.17998  1.0000
  H   H2273     1.0  0.51349  0.19344  0.97995  1.0000
  C   C2845     1.0  0.56923  0.16613  0.11101  1.0000
  C   C2846     1.0  0.58959  0.14874  0.10619  1.0000
  C   C2847     1.0  0.60422  0.13343  0.11577  1.0000
  C   C2848     1.0  0.59812  0.13481  0.13036  1.0000
  C   C2849     1.0  0.57781  0.15232  0.13523  1.0000
  C   C2850     1.0  0.56354  0.16828  0.12551  1.0000
  H   H2274     1.0  0.59424  0.14721  0.09498  1.0000
  H   H2275     1.0  0.62008  0.12039  0.11184  1.0000
  H   H2276     1.0  0.57305  0.15335  0.14652  1.0000
  H   H2277     1.0  0.54778  0.18165  0.12928  1.0000
  C   C2851     1.0  0.56114  0.00205  0.97956  1.0000
  C   C2852     1.0  0.53592  0.01196  0.98092  1.0000
  C   C2853     1.0  0.75157  0.08350  0.98840  1.0000
  H   H2278     1.0  0.81656  0.22389  0.97932  1.0000
  C   C2854     1.0  0.52788  0.29532  0.15149  1.0000
  C   C2855     1.0  0.53153  0.29037  0.13759  1.0000
  C   C2856     1.0  0.77080  0.24453  0.21775  1.0000
  C   C2857     1.0  0.98293  0.08469  0.21332  1.0000
  H   H2279     1.0  0.51833  0.28393  0.16057  1.0000
  H   H2280     1.0  0.52522  0.27499  0.13605  1.0000
  S   S404      1.0  0.66829  0.04701  0.99410  1.0000
  C   C2858     1.0  0.72957  0.04342  0.18132  1.0000
  C   C2859     1.0  0.66108  0.98793  0.14059  1.0000
  H   H2281     1.0  0.56755  0.98493  0.98645  1.0000
  S   S405      1.0  0.69318  0.04696  0.02783  1.0000
  H   H2282     1.0  0.63920  0.02108  0.14724  1.0000
  C   C2860     1.0  0.50775  0.28935  0.02713  1.0000
  C   C2861     1.0  0.58510  0.29777  0.01942  1.0000
  H   H2283     1.0  0.98070  0.23782  0.08807  1.0000
  C   C2862     1.0  0.49487  0.20767  0.02657  1.0000
  C   C2863     1.0  0.89542  0.26169  0.14067  1.0000
  C   C2864     1.0  0.87024  0.26107  0.14555  1.0000
  C   C2865     1.0  0.86209  0.23865  0.14936  1.0000
  C   C2866     1.0  0.87902  0.21674  0.14792  1.0000
  C   C2867     1.0  0.90411  0.21745  0.14264  1.0000
  H   H2284     1.0  0.85703  0.27791  0.14664  1.0000
  H   H2285     1.0  0.84273  0.23828  0.15336  1.0000
  H   H2286     1.0  0.63133  0.23323  0.00082  1.0000
  H   H2287     1.0  0.73241  0.07166  0.00999  1.0000
  C   C2868     1.0  0.66293  0.16967  0.99132  1.0000
  Fe  Fe205     1.0  0.52891  0.27356  0.10345  1.0000
  H   H2288     1.0  0.74283  0.10742  0.03980  1.0000
  C   C2869     1.0  0.50444  0.17921  0.00288  1.0000
  C   C2870     1.0  0.80134  0.31095  0.22191  1.0000
  C   C2871     1.0  0.50347  0.15770  0.01343  1.0000
  H   H2289     1.0  0.68226  0.31037  0.98817  1.0000
  C   C2872     1.0  0.83577  0.10573  0.21559  1.0000
  H   H2290     1.0  0.91882  0.27910  0.06929  1.0000
  C   C2873     1.0  0.63742  0.17457  0.99668  1.0000
  C   C2874     1.0  0.62609  0.19782  0.99967  1.0000
  C   C2875     1.0  0.64019  0.21563  0.99796  1.0000
  C   C2876     1.0  0.66562  0.21090  0.99255  1.0000
  C   C2877     1.0  0.86072  0.24341  0.10445  1.0000
  H   H2291     1.0  0.68293  0.00988  0.09228  1.0000
  H   H2292     1.0  0.70721  0.00561  0.00696  1.0000
  H   H2293     1.0  0.97537  0.10243  0.21636  1.0000
  C   C2878     1.0  0.58746  0.02236  0.08039  1.0000
  H   H2294     1.0  0.57320  0.00419  0.05305  1.0000
  Fe  Fe206     1.0  0.76518  0.25755  0.97759  1.0000
  C   C2879     1.0  0.67474  0.08793  0.03986  1.0000
  C   C2880     1.0  0.67039  0.10124  0.05087  1.0000
  C   C2881     1.0  0.67800  0.09009  0.06398  1.0000
  H   H2295     1.0  0.66887  0.09679  0.02978  1.0000
  H   H2296     1.0  0.66103  0.12024  0.04924  1.0000
  Fe  Fe207     1.0  0.51546  0.26503  0.07651  1.0000
  H   H2297     1.0  0.63428  0.06630  0.08787  1.0000
  C   C2882     1.0  0.58783  0.27175  0.99801  1.0000
  C   C2883     1.0  0.62974  0.98757  0.10425  1.0000
  C   C2884     1.0  0.87433  0.22541  0.19024  1.0000
  C   C2885     1.0  0.85685  0.25111  0.05666  1.0000
  P   P96       1.0  0.59672  0.99800  0.10761  1.0000
  H   H2298     1.0  0.86490  0.18160  0.11623  1.0000
  S   S406      1.0  0.97100  0.29564  0.14021  1.0000
  H   H2299     1.0  0.52635  0.29147  0.02198  1.0000
  H   H2300     1.0  0.57374  0.10742  0.98363  1.0000
  C   C2886     1.0  0.69024  0.02027  0.17774  1.0000
  C   C2887     1.0  0.88590  0.24317  0.18029  1.0000
  H   H2301     1.0  0.76962  0.02047  0.11699  1.0000
  H   H2302     1.0  0.58910  0.26122  0.98994  1.0000
  C   C2888     1.0  0.51124  0.25277  0.99290  1.0000
  C   C2889     1.0  0.92581  0.26570  0.07800  1.0000
  H   H2303     1.0  0.87760  0.30442  0.06569  1.0000
  C   C2890     1.0  0.98342  0.28209  0.97481  1.0000
  C   C2891     1.0  0.50828  0.21903  0.04553  1.0000
  H   H2304     1.0  0.49739  0.16114  0.20763  1.0000
  C   C2892     1.0  0.68711  0.06345  0.04180  1.0000
  C   C2893     1.0  0.87891  0.08925  0.20678  1.0000
  C   C2894     1.0  0.71539  0.00231  0.98470  1.0000
  H   H2305     1.0  0.88617  0.21147  0.09778  1.0000
  H   H2306     1.0  0.63499  0.26737  0.15116  1.0000
  H   H2307     1.0  0.72277  0.98891  0.03282  1.0000
  H   H2308     1.0  0.52275  0.00249  0.98887  1.0000
  C   C2895     1.0  0.80303  0.30508  0.97853  1.0000
  C   C2896     1.0  0.83702  0.25601  0.19426  1.0000
  C   C2897     1.0  0.95479  0.00711  0.18594  1.0000
  H   H2309     1.0  0.56576  0.29165  0.19902  1.0000
  P   P97       1.0  0.83114  0.30491  0.17995  1.0000
  C   C2898     1.0  0.82724  0.23432  0.12442  1.0000
  P   P98       1.0  0.72309  0.01787  0.17588  1.0000
  C   C2899     1.0  0.64744  0.31038  0.98308  1.0000
  H   H2310     1.0  0.63817  0.17543  0.09542  1.0000
  H   H2311     1.0  0.81931  0.14838  0.97814  1.0000
  H   H2312     1.0  0.60957  0.99960  0.16612  1.0000
  C   C2900     1.0  0.59416  0.29501  0.99411  1.0000
  C   C2901     1.0  0.87987  0.07165  0.21958  1.0000
  C   C2902     1.0  0.56105  0.29720  0.20938  1.0000
  H   H2313     1.0  0.95241  0.22076  0.10979  1.0000
  C   C2903     1.0  0.72767  0.00968  0.14805  1.0000
  H   H2314     1.0  0.95317  0.02665  0.18171  1.0000
  H   H2315     1.0  0.92463  0.29342  0.03322  1.0000
  C   C2904     1.0  0.50945  0.13475  0.00940  1.0000
  C   C2905     1.0  0.61277  0.20165  0.10724  1.0000
  H   H2316     1.0  0.73109  0.10426  0.16906  1.0000
  H   H2317     1.0  0.60603  0.26384  0.11471  1.0000
  C   C2906     1.0  0.63932  0.01530  0.03335  1.0000
  H   H2318     1.0  0.78804  0.03517  0.13317  1.0000
  H   H2319     1.0  0.84098  0.21816  0.20504  1.0000
  C   C2907     1.0  0.91948  0.23973  0.10164  1.0000
  C   C2908     1.0  0.73939  0.23187  0.02654  1.0000
  C   C2909     1.0  0.72361  0.24834  0.01806  1.0000
  C   C2910     1.0  0.69886  0.24650  0.02051  1.0000
  C   C2911     1.0  0.68982  0.22823  0.03145  1.0000
  C   C2912     1.0  0.70540  0.21198  0.04029  1.0000
  C   C2913     1.0  0.73041  0.21360  0.03752  1.0000
  P   P99       1.0  0.69487  0.18632  0.05312  1.0000
  C   C2914     1.0  0.66188  0.19251  0.05948  1.0000
  C   C2915     1.0  0.70315  0.16187  0.04302  1.0000
  C   C2916     1.0  0.69101  0.16383  0.03170  1.0000
  C   C2917     1.0  0.69724  0.14543  0.02353  1.0000
  C   C2918     1.0  0.71585  0.12507  0.02648  1.0000
  C   C2919     1.0  0.72843  0.12324  0.03749  1.0000
  C   C2920     1.0  0.72238  0.14173  0.04561  1.0000
  C   C2921     1.0  0.64852  0.17366  0.06236  1.0000
  C   C2922     1.0  0.62314  0.17804  0.06782  1.0000
  C   C2923     1.0  0.61086  0.20126  0.07049  1.0000
  C   C2924     1.0  0.62408  0.22004  0.06789  1.0000
  C   C2925     1.0  0.64956  0.21565  0.06253  1.0000
  C   C2926     1.0  0.70789  0.17931  0.06921  1.0000
  C   C2927     1.0  0.71571  0.19755  0.07344  1.0000
  C   C2928     1.0  0.72554  0.19211  0.08598  1.0000
  C   C2929     1.0  0.72748  0.16851  0.09444  1.0000
  C   C2930     1.0  0.71916  0.15047  0.09051  1.0000
  C   C2931     1.0  0.70886  0.15599  0.07815  1.0000
  H   H2320     1.0  0.75874  0.23300  0.02429  1.0000
  H   H2321     1.0  0.73078  0.26212  0.00935  1.0000
  H   H2322     1.0  0.68690  0.25870  0.01354  1.0000
  H   H2323     1.0  0.67091  0.22640  0.03265  1.0000
  H   H2324     1.0  0.74313  0.20040  0.04362  1.0000
  H   H2325     1.0  0.67688  0.17974  0.02910  1.0000
  H   H2326     1.0  0.68758  0.14693  0.01494  1.0000
  H   H2327     1.0  0.72036  0.11062  0.02031  1.0000
  H   H2328     1.0  0.83228  0.27070  0.11419  1.0000
  H   H2329     1.0  0.73287  0.14020  0.05379  1.0000
  H   H2330     1.0  0.65773  0.15544  0.06059  1.0000
  H   H2331     1.0  0.61302  0.16333  0.07005  1.0000
  H   H2332     1.0  0.59117  0.20453  0.07480  1.0000
  H   H2333     1.0  0.61458  0.23790  0.07024  1.0000
  H   H2334     1.0  0.65966  0.23020  0.06086  1.0000
  H   H2335     1.0  0.71413  0.21601  0.06712  1.0000
  H   H2336     1.0  0.73172  0.20617  0.08914  1.0000
  H   H2337     1.0  0.73527  0.16416  0.10411  1.0000
  H   H2338     1.0  0.72065  0.13218  0.09711  1.0000
  H   H2339     1.0  0.70181  0.14196  0.07555  1.0000
  H   H2340     1.0  0.63777  0.06353  0.06251  1.0000
  C   C2932     1.0  0.91235  0.23984  0.13914  1.0000
  H   H2341     1.0  0.64342  0.01955  0.98332  1.0000
  C   C2933     1.0  0.85082  0.23212  0.98067  1.0000
  S   S407      1.0  0.70826  0.06091  0.10764  1.0000
  C   C2934     1.0  0.62483  0.98914  0.15972  1.0000
  C   C2935     1.0  0.76330  0.03383  0.98663  1.0000
  C   C2936     1.0  0.86218  0.24874  0.07030  1.0000
  Fe  Fe208     1.0  0.67034  0.08253  0.97835  1.0000
  C   C2937     1.0  0.63923  0.02334  0.18113  1.0000
  C   C2938     1.0  0.95130  0.25914  0.07725  1.0000
  C   C2939     1.0  0.96094  0.24255  0.08855  1.0000
  C   C2940     1.0  0.94502  0.23293  0.10077  1.0000
  H   H2342     1.0  0.96350  0.26750  0.06805  1.0000
  H   H2343     1.0  0.88686  0.23979  0.97878  1.0000
  H   H2344     1.0  0.70865  0.20834  0.19462  1.0000
  P   P100      1.0  0.67500  0.29738  0.19145  1.0000
  C   C2941     1.0  0.64662  0.30084  0.18519  1.0000
  C   C2942     1.0  0.62610  0.30134  0.13664  1.0000
  H   H2345     1.0  0.59782  0.20283  0.10185  1.0000
  S   S408      1.0  0.98311  0.31162  0.07495  1.0000
  H   H2346     1.0  0.99201  0.22409  0.04618  1.0000
  C   C2943     1.0  0.88114  0.30146  0.10487  1.0000
  C   C2944     1.0  0.70941  0.22662  0.18832  1.0000
  C   C2945     1.0  0.63819  0.28018  0.18430  1.0000
  C   C2946     1.0  0.51091  0.21837  0.03098  1.0000
  H   H2347     1.0  0.66018  0.00159  0.06484  1.0000
  H   H2348     1.0  0.58155  0.04073  0.05909  1.0000
  H   H2349     1.0  0.68146  0.24446  0.20356  1.0000
  C   C2947     1.0  0.69579  0.27090  0.18541  1.0000
  C   C2948     1.0  0.69430  0.24716  0.19341  1.0000
  H   H2350     1.0  0.72151  0.06955  0.16201  1.0000
  C   C2949     1.0  0.72591  0.22961  0.17517  1.0000
  C   C2950     1.0  0.72755  0.25307  0.16716  1.0000
  C   C2951     1.0  0.71264  0.27367  0.17226  1.0000
  H   H2351     1.0  0.65455  0.99687  0.01550  1.0000
  C   C2952     1.0  0.97752  0.23930  0.04315  1.0000
  H   H2352     1.0  0.57526  0.24368  0.01541  1.0000
  C   C2953     1.0  0.67091  0.99661  0.09569  1.0000
  H   H2353     1.0  0.69672  0.18403  0.98504  1.0000
  C   C2954     1.0  0.80273  0.28645  0.99080  1.0000
  C   C2955     1.0  0.68651  0.27946  0.21884  1.0000
  C   C2956     1.0  0.57721  0.00315  0.06355  1.0000
  Fe  Fe209     1.0  0.71929  0.23838  0.97679  1.0000
  H   H2354     1.0  0.50881  0.11823  0.01760  1.0000
  S   S409      1.0  0.80770  0.12647  0.21342  1.0000
  H   H2355     1.0  0.88401  0.20649  0.19221  1.0000
  H   H2356     1.0  0.74092  0.25520  0.15718  1.0000
  H   H2357     1.0  0.71455  0.29161  0.16594  1.0000
  C   C2957     1.0  0.65597  0.99763  0.02628  1.0000
  C   C2958     1.0  0.73461  0.98890  0.18679  1.0000
  C   C2959     1.0  0.64536  0.00462  0.09898  1.0000
  C   C2960     1.0  0.58797  0.02654  0.11411  1.0000
  C   C2961     1.0  0.56682  0.04378  0.11092  1.0000
  C   C2962     1.0  0.55966  0.06536  0.11651  1.0000
  C   C2963     1.0  0.57312  0.06955  0.12565  1.0000
  C   C2964     1.0  0.59362  0.05208  0.12928  1.0000
  C   C2965     1.0  0.60110  0.03071  0.12350  1.0000
  C   C2966     1.0  0.59249  0.30809  0.00491  1.0000
  H   H2358     1.0  0.54352  0.07878  0.11391  1.0000
  H   H2359     1.0  0.56766  0.08626  0.13002  1.0000
  H   H2360     1.0  0.60376  0.05517  0.13659  1.0000
  H   H2361     1.0  0.61699  0.01735  0.12646  1.0000
  S   S410      1.0  0.54927  0.29924  0.10819  1.0000
  H   H2362     1.0  0.74030  0.02249  0.20136  1.0000
  C   C2967     1.0  0.97694  0.04543  0.21109  1.0000
  H   H2363     1.0  0.74605  0.09827  0.19177  1.0000
  H   H2364     1.0  0.73782  0.21376  0.17131  1.0000
  C   C2968     1.0  0.93899  0.29171  0.98188  1.0000
  H   H2365     1.0  0.76840  0.03348  0.15868  1.0000
  C   C2969     1.0  0.68992  0.06542  0.06607  1.0000
  C   C2970     1.0  0.51191  0.17724  0.98829  1.0000
  P   P101      1.0  0.60369  0.30848  0.97542  1.0000
  C   C2971     1.0  0.76110  0.01931  0.12828  1.0000
  C   C2972     1.0  0.61841  0.17367  0.03463  1.0000
  C   C2973     1.0  0.60537  0.19752  0.03543  1.0000
  C   C2974     1.0  0.58039  0.20143  0.04188  1.0000
  C   C2975     1.0  0.56851  0.18150  0.04754  1.0000
  C   C2976     1.0  0.58168  0.15740  0.04721  1.0000
  C   C2977     1.0  0.60669  0.15370  0.04051  1.0000
  P   P102      1.0  0.56676  0.13129  0.05448  1.0000
  C   C2978     1.0  0.58662  0.10916  0.06558  1.0000
  C   C2979     1.0  0.53625  0.13974  0.06510  1.0000
  C   C2980     1.0  0.53268  0.15417  0.07550  1.0000
  H   H2366     1.0  0.96477  0.03271  0.21253  1.0000
  C   C2981     1.0  0.72729  0.06667  0.17223  1.0000
  C   C2982     1.0  0.51828  0.22723  0.99692  1.0000
  C   C2983     1.0  0.51582  0.13204  0.06313  1.0000
  C   C2984     1.0  0.58441  0.10994  0.08017  1.0000
  C   C2985     1.0  0.60133  0.09423  0.08821  1.0000
  C   C2986     1.0  0.62042  0.07745  0.08186  1.0000
  C   C2987     1.0  0.62244  0.07604  0.06751  1.0000
  C   C2988     1.0  0.60586  0.09200  0.05934  1.0000
  C   C2989     1.0  0.56493  0.11777  0.03988  1.0000
  C   C2990     1.0  0.56092  0.09364  0.04275  1.0000
  C   C2991     1.0  0.56142  0.08228  0.03144  1.0000
  C   C2992     1.0  0.56573  0.09499  0.01721  1.0000
  C   C2993     1.0  0.56917  0.11921  0.01430  1.0000
  C   C2994     1.0  0.56867  0.13062  0.02558  1.0000
  H   H2367     1.0  0.63756  0.17062  0.02927  1.0000
  H   H2368     1.0  0.61462  0.21292  0.03094  1.0000
  H   H2369     1.0  0.57020  0.21989  0.04253  1.0000
  H   H2370     1.0  0.54911  0.18506  0.05217  1.0000
  H   H2371     1.0  0.61715  0.13544  0.03962  1.0000
  H   H2372     1.0  0.54794  0.16083  0.07702  1.0000
  H   H2373     1.0  0.62538  0.02807  0.02799  1.0000
  C   C2995     1.0  0.74368  0.29201  0.21962  1.0000
  C   C2996     1.0  0.60353  0.30654  0.17437  1.0000
  H   H2374     1.0  0.51771  0.12125  0.05509  1.0000
  H   H2375     1.0  0.57029  0.12307  0.08538  1.0000
  H   H2376     1.0  0.60019  0.09567  0.09926  1.0000
  H   H2377     1.0  0.60878  0.09153  0.04800  1.0000
  H   H2378     1.0  0.55788  0.08354  0.05374  1.0000
  H   H2379     1.0  0.55905  0.06342  0.03361  1.0000
  H   H2380     1.0  0.56685  0.08583  0.00848  1.0000
  H   H2381     1.0  0.57295  0.12906  0.00327  1.0000
  H   H2382     1.0  0.57193  0.14921  0.02301  1.0000
  C   C2997     1.0  0.55676  0.23984  0.16841  1.0000
  C   C2998     1.0  0.54834  0.21819  0.16991  1.0000
  C   C2999     1.0  0.56239  0.20000  0.16232  1.0000
  C   C3000     1.0  0.58483  0.20346  0.15319  1.0000
  C   C3001     1.0  0.59314  0.22542  0.15137  1.0000
  C   C3002     1.0  0.57899  0.24354  0.15912  1.0000
  P   P103      1.0  0.62267  0.22936  0.14009  1.0000
  C   C3003     1.0  0.62152  0.26190  0.13337  1.0000
  C   C3004     1.0  0.64670  0.21688  0.15059  1.0000
  C   C3005     1.0  0.66962  0.22422  0.14584  1.0000
  C   C3006     1.0  0.68845  0.21420  0.15375  1.0000
  C   C3007     1.0  0.68462  0.19667  0.16637  1.0000
  C   C3008     1.0  0.66197  0.18913  0.17111  1.0000
  C   C3009     1.0  0.64306  0.19915  0.16326  1.0000
  H   H2383     1.0  0.68084  0.05994  0.17521  1.0000
  C   C3010     1.0  0.62836  0.27593  0.14127  1.0000
  H   H2384     1.0  0.63635  0.06245  0.17783  1.0000
  C   C3011     1.0  0.74899  0.04122  0.99924  1.0000
  H   H2385     1.0  0.63107  0.31209  0.14288  1.0000
  C   C3012     1.0  0.62817  0.21331  0.12536  1.0000
  C   C3013     1.0  0.60901  0.21492  0.11816  1.0000
  H   H2386     1.0  0.58379  0.30786  0.02777  1.0000
  H   H2387     1.0  0.59374  0.31206  0.20605  1.0000
  C   C3014     1.0  0.65467  0.18461  0.11064  1.0000
  C   C3015     1.0  0.65109  0.19804  0.12148  1.0000
  H   H2388     1.0  0.54599  0.25394  0.17435  1.0000
  H   H2389     1.0  0.53099  0.21550  0.17698  1.0000
  H   H2390     1.0  0.55597  0.18314  0.16352  1.0000
  H   H2391     1.0  0.59568  0.18893  0.14760  1.0000
  H   H2392     1.0  0.58490  0.26062  0.15799  1.0000
  H   H2393     1.0  0.67309  0.23737  0.13590  1.0000
  H   H2394     1.0  0.70633  0.21943  0.14995  1.0000
  H   H2395     1.0  0.69951  0.18846  0.17225  1.0000
  H   H2396     1.0  0.65928  0.17514  0.18073  1.0000
  H   H2397     1.0  0.62585  0.19268  0.16700  1.0000
  C   C3016     1.0  0.53660  0.31485  0.15365  1.0000
  H   H2398     1.0  0.55567  0.04047  0.10428  1.0000
  C   C3017     1.0  0.86636  0.29176  0.04975  1.0000
  H   H2399     1.0  0.92882  0.01201  0.20562  1.0000
  C   C3018     1.0  0.57675  0.30873  0.21333  1.0000
  H   H2400     1.0  0.71057  0.00298  0.15184  1.0000
  C   C3019     1.0  0.52817  0.26642  0.98379  1.0000
  C   C3020     1.0  0.86965  0.26795  0.07376  1.0000
  H   H2401     1.0  0.67217  0.17245  0.10791  1.0000
  H   H2402     1.0  0.66613  0.19594  0.12695  1.0000
  H   H2403     1.0  0.63790  0.02409  0.09770  1.0000
  C   C3021     1.0  0.98320  0.26192  0.03527  1.0000
  H   H2404     1.0  0.52493  0.22695  0.02324  1.0000
  P   P104      1.0  0.87671  0.26537  0.09131  1.0000
  H   H2405     1.0  0.61029  0.26708  0.17830  1.0000
  C   C3022     1.0  0.64110  0.01697  0.04713  1.0000
  C   C3023     1.0  0.87180  0.28940  0.06332  1.0000
  H   H2406     1.0  0.59177  0.03830  0.08269  1.0000
  C   C3024     1.0  0.54284  0.21576  0.99240  1.0000
  C   C3025     1.0  0.63551  0.18633  0.10356  1.0000
  H   H2407     1.0  0.70564  0.99415  0.20542  1.0000
  C   C3026     1.0  0.74124  0.08303  0.18895  1.0000
  C   C3027     1.0  0.81641  0.28636  0.00111  1.0000
  H   H2408     1.0  0.50701  0.17140  0.09203  1.0000
  H   H2409     1.0  0.96744  0.29889  0.02536  1.0000
  C   C3028     1.0  0.87318  0.26746  0.17746  1.0000
  C   C3029     1.0  0.84854  0.27406  0.18433  1.0000
  C   C3030     1.0  0.73789  0.04021  0.19425  1.0000
  H   H2410     1.0  0.81296  0.26691  0.17187  1.0000
  H   H2411     1.0  0.62899  0.03143  0.05226  1.0000
  C   C3031     1.0  0.55957  0.22945  0.98307  1.0000
  C   C3032     1.0  0.55203  0.25467  0.97850  1.0000
  H   H2412     1.0  0.89737  0.28902  0.10810  1.0000
  H   H2413     1.0  0.81627  0.27203  0.01064  1.0000
  H   H2414     1.0  0.78112  0.22614  0.21712  1.0000
  C   C3033     1.0  0.83002  0.30487  0.99927  1.0000
  C   C3034     1.0  0.67405  0.04315  0.17712  1.0000
  H   H2415     1.0  0.86785  0.30857  0.04186  1.0000
  C   C3035     1.0  0.73787  0.01822  0.15724  1.0000
  Fe  Fe210     1.0  0.97868  0.30666  0.09916  1.0000
  H   H2416     1.0  0.91727  0.20055  0.14148  1.0000
  C   C3036     1.0  0.81383  0.30580  0.16643  1.0000
  C   C3037     1.0  0.77153  0.02749  0.13740  1.0000
  C   C3038     1.0  0.76009  0.02680  0.15184  1.0000
  C   C3039     1.0  0.58022  0.26159  0.01250  1.0000
  C   C3040     1.0  0.58791  0.00041  0.09065  1.0000
  H   H2417     1.0  0.91493  0.25340  0.04703  1.0000
  H   H2418     1.0  0.93179  0.24011  0.13541  1.0000
  C   C3041     1.0  0.86744  0.29486  0.09669  1.0000
  H   H2419     1.0  0.73129  0.00396  0.12650  1.0000
  S   S411      1.0  0.97260  0.27044  0.11298  1.0000
  H   H2420     1.0  0.52248  0.28606  0.98045  1.0000
  H   H2421     1.0  0.54899  0.19621  0.99583  1.0000
  C   C3042     1.0  0.61696  0.31296  0.12410  1.0000
  H   H2422     1.0  0.84022  0.30476  0.00733  1.0000
  S   S412      1.0  0.49690  0.28982  0.09222  1.0000
  H   H2423     1.0  0.85095  0.23631  0.05407  1.0000
  S   S413      1.0  0.60084  0.03609  0.00425  1.0000
  H   H2424     1.0  0.84458  0.23453  0.99176  1.0000
  H   H2425     1.0  0.94796  0.07303  0.21976  1.0000
  H   H2426     1.0  0.74721  0.10264  0.98935  1.0000
  C   C3043     1.0  0.80750  0.28438  0.16502  1.0000
  H   H2427     1.0  0.61958  0.02453  0.18230  1.0000
  C   C3044     1.0  0.64867  0.04467  0.17868  1.0000
  C   C3045     1.0  0.86964  0.21810  0.10509  1.0000
  C   C3046     1.0  0.95300  0.23622  0.04734  1.0000
  C   C3047     1.0  0.78640  0.30735  0.14565  1.0000
  H   H2428     1.0  0.74241  0.02780  0.00839  1.0000
  C   C3048     1.0  0.64727  0.30752  0.21780  1.0000
  H   H2429     1.0  0.52020  0.22792  0.04886  1.0000
  C   C3049     1.0  0.90968  0.25564  0.09006  1.0000
  Fe  Fe211     1.0  0.94451  0.29338  0.12725  1.0000
  H   H2430     1.0  0.73303  0.31021  0.22027  1.0000
  C   C3050     1.0  0.50197  0.28155  0.04210  1.0000
  C   C3051     1.0  0.76518  0.07635  0.97550  1.0000
  H   H2431     1.0  0.81778  0.26037  0.19938  1.0000
  C   C3052     1.0  0.79384  0.28517  0.15470  1.0000
  H   H2432     1.0  0.58697  0.30886  0.17012  1.0000
  C   C3053     1.0  0.83632  0.20920  0.12503  1.0000
  C   C3054     1.0  0.96215  0.29623  0.98163  1.0000
  H   H2433     1.0  0.92245  0.30276  0.98690  1.0000
  C   C3055     1.0  0.93395  0.25567  0.04370  1.0000
  C   C3056     1.0  0.81693  0.30383  0.20956  1.0000
  S   S414      1.0  0.68211  0.00263  0.12694  1.0000
  C   C3057     1.0  0.85003  0.23194  0.19737  1.0000
  H   H2434     1.0  0.78883  0.26848  0.15394  1.0000
  C   C3058     1.0  0.61276  0.00745  0.99870  1.0000
  C   C3059     1.0  0.85697  0.10629  0.20480  1.0000
  C   C3060     1.0  0.61670  0.28306  0.17895  1.0000
  H   H2435     1.0  0.81109  0.24050  0.13210  1.0000
  H   H2436     1.0  0.52629  0.28530  0.21534  1.0000
  C   C3061     1.0  0.74373  0.05996  0.19800  1.0000
  H   H2437     1.0  0.60242  0.30822  0.10666  1.0000
  C   C3062     1.0  0.67702  0.18792  0.98906  1.0000
  H   H2438     1.0  0.57308  0.26670  0.03445  1.0000
  H   H2439     1.0  0.60642  0.20186  0.00377  1.0000
  C   C3063     1.0  0.93941  0.27821  0.03589  1.0000
  S   S415      1.0  0.78495  0.26345  0.99394  1.0000
  C   C3064     1.0  0.85889  0.27264  0.04639  1.0000
  H   H2440     1.0  0.85460  0.27459  0.03585  1.0000
  C   C3065     1.0  0.85754  0.20110  0.11540  1.0000
  C   C3066     1.0  0.63400  0.00446  0.98808  1.0000
  C   C3067     1.0  0.73936  0.01018  0.13363  1.0000
  H   H2441     1.0  0.85976  0.11979  0.97470  1.0000
  C   C3068     1.0  0.83941  0.25139  0.11423  1.0000
  S   S416      1.0  0.75654  0.21983  0.98182  1.0000
  C   C3069     1.0  0.60061  0.98757  0.00467  1.0000
  H   H2442     1.0  0.64812  0.26182  0.18768  1.0000
  H   H2443     1.0  0.94871  0.21884  0.05355  1.0000
  C   C3070     1.0  0.54360  0.30520  0.12575  1.0000
  H   H2444     1.0  0.90751  0.23287  0.11146  1.0000
  H   H2445     1.0  0.64133  0.26450  0.97799  1.0000
  H   H2446     1.0  0.83376  0.29045  0.21070  1.0000
  H   H2447     1.0  0.77578  0.30784  0.13769  1.0000
  H   H2448     1.0  0.71927  0.02065  0.98077  1.0000
  C   C3071     1.0  0.70837  0.99381  0.99951  1.0000
  C   C3072     1.0  0.53876  0.29364  0.21858  1.0000
  H   H2449     1.0  0.75050  0.05737  0.20788  1.0000
  H   H2450     1.0  0.58414  0.98968  0.01291  1.0000
  C   C3073     1.0  0.65517  0.00049  0.18185  1.0000
  H   H2451     1.0  0.76802  0.01454  0.98602  1.0000
  C   C3074     1.0  0.97025  0.99014  0.17789  1.0000
  H   H2452     1.0  0.49260  0.26215  0.99657  1.0000
  H   H2453     1.0  0.83525  0.30648  0.08673  1.0000
  H   H2454     1.0  0.49837  0.15843  0.02475  1.0000
  S   S417      1.0  0.49661  0.23414  0.08900  1.0000
  H   H2455     1.0  0.70365  0.26937  0.21365  1.0000
  C   C3075     1.0  0.81059  0.31366  0.19595  1.0000
  C   C3076     1.0  0.84624  0.31130  0.09291  1.0000
  H   H2456     1.0  0.57831  0.22048  0.97924  1.0000
  P   P105      1.0  0.49592  0.20929  0.00766  1.0000
  C   C3077     1.0  0.66854  0.29342  0.21086  1.0000
  H   H2457     1.0  0.64784  0.98395  0.18363  1.0000
  H   H2458     1.0  0.91915  0.26944  0.97573  1.0000
  C   C3078     1.0  0.93714  0.27283  0.97553  1.0000
  H   H2459     1.0  0.58414  0.06745  0.97598  1.0000
  H   H2460     1.0  0.49387  0.30187  0.00734  1.0000
  H   H2461     1.0  0.54861  0.98344  0.11355  1.0000
  C   C3079     1.0  0.49249  0.13828  0.07161  1.0000
  C   C3080     1.0  0.71706  0.98735  0.97496  1.0000
  C   C3081     1.0  0.77157  0.05129  0.97482  1.0000
  C   C3082     1.0  0.92247  0.04173  0.31690  1.0000
  C   C3083     1.0  0.54783  0.31308  0.23584  1.0000
  H   H2462     1.0  0.59097  0.29729  0.24948  1.0000
  C   C3084     1.0  0.88921  0.99362  0.36839  1.0000
  C   C3085     1.0  0.54817  0.30262  0.28032  1.0000
  S   S418      1.0  0.74612  0.28711  0.24824  1.0000
  C   C3086     1.0  0.75272  0.12610  0.38746  1.0000
  H   H2463     1.0  0.90350  0.30849  0.47228  1.0000
  H   H2464     1.0  0.68350  0.12025  0.47203  1.0000
  H   H2465     1.0  0.73801  0.29241  0.41466  1.0000
  Fe  Fe212     1.0  0.85721  0.13829  0.45614  1.0000
  H   H2466     1.0  0.58224  0.07009  0.47202  1.0000
  C   C3087     1.0  0.74200  0.14986  0.36477  1.0000
  Fe  Fe213     1.0  0.95389  0.02675  0.36275  1.0000
  S   S419      1.0  0.95195  0.06624  0.35197  1.0000
  Fe  Fe214     1.0  0.94743  0.03955  0.39279  1.0000
  S   S420      1.0  0.94465  0.07942  0.38343  1.0000
  S   S421      1.0  0.94429  0.03015  0.41700  1.0000
  Fe  Fe215     1.0  0.92015  0.07288  0.37034  1.0000
  S   S422      1.0  0.88252  0.09585  0.36789  1.0000
  S   S423      1.0  0.92143  0.03347  0.38060  1.0000
  H   H2467     1.0  0.91252  0.06043  0.31450  1.0000
  H   H2468     1.0  0.64524  0.20235  0.45942  1.0000
  H   H2469     1.0  0.77841  0.02676  0.43524  1.0000
  S   S424      1.0  0.65510  0.09135  0.45952  1.0000
  H   H2470     1.0  0.85922  0.05771  0.24027  1.0000
  C   C3088     1.0  0.64506  0.99015  0.46398  1.0000
  C   C3089     1.0  0.89541  0.29650  0.46850  1.0000
  Fe  Fe216     1.0  0.67218  0.28636  0.40904  1.0000
  C   C3090     1.0  0.55760  0.05349  0.46544  1.0000
  S   S425      1.0  0.68740  0.26250  0.42852  1.0000
  H   H2471     1.0  0.74412  0.05718  0.44536  1.0000
  C   C3091     1.0  0.94416  0.00922  0.33314  1.0000
  C   C3092     1.0  0.85806  0.02448  0.42145  1.0000
  S   S426      1.0  0.65149  0.27659  0.39479  1.0000
  H   H2472     1.0  0.84019  0.27202  0.43095  1.0000
  Fe  Fe217     1.0  0.80840  0.17048  0.44949  1.0000
  S   S427      1.0  0.79186  0.19070  0.42978  1.0000
  H   H2473     1.0  0.67422  0.25489  0.33368  1.0000
  S   S428      1.0  0.89680  0.11803  0.45056  1.0000
  S   S429      1.0  0.82305  0.12949  0.45263  1.0000
  S   S430      1.0  0.84408  0.17927  0.45106  1.0000
  C   C3093     1.0  0.85393  0.99873  0.44543  1.0000
  Fe  Fe218     1.0  0.78007  0.01271  0.39065  1.0000
  S   S431      1.0  0.78969  0.99491  0.41229  1.0000
  S   S432      1.0  0.78989  0.04704  0.37551  1.0000
  C   C3094     1.0  0.76847  0.99056  0.30921  1.0000
  C   C3095     1.0  0.87973  0.99203  0.44345  1.0000
  S   S433      1.0  0.69472  0.30848  0.39091  1.0000
  Fe  Fe219     1.0  0.74934  0.99399  0.41930  1.0000
  S   S434      1.0  0.73250  0.99871  0.44201  1.0000
  H   H2474     1.0  0.96560  0.07484  0.24641  1.0000
  H   H2475     1.0  0.52929  0.31096  0.28428  1.0000
  S   S435      1.0  0.73921  0.01459  0.39818  1.0000
  C   C3096     1.0  0.97025  0.11966  0.46516  1.0000
  P   P106      1.0  0.76060  0.12521  0.40447  1.0000
  S   S436      1.0  0.94377  0.02356  0.25243  1.0000
  C   C3097     1.0  0.85872  0.07119  0.23040  1.0000
  H   H2476     1.0  0.98678  0.01916  0.31105  1.0000
  H   H2477     1.0  0.73584  0.09951  0.43246  1.0000
  H   H2478     1.0  0.75583  0.16041  0.45242  1.0000
  C   C3098     1.0  0.97027  0.12086  0.39175  1.0000
  C   C3099     1.0  0.97203  0.10139  0.41654  1.0000
  C   C3100     1.0  0.66406  0.99736  0.42476  1.0000
  C   C3101     1.0  0.61798  0.29202  0.34039  1.0000
  C   C3102     1.0  0.76592  0.04847  0.46952  1.0000
  H   H2479     1.0  0.73828  0.16741  0.35759  1.0000
  Fe  Fe220     1.0  0.62366  0.31129  0.39796  1.0000
  H   H2480     1.0  0.79854  0.08252  0.39887  1.0000
  H   H2481     1.0  0.67326  0.14585  0.42785  1.0000
  H   H2482     1.0  0.79214  0.22119  0.45132  1.0000
  C   C3103     1.0  0.88367  0.01796  0.41974  1.0000
  C   C3104     1.0  0.71747  0.24442  0.42849  1.0000
  C   C3105     1.0  0.73398  0.24032  0.41572  1.0000
  C   C3106     1.0  0.75698  0.22426  0.41630  1.0000
  C   C3107     1.0  0.76368  0.21222  0.42960  1.0000
  C   C3108     1.0  0.74748  0.21686  0.44233  1.0000
  C   C3109     1.0  0.72452  0.23285  0.44175  1.0000
  H   H2483     1.0  0.72879  0.24905  0.40544  1.0000
  H   H2484     1.0  0.76941  0.22076  0.40639  1.0000
  H   H2485     1.0  0.75238  0.20777  0.45263  1.0000
  H   H2486     1.0  0.71198  0.23594  0.45164  1.0000
  C   C3110     1.0  0.67920  0.06815  0.45336  1.0000
  C   C3111     1.0  0.68315  0.06377  0.43932  1.0000
  C   C3112     1.0  0.70024  0.04295  0.43536  1.0000
  C   C3113     1.0  0.71265  0.02623  0.44560  1.0000
  C   C3114     1.0  0.70915  0.03119  0.45938  1.0000
  C   C3115     1.0  0.69352  0.05265  0.46298  1.0000
  H   H2487     1.0  0.67250  0.07599  0.43171  1.0000
  H   H2488     1.0  0.70313  0.03937  0.42462  1.0000
  H   H2489     1.0  0.82206  0.23708  0.43038  1.0000
  C   C3116     1.0  0.53716  0.28545  0.33318  1.0000
  C   C3117     1.0  0.90671  0.27183  0.46911  1.0000
  C   C3118     1.0  0.85724  0.08112  0.37071  1.0000
  C   C3119     1.0  0.83705  0.09383  0.36434  1.0000
  C   C3120     1.0  0.81669  0.08303  0.36600  1.0000
  C   C3121     1.0  0.81599  0.05944  0.37423  1.0000
  C   C3122     1.0  0.83588  0.04666  0.38090  1.0000
  C   C3123     1.0  0.85646  0.05755  0.37916  1.0000
  H   H2490     1.0  0.83732  0.11202  0.35787  1.0000
  H   H2491     1.0  0.80143  0.09302  0.36078  1.0000
  H   H2492     1.0  0.83552  0.02840  0.38726  1.0000
  H   H2493     1.0  0.87141  0.04782  0.38455  1.0000
  C   C3124     1.0  0.92810  0.05376  0.42665  1.0000
  C   C3125     1.0  0.91070  0.07360  0.42115  1.0000
  C   C3126     1.0  0.89944  0.09276  0.42888  1.0000
  C   C3127     1.0  0.90607  0.09243  0.44192  1.0000
  C   C3128     1.0  0.92308  0.07235  0.44745  1.0000
  C   C3129     1.0  0.93339  0.05285  0.44011  1.0000
  H   H2494     1.0  0.90609  0.07435  0.41089  1.0000
  H   H2495     1.0  0.88657  0.10832  0.42439  1.0000
  H   H2496     1.0  0.92854  0.07197  0.45740  1.0000
  H   H2497     1.0  0.94624  0.03744  0.44466  1.0000
  C   C3130     1.0  0.55921  0.29337  0.33170  1.0000
  H   H2498     1.0  0.63355  0.30619  0.30371  1.0000
  C   C3131     1.0  0.69804  0.15270  0.47045  1.0000
  C   C3132     1.0  0.80004  0.28879  0.40404  1.0000
  H   H2499     1.0  0.97092  0.15358  0.44973  1.0000
  C   C3133     1.0  0.97718  0.13382  0.45159  1.0000
  H   H2500     1.0  0.50093  0.29454  0.32788  1.0000
  H   H2501     1.0  0.74961  0.06274  0.47072  1.0000
  H   H2502     1.0  0.93829  0.11692  0.40856  1.0000
  C   C3134     1.0  0.65432  0.04805  0.41457  1.0000
  H   H2503     1.0  0.80484  0.98393  0.44241  1.0000
  H   H2504     1.0  0.98589  0.03725  0.33165  1.0000
  H   H2505     1.0  0.70892  0.12175  0.41392  1.0000
  C   C3135     1.0  0.66177  0.29331  0.24040  1.0000
  C   C3136     1.0  0.95829  0.11349  0.40588  1.0000
  C   C3137     1.0  0.83749  0.14396  0.39734  1.0000
  H   H2506     1.0  0.69220  0.05690  0.47338  1.0000
  C   C3138     1.0  0.80557  0.13537  0.38781  1.0000
  H   H2507     1.0  0.98266  0.00724  0.43364  1.0000
  H   H2508     1.0  0.91423  0.99561  0.42904  1.0000
  H   H2509     1.0  0.74338  0.00295  0.35243  1.0000
  C   C3139     1.0  0.82934  0.13989  0.38585  1.0000
  H   H2510     1.0  0.68113  0.98673  0.44996  1.0000
  H   H2511     1.0  0.92723  0.04527  0.33751  1.0000
  H   H2512     1.0  0.69086  0.99579  0.40498  1.0000
  H   H2513     1.0  0.98314  0.05099  0.42468  1.0000
  H   H2514     1.0  0.62176  0.98344  0.42399  1.0000
  C   C3140     1.0  0.58274  0.29514  0.26078  1.0000
  H   H2515     1.0  0.51458  0.29881  0.23854  1.0000
  H   H2516     1.0  0.90049  0.01269  0.46105  1.0000
  H   H2517     1.0  0.61976  0.04170  0.46303  1.0000
  H   H2518     1.0  0.57487  0.00440  0.44891  1.0000
  H   H2519     1.0  0.75095  0.98844  0.31621  1.0000
  C   C3141     1.0  0.78652  0.07719  0.40904  1.0000
  S   S437      1.0  0.91618  0.03857  0.29053  1.0000
  C   C3142     1.0  0.49946  0.30159  0.26712  1.0000
  C   C3143     1.0  0.65533  0.27937  0.31741  1.0000
  H   H2520     1.0  0.95961  0.12987  0.38342  1.0000
  H   H2521     1.0  0.77215  0.24125  0.24011  1.0000
  H   H2522     1.0  0.72081  0.09911  0.45816  1.0000
  C   C3144     1.0  0.77848  0.01066  0.30918  1.0000
  C   C3145     1.0  0.74086  0.12834  0.45441  1.0000
  H   H2523     1.0  0.81791  0.31024  0.38488  1.0000
  H   H2524     1.0  0.65956  0.29393  0.25168  1.0000
  C   C3146     1.0  0.61937  0.14755  0.46591  1.0000
  P   P107      1.0  0.62754  0.99903  0.44967  1.0000
  C   C3147     1.0  0.58075  0.05591  0.46680  1.0000
  H   H2525     1.0  0.53419  0.26818  0.34021  1.0000
  H   H2526     1.0  0.92338  0.26464  0.47352  1.0000
  C   C3148     1.0  0.83674  0.08813  0.22838  1.0000
  C   C3149     1.0  0.80981  0.03613  0.46146  1.0000
  H   H2527     1.0  0.85600  0.14722  0.39583  1.0000
  C   C3150     1.0  0.57685  0.01872  0.45381  1.0000
  S   S438      1.0  0.98077  0.02699  0.37646  1.0000
  C   C3151     1.0  0.79725  0.02370  0.34403  1.0000
  H   H2528     1.0  0.71851  0.18177  0.46667  1.0000
  H   H2529     1.0  0.90468  0.23702  0.46516  1.0000
  C   C3152     1.0  0.87412  0.26524  0.45922  1.0000
  C   C3153     1.0  0.80040  0.30634  0.39124  1.0000
  C   C3154     1.0  0.85197  0.03136  0.32899  1.0000
  C   C3155     1.0  0.85597  0.03732  0.31388  1.0000
  C   C3156     1.0  0.85912  0.06095  0.30668  1.0000
  C   C3157     1.0  0.85863  0.07867  0.31447  1.0000
  C   C3158     1.0  0.85460  0.07290  0.32951  1.0000
  C   C3159     1.0  0.85100  0.04943  0.33676  1.0000
  C   C3160     1.0  0.72037  0.11718  0.45995  1.0000
  C   C3161     1.0  0.97777  0.09414  0.46746  1.0000
  C   C3162     1.0  0.66195  0.25154  0.46531  1.0000
  H   H2530     1.0  0.65498  0.15689  0.45748  1.0000
  C   C3163     1.0  0.55566  0.03494  0.45895  1.0000
  H   H2531     1.0  0.78053  0.23959  0.47315  1.0000
  H   H2532     1.0  0.87084  0.04635  0.44968  1.0000
  H   H2533     1.0  0.84174  0.13959  0.37550  1.0000
  H   H2534     1.0  0.69743  0.26919  0.23953  1.0000
  H   H2535     1.0  0.70799  0.31286  0.30272  1.0000
  H   H2536     1.0  0.80354  0.04061  0.34281  1.0000
  H   H2537     1.0  0.75909  0.04123  0.34884  1.0000
  C   C3164     1.0  0.87347  0.30562  0.46326  1.0000
  H   H2538     1.0  0.76857  0.02379  0.31597  1.0000
  H   H2539     1.0  0.57309  0.28190  0.33760  1.0000
  H   H2540     1.0  0.85707  0.02374  0.30757  1.0000
  H   H2541     1.0  0.86289  0.06523  0.29500  1.0000
  H   H2542     1.0  0.86178  0.09674  0.30883  1.0000
  H   H2543     1.0  0.85448  0.08655  0.33556  1.0000
  H   H2544     1.0  0.84753  0.04542  0.34843  1.0000
  H   H2545     1.0  0.71861  0.01835  0.46731  1.0000
  H   H2546     1.0  0.94284  0.99017  0.30261  1.0000
  C   C3165     1.0  0.81500  0.29239  0.34344  1.0000
  C   C3166     1.0  0.99156  0.12249  0.44029  1.0000
  H   H2547     1.0  0.64105  0.24691  0.45079  1.0000
  C   C3167     1.0  0.78481  0.00531  0.47258  1.0000
  C   C3168     1.0  0.80781  0.01131  0.46571  1.0000
  C   C3169     1.0  0.53218  0.30141  0.23179  1.0000
  S   S439      1.0  0.95656  0.99866  0.34908  1.0000
  Fe  Fe221     1.0  0.67201  0.30158  0.37680  1.0000
  C   C3170     1.0  0.82671  0.26552  0.44009  1.0000
  C   C3171     1.0  0.65370  0.21248  0.46428  1.0000
  C   C3172     1.0  0.65100  0.23785  0.45945  1.0000
  C   C3173     1.0  0.79093  0.05294  0.41646  1.0000
  C   C3174     1.0  0.57135  0.30708  0.37966  1.0000
  H   H2548     1.0  0.82739  0.04127  0.45651  1.0000
  Fe  Fe222     1.0  0.97699  0.06701  0.36658  1.0000
  H   H2549     1.0  0.75739  0.11898  0.44824  1.0000
  C   C3175     1.0  0.60197  0.03971  0.46173  1.0000
  H   H2550     1.0  0.49540  0.14365  0.23368  1.0000
  C   C3176     1.0  0.52954  0.30859  0.37648  1.0000
  C   C3177     1.0  0.67700  0.00751  0.41142  1.0000
  H   H2551     1.0  0.67016  0.27493  0.30855  1.0000
  H   H2552     1.0  0.67806  0.18271  0.43544  1.0000
  H   H2553     1.0  0.68230  0.04063  0.39601  1.0000
  C   C3178     1.0  0.60016  0.02090  0.45526  1.0000
  Fe  Fe223     1.0  0.91204  0.02357  0.24246  1.0000
  H   H2554     1.0  0.80603  0.03981  0.41186  1.0000
  H   H2555     1.0  0.61650  0.27352  0.26707  1.0000
  H   H2556     1.0  0.97811  0.04770  0.28946  1.0000
  H   H2557     1.0  0.78673  0.13752  0.42354  1.0000
  C   C3179     1.0  0.87997  0.00046  0.35564  1.0000
  H   H2558     1.0  0.74584  0.08888  0.36672  1.0000
  C   C3180     1.0  0.75579  0.31379  0.39533  1.0000
  C   C3181     1.0  0.69104  0.15128  0.42514  1.0000
  H   H2559     1.0  0.79802  0.27448  0.47396  1.0000
  H   H2560     1.0  0.80360  0.29050  0.36621  1.0000
  C   C3182     1.0  0.74767  0.14878  0.37815  1.0000
  C   C3183     1.0  0.98435  0.04747  0.27810  1.0000
  H   H2561     1.0  0.80897  0.02948  0.30036  1.0000
  H   H2562     1.0  0.86593  0.25259  0.45610  1.0000
  H   H2563     1.0  0.60402  0.29697  0.34946  1.0000
  C   C3184     1.0  0.64120  0.03797  0.42788  1.0000
  C   C3185     1.0  0.79294  0.24727  0.46379  1.0000
  C   C3186     1.0  0.94800  0.99356  0.32334  1.0000
  C   C3187     1.0  0.64577  0.01248  0.43303  1.0000
  H   H2564     1.0  0.56239  0.30082  0.36069  1.0000
  C   C3188     1.0  0.68709  0.30958  0.33902  1.0000
  C   C3189     1.0  0.74131  0.12831  0.36064  1.0000
  C   C3190     1.0  0.78970  0.13490  0.40133  1.0000
  C   C3191     1.0  0.74605  0.10570  0.36993  1.0000
  H   H2565     1.0  0.90515  0.00026  0.36893  1.0000
  H   H2566     1.0  0.65078  0.06772  0.41070  1.0000
  C   C3192     1.0  0.55795  0.30572  0.26545  1.0000
  C   C3193     1.0  0.80301  0.26703  0.46422  1.0000
  C   C3194     1.0  0.64382  0.30723  0.23255  1.0000
  C   C3195     1.0  0.59738  0.28157  0.27078  1.0000
  H   H2567     1.0  0.54109  0.06583  0.46956  1.0000
  C   C3196     1.0  0.82191  0.14340  0.41083  1.0000
  C   C3197     1.0  0.75157  0.10457  0.38334  1.0000
  H   H2568     1.0  0.64117  0.26610  0.35401  1.0000
  C   C3198     1.0  0.56206  0.31259  0.39340  1.0000
  H   H2569     1.0  0.82825  0.14662  0.41973  1.0000
  H   H2570     1.0  0.82041  0.08761  0.23676  1.0000
  H   H2571     1.0  0.80565  0.30246  0.23245  1.0000
  C   C3199     1.0  0.81967  0.27657  0.45227  1.0000
  C   C3200     1.0  0.63897  0.27437  0.34303  1.0000
  C   C3201     1.0  0.76632  0.09423  0.41450  1.0000
  C   C3202     1.0  0.93102  0.03321  0.32994  1.0000
  S   S440      1.0  0.69127  0.28972  0.35557  1.0000
  C   C3203     1.0  0.97013  0.06328  0.26848  1.0000
  C   C3204     1.0  0.71871  0.16380  0.46486  1.0000
  C   C3205     1.0  0.81429  0.99673  0.29186  1.0000
  H   H2572     1.0  0.73719  0.12909  0.35022  1.0000
  P   P108      1.0  0.83337  0.30164  0.45280  1.0000
  H   H2573     1.0  0.83217  0.99893  0.28517  1.0000
  H   H2574     1.0  0.95319  0.07515  0.27256  1.0000
  C   C3206     1.0  0.55514  0.30501  0.37131  1.0000
  C   C3207     1.0  0.80128  0.01385  0.30043  1.0000
  H   H2575     1.0  0.75452  0.17109  0.41554  1.0000
  H   H2576     1.0  0.88901  0.01233  0.34655  1.0000
  C   C3208     1.0  0.75204  0.27687  0.23176  1.0000
  H   H2577     1.0  0.62755  0.05021  0.43403  1.0000
  H   H2578     1.0  0.74832  0.16560  0.38120  1.0000
  P   P109      1.0  0.84699  0.00112  0.33833  1.0000
  S   S441      1.0  0.51022  0.30722  0.36497  1.0000
  H   H2579     1.0  0.84978  0.03718  0.41290  1.0000
  C   C3209     1.0  0.93943  0.00214  0.31023  1.0000
  H   H2580     1.0  0.51298  0.28468  0.26843  1.0000
  C   C3210     1.0  0.86263  0.29003  0.45858  1.0000
  C   C3211     1.0  0.84324  0.01463  0.43414  1.0000
  P   P110      1.0  0.83446  0.98740  0.46217  1.0000
  H   H2581     1.0  0.89523  0.02562  0.40998  1.0000
  C   C3212     1.0  0.67211  0.03282  0.40632  1.0000
  C   C3213     1.0  0.71132  0.13763  0.41728  1.0000
  C   C3214     1.0  0.74000  0.15167  0.45683  1.0000
  C   C3215     1.0  0.78889  0.05464  0.46324  1.0000
  C   C3216     1.0  0.63444  0.29719  0.31473  1.0000
  C   C3217     1.0  0.58737  0.27824  0.28551  1.0000
  C   C3218     1.0  0.56277  0.28868  0.29026  1.0000
  C   C3219     1.0  0.64067  0.15453  0.46698  1.0000
  H   H2582     1.0  0.55502  0.28596  0.30168  1.0000
  C   C3220     1.0  0.88985  0.02677  0.46695  1.0000
  C   C3221     1.0  0.97708  0.06302  0.25376  1.0000
  C   C3222     1.0  0.69908  0.12929  0.46791  1.0000
  C   C3223     1.0  0.81411  0.00155  0.34276  1.0000
  Fe  Fe224     1.0  0.91808  0.01659  0.27369  1.0000
  H   H2583     1.0  0.66045  0.27108  0.46115  1.0000
  C   C3224     1.0  0.85934  0.06417  0.46801  1.0000
  H   H2584     1.0  0.77721  0.26981  0.42225  1.0000
  C   C3225     1.0  0.89443  0.00142  0.43062  1.0000
  C   C3226     1.0  0.85930  0.99205  0.35470  1.0000
  C   C3227     1.0  0.68308  0.27939  0.23356  1.0000
  C   C3228     1.0  0.81658  0.24576  0.43971  1.0000
  H   H2585     1.0  0.75515  0.08680  0.39028  1.0000
  H   H2586     1.0  0.59100  0.30449  0.37547  1.0000
  H   H2587     1.0  0.82346  0.01973  0.43521  1.0000
  H   H2588     1.0  0.82237  0.27284  0.34453  1.0000
  H   H2589     1.0  0.59868  0.26757  0.29324  1.0000
  C   C3229     1.0  0.75548  0.29621  0.40809  1.0000
  C   C3230     1.0  0.77759  0.28359  0.41240  1.0000
  H   H2590     1.0  0.79046  0.07377  0.45983  1.0000
  H   H2591     1.0  0.61763  0.14420  0.45575  1.0000
  H   H2592     1.0  0.80008  0.13141  0.37885  1.0000
  C   C3231     1.0  0.79964  0.23673  0.45154  1.0000
  S   S442      1.0  0.88533  0.02006  0.26361  1.0000
  C   C3232     1.0  0.92672  0.02636  0.30695  1.0000
  C   C3233     1.0  0.79823  0.13858  0.41289  1.0000
  H   H2593     1.0  0.71228  0.28468  0.32622  1.0000
  H   H2594     1.0  0.96231  0.09592  0.42743  1.0000
  C   C3234     1.0  0.89616  0.25627  0.46438  1.0000
  H   H2595     1.0  0.71856  0.19478  0.42931  1.0000
  H   H2596     1.0  0.81716  0.27913  0.40747  1.0000
  C   C3235     1.0  0.65763  0.26803  0.33156  1.0000
  C   C3236     1.0  0.87295  0.04569  0.46056  1.0000
  C   C3237     1.0  0.69373  0.17187  0.42948  1.0000
  C   C3238     1.0  0.71667  0.17875  0.42599  1.0000
  C   C3239     1.0  0.73709  0.16504  0.41826  1.0000
  C   C3240     1.0  0.73467  0.14401  0.41411  1.0000
  C   C3241     1.0  0.75128  0.08689  0.42779  1.0000
  C   C3242     1.0  0.75595  0.06274  0.43524  1.0000
  C   C3243     1.0  0.77552  0.04565  0.42954  1.0000
  H   H2597     1.0  0.75848  0.30199  0.31260  1.0000
  H   H2598     1.0  0.53761  0.03297  0.45810  1.0000
  C   C3244     1.0  0.77188  0.02418  0.34743  1.0000
  C   C3245     1.0  0.51833  0.30039  0.32630  1.0000
  C   C3246     1.0  0.70008  0.30243  0.32600  1.0000
  C   C3247     1.0  0.67096  0.98523  0.46093  1.0000
  S   S443      1.0  0.79111  0.16997  0.47289  1.0000
  H   H2599     1.0  0.84637  0.07898  0.46303  1.0000
  H   H2600     1.0  0.95877  0.12848  0.47382  1.0000
  H   H2601     1.0  0.82340  0.29929  0.32022  1.0000
  C   C3248     1.0  0.61557  0.30373  0.32622  1.0000
  C   C3249     1.0  0.81554  0.30727  0.32974  1.0000
  C   C3250     1.0  0.76565  0.25312  0.23076  1.0000
  C   C3251     1.0  0.80451  0.30256  0.35576  1.0000
  C   C3252     1.0  0.76306  0.00261  0.34952  1.0000
  S   S444      1.0  0.58170  0.31574  0.40425  1.0000
  C   C3253     1.0  0.99218  0.08272  0.45618  1.0000
  C   C3254     1.0  0.52022  0.31377  0.39030  1.0000
  C   C3255     1.0  0.53642  0.31584  0.39869  1.0000
  H   H2602     1.0  0.50058  0.31622  0.39450  1.0000
  C   C3256     1.0  0.76399  0.02391  0.47454  1.0000
  Fe  Fe225     1.0  0.82779  0.17667  0.47464  1.0000
  H   H2603     1.0  0.51349  0.30182  0.71781  1.0000
  S   S445      1.0  0.55550  0.02420  0.67525  1.0000
  Fe  Fe226     1.0  0.68138  0.12448  0.61629  1.0000
  S   S446      1.0  0.66586  0.09571  0.63391  1.0000
  S   S447      1.0  0.68414  0.16153  0.61980  1.0000
  Fe  Fe227     1.0  0.68620  0.09497  0.59286  1.0000
  S   S448      1.0  0.67153  0.06419  0.60872  1.0000
  S   S449      1.0  0.69784  0.08805  0.57020  1.0000
  Fe  Fe228     1.0  0.64346  0.09374  0.61816  1.0000
  S   S450      1.0  0.60298  0.09416  0.62063  1.0000
  Fe  Fe229     1.0  0.69571  0.06903  0.62248  1.0000
  S   S451      1.0  0.72190  0.03669  0.63253  1.0000
  S   S452      1.0  0.65666  0.12451  0.60134  1.0000
  S   S453      1.0  0.71262  0.09797  0.60591  1.0000
  C   C3257     1.0  0.56084  0.06467  0.54030  1.0000
  Fe  Fe230     1.0  0.71015  0.25236  0.68629  1.0000
  H   H2604     1.0  0.70334  0.12847  0.49778  1.0000
  C   C3258     1.0  0.85750  0.26765  0.66352  1.0000
  C   C3259     1.0  0.53976  0.16210  0.70868  1.0000
  H   H2605     1.0  0.66691  0.23145  0.66348  1.0000
  H   H2606     1.0  0.49586  0.06831  0.71050  1.0000
  S   S454      1.0  0.93048  0.00578  0.63571  1.0000
  H   H2607     1.0  0.54247  0.21638  0.68526  1.0000
  H   H2608     1.0  0.51052  0.01165  0.50633  1.0000
  H   H2609     1.0  0.91401  0.19188  0.49225  1.0000
  Fe  Fe231     1.0  0.97180  0.02399  0.67092  1.0000
  H   H2610     1.0  0.82987  0.00955  0.48739  1.0000
  H   H2611     1.0  0.58446  0.13821  0.47726  1.0000
  H   H2612     1.0  0.88967  0.11524  0.72323  1.0000
  H   H2613     1.0  0.58680  0.03673  0.69759  1.0000
  H   H2614     1.0  0.89505  0.99541  0.51971  1.0000
  C   C3260     1.0  0.91337  0.23515  0.67321  1.0000
  H   H2615     1.0  0.62666  0.15588  0.50290  1.0000
  H   H2616     1.0  0.90579  0.15846  0.68084  1.0000
  S   S455      1.0  0.93610  0.01195  0.67349  1.0000
  H   H2617     1.0  0.97417  0.26868  0.54941  1.0000
  Fe  Fe232     1.0  0.75830  0.22378  0.69533  1.0000
  H   H2618     1.0  0.50095  0.10412  0.65048  1.0000
  Fe  Fe233     1.0  0.73751  0.20675  0.67391  1.0000
  S   S456      1.0  0.73598  0.17049  0.66883  1.0000
  S   S457      1.0  0.77452  0.21473  0.67340  1.0000
  S   S458      1.0  0.72228  0.21313  0.69647  1.0000
  Fe  Fe234     1.0  0.61859  0.04549  0.50810  1.0000
  S   S459      1.0  0.59122  0.02003  0.51281  1.0000
  Fe  Fe235     1.0  0.67267  0.05037  0.50691  1.0000
  S   S460      1.0  0.71250  0.03445  0.50939  1.0000
  Fe  Fe236     1.0  0.62940  0.09038  0.51460  1.0000
  S   S461      1.0  0.61764  0.11564  0.53061  1.0000
  S   S462      1.0  0.63847  0.05042  0.52434  1.0000
  C   C3261     1.0  0.53875  0.18725  0.70382  1.0000
  C   C3262     1.0  0.81541  0.31280  0.48016  1.0000
  H   H2619     1.0  0.84156  0.00859  0.70839  1.0000
  S   S463      1.0  0.79869  0.09552  0.49200  1.0000
  C   C3263     1.0  0.93168  0.23945  0.64780  1.0000
  C   C3264     1.0  0.51616  0.05698  0.62435  1.0000
  S   S464      1.0  0.65397  0.03968  0.49211  1.0000
  S   S465      1.0  0.93294  0.26892  0.52979  1.0000
  S   S466      1.0  0.98943  0.98889  0.68366  1.0000
  Fe  Fe237     1.0  0.92053  0.26744  0.50975  1.0000
  S   S467      1.0  0.91838  0.23144  0.50424  1.0000
  H   H2620     1.0  0.80627  0.30867  0.62399  1.0000
  C   C3265     1.0  0.85302  0.21336  0.49113  1.0000
  C   C3266     1.0  0.84472  0.99362  0.48769  1.0000
  C   C3267     1.0  0.62291  0.01727  0.57666  1.0000
  C   C3268     1.0  0.89291  0.22526  0.49905  1.0000
  C   C3269     1.0  0.86970  0.24081  0.50047  1.0000
  C   C3270     1.0  0.84983  0.23475  0.49664  1.0000
  C   C3271     1.0  0.54330  0.19684  0.68904  1.0000
  C   C3272     1.0  0.94324  0.28402  0.56439  1.0000
  H   H2621     1.0  0.86700  0.25735  0.50465  1.0000
  H   H2622     1.0  0.83187  0.24669  0.49797  1.0000
  C   C3273     1.0  0.73581  0.05253  0.50321  1.0000
  C   C3274     1.0  0.73158  0.07729  0.49619  1.0000
  C   C3275     1.0  0.75089  0.09075  0.49191  1.0000
  C   C3276     1.0  0.77444  0.07948  0.49479  1.0000
  C   C3277     1.0  0.77869  0.05465  0.50138  1.0000
  C   C3278     1.0  0.75965  0.04135  0.50549  1.0000
  H   H2623     1.0  0.71364  0.08611  0.49394  1.0000
  H   H2624     1.0  0.61267  0.99273  0.48115  1.0000
  C   C3279     1.0  0.60351  0.14736  0.49129  1.0000
  C   C3280     1.0  0.80562  0.31532  0.53125  1.0000
  H   H2625     1.0  0.82829  0.29648  0.48391  1.0000
  H   H2626     1.0  0.92276  0.08814  0.67090  1.0000
  S   S468      1.0  0.60817  0.08560  0.49900  1.0000
  H   H2627     1.0  0.61294  0.08338  0.58347  1.0000
  H   H2628     1.0  0.80255  0.29675  0.53309  1.0000
  C   C3281     1.0  0.53247  0.26613  0.71345  1.0000
  H   H2629     1.0  0.57231  0.03620  0.60509  1.0000
  C   C3282     1.0  0.78924  0.30122  0.64646  1.0000
  C   C3283     1.0  0.73355  0.98669  0.66116  1.0000
  C   C3284     1.0  0.92682  0.29962  0.62919  1.0000
  H   H2630     1.0  0.90470  0.15136  0.70709  1.0000
  H   H2631     1.0  0.55540  0.23123  0.71062  1.0000
  C   C3285     1.0  0.83923  0.10013  0.68300  1.0000
  C   C3286     1.0  0.52239  0.02428  0.50556  1.0000
  C   C3287     1.0  0.67482  0.09554  0.55975  1.0000
  C   C3288     1.0  0.67945  0.08581  0.54729  1.0000
  C   C3289     1.0  0.66183  0.09177  0.53848  1.0000
  C   C3290     1.0  0.63949  0.10785  0.54194  1.0000
  C   C3291     1.0  0.63486  0.11776  0.55441  1.0000
  C   C3292     1.0  0.65238  0.11141  0.56339  1.0000
  H   H2632     1.0  0.69677  0.07372  0.54434  1.0000
  H   H2633     1.0  0.66592  0.08430  0.52882  1.0000
  H   H2634     1.0  0.61783  0.13038  0.55710  1.0000
  H   H2635     1.0  0.64865  0.11910  0.57298  1.0000
  C   C3293     1.0  0.74421  0.02348  0.61912  1.0000
  C   C3294     1.0  0.74102  0.03003  0.60483  1.0000
  C   C3295     1.0  0.75874  0.01981  0.59408  1.0000
  C   C3296     1.0  0.77997  0.00316  0.59740  1.0000
  C   C3297     1.0  0.55112  0.29382  0.72073  1.0000
  C   C3298     1.0  0.76532  0.00647  0.62258  1.0000
  H   H2636     1.0  0.72486  0.04302  0.60200  1.0000
  H   H2637     1.0  0.75575  0.02467  0.58316  1.0000
  H   H2638     1.0  0.74738  0.10992  0.48681  1.0000
  H   H2639     1.0  0.76794  0.00140  0.63361  1.0000
  C   C3299     1.0  0.69740  0.16356  0.63403  1.0000
  C   C3300     1.0  0.69562  0.18670  0.63721  1.0000
  C   C3301     1.0  0.70679  0.18905  0.64812  1.0000
  C   C3302     1.0  0.72013  0.16829  0.65578  1.0000
  C   C3303     1.0  0.72158  0.14512  0.65275  1.0000
  C   C3304     1.0  0.71020  0.14273  0.64195  1.0000
  H   H2640     1.0  0.68576  0.20289  0.63111  1.0000
  H   H2641     1.0  0.70566  0.20696  0.65033  1.0000
  H   H2642     1.0  0.73176  0.12895  0.65868  1.0000
  H   H2643     1.0  0.71165  0.12483  0.63961  1.0000
  C   C3305     1.0  0.56868  0.04319  0.65984  1.0000
  C   C3306     1.0  0.55430  0.05809  0.65006  1.0000
  C   C3307     1.0  0.56507  0.07359  0.63795  1.0000
  C   C3308     1.0  0.59019  0.07420  0.63564  1.0000
  C   C3309     1.0  0.60466  0.05907  0.64532  1.0000
  C   C3310     1.0  0.59390  0.04349  0.65738  1.0000
  H   H2644     1.0  0.62407  0.05948  0.64355  1.0000
  H   H2645     1.0  0.60504  0.03192  0.66494  1.0000
  H   H2646     1.0  0.56506  0.06946  0.50268  1.0000
  C   C3311     1.0  0.54860  0.18126  0.67914  1.0000
  H   H2647     1.0  0.58480  0.02565  0.57492  1.0000
  C   C3312     1.0  0.55419  0.04755  0.60731  1.0000
  H   H2648     1.0  0.57190  0.17573  0.57252  1.0000
  C   C3313     1.0  0.95499  0.05158  0.70266  1.0000
  C   C3314     1.0  0.96351  0.06882  0.69084  1.0000
  C   C3315     1.0  0.96306  0.09249  0.69273  1.0000
  C   C3316     1.0  0.64174  0.29667  0.71406  1.0000
  H   H2649     1.0  0.95530  0.03329  0.70128  1.0000
  C   C3317     1.0  0.49769  0.09481  0.72257  1.0000
  C   C3318     1.0  0.51449  0.04943  0.50068  1.0000
  H   H2650     1.0  0.56796  0.15996  0.55169  1.0000
  C   C3319     1.0  0.54590  0.01542  0.50928  1.0000
  C   C3320     1.0  0.56169  0.03160  0.50811  1.0000
  C   C3321     1.0  0.55350  0.05671  0.50343  1.0000
  C   C3322     1.0  0.53008  0.06555  0.49978  1.0000
  S   S469      1.0  0.74489  0.26388  0.68690  1.0000
  H   H2651     1.0  0.65373  0.05652  0.58299  1.0000
  C   C3323     1.0  0.89897  0.14281  0.68789  1.0000
  H   H2652     1.0  0.56555  0.11686  0.55440  1.0000
  C   C3324     1.0  0.94241  0.21444  0.64998  1.0000
  H   H2653     1.0  0.52962  0.05960  0.53327  1.0000
  H   H2654     1.0  0.82780  0.30858  0.69207  1.0000
  H   H2655     1.0  0.50091  0.06451  0.55638  1.0000
  C   C3325     1.0  0.82200  0.10246  0.69583  1.0000
  C   C3326     1.0  0.64360  0.15796  0.48024  1.0000
  H   H2656     1.0  0.93454  0.25021  0.63701  1.0000
  H   H2657     1.0  0.85227  0.02210  0.55673  1.0000
  H   H2658     1.0  0.80419  0.28112  0.68740  1.0000
  Fe  Fe238     1.0  0.51430  0.02859  0.67887  1.0000
  C   C3327     1.0  0.54587  0.06774  0.59698  1.0000
  C   C3328     1.0  0.88031  0.04532  0.48814  1.0000
  C   C3329     1.0  0.92426  0.21021  0.67536  1.0000
  C   C3330     1.0  0.93312  0.30321  0.57189  1.0000
  C   C3331     1.0  0.55595  0.06660  0.69495  1.0000
  C   C3332     1.0  0.82292  0.28147  0.68159  1.0000
  C   C3333     1.0  0.58100  0.05584  0.69285  1.0000
  C   C3334     1.0  0.52760  0.13817  0.66449  1.0000
  H   H2659     1.0  0.68478  0.25039  0.48026  1.0000
  S   S470      1.0  0.82711  0.20583  0.48726  1.0000
  H   H2660     1.0  0.96967  0.10587  0.68362  1.0000
  C   C3335     1.0  0.59754  0.18280  0.71684  1.0000
  S   S471      1.0  0.77829  0.27589  0.64491  1.0000
  C   C3336     1.0  0.98662  0.28166  0.71519  1.0000
  H   H2661     1.0  0.58940  0.14400  0.50081  1.0000
  S   S472      1.0  0.67141  0.27281  0.69309  1.0000
  H   H2662     1.0  0.54499  0.12715  0.70300  1.0000
  C   C3337     1.0  0.88176  0.10218  0.70615  1.0000
  C   C3338     1.0  0.56939  0.11653  0.58890  1.0000
  H   H2663     1.0  0.91019  0.12591  0.47778  1.0000
  C   C3339     1.0  0.66913  0.00134  0.61632  1.0000
  H   H2664     1.0  0.62998  0.99954  0.64878  1.0000
  H   H2665     1.0  0.63360  0.02298  0.62369  1.0000
  C   C3340     1.0  0.72408  0.99637  0.57694  1.0000
  S   S473      1.0  0.49560  0.01250  0.70089  1.0000
  H   H2666     1.0  0.85310  0.07922  0.48699  1.0000
  C   C3341     1.0  0.78325  0.99632  0.61172  1.0000
  C   C3342     1.0  0.50780  0.07717  0.61420  1.0000
  C   C3343     1.0  0.59968  0.03255  0.57677  1.0000
  P   P111      1.0  0.67088  0.16774  0.48143  1.0000
  C   C3344     1.0  0.73653  0.15233  0.58485  1.0000
  C   C3345     1.0  0.71325  0.15799  0.58119  1.0000
  C   C3346     1.0  0.70960  0.14888  0.56994  1.0000
  C   C3347     1.0  0.72913  0.13389  0.56244  1.0000
  C   C3348     1.0  0.75239  0.12745  0.56634  1.0000
  C   C3349     1.0  0.75610  0.13727  0.57740  1.0000
  P   P112      1.0  0.77732  0.10666  0.55741  1.0000
  C   C3350     1.0  0.79515  0.08735  0.57047  1.0000
  C   C3351     1.0  0.76499  0.08686  0.55020  1.0000
  C   C3352     1.0  0.76456  0.06248  0.55726  1.0000
  C   C3353     1.0  0.75595  0.04695  0.55138  1.0000
  C   C3354     1.0  0.74726  0.05575  0.53852  1.0000
  C   C3355     1.0  0.74763  0.07996  0.53141  1.0000
  C   C3356     1.0  0.75656  0.09547  0.53714  1.0000
  C   C3357     1.0  0.82072  0.07932  0.56651  1.0000
  C   C3358     1.0  0.83389  0.06254  0.57637  1.0000
  C   C3359     1.0  0.82160  0.05358  0.59019  1.0000
  C   C3360     1.0  0.79620  0.06163  0.59423  1.0000
  C   C3361     1.0  0.78301  0.07843  0.58444  1.0000
  C   C3362     1.0  0.79642  0.12329  0.54257  1.0000
  C   C3363     1.0  0.79652  0.14809  0.54180  1.0000
  C   C3364     1.0  0.81065  0.16093  0.52989  1.0000
  C   C3365     1.0  0.82473  0.14913  0.51873  1.0000
  C   C3366     1.0  0.82483  0.12441  0.51949  1.0000
  C   C3367     1.0  0.81080  0.11154  0.53135  1.0000
  H   H2667     1.0  0.73912  0.15915  0.59375  1.0000
  H   H2668     1.0  0.69794  0.16908  0.58725  1.0000
  H   H2669     1.0  0.69144  0.15282  0.56727  1.0000
  H   H2670     1.0  0.72564  0.12669  0.55398  1.0000
  H   H2671     1.0  0.77393  0.13280  0.58051  1.0000
  H   H2672     1.0  0.77118  0.05521  0.56720  1.0000
  H   H2673     1.0  0.75603  0.02810  0.55681  1.0000
  H   H2674     1.0  0.74006  0.04392  0.53409  1.0000
  H   H2675     1.0  0.74097  0.08668  0.52143  1.0000
  H   H2676     1.0  0.75685  0.11414  0.53138  1.0000
  H   H2677     1.0  0.83045  0.08554  0.55576  1.0000
  H   H2678     1.0  0.85355  0.05612  0.57324  1.0000
  H   H2679     1.0  0.83165  0.04011  0.59772  1.0000
  H   H2680     1.0  0.78652  0.05434  0.60484  1.0000
  H   H2681     1.0  0.76316  0.08365  0.58758  1.0000
  H   H2682     1.0  0.78544  0.15766  0.55022  1.0000
  H   H2683     1.0  0.81039  0.18021  0.52912  1.0000
  H   H2684     1.0  0.83524  0.15928  0.50938  1.0000
  H   H2685     1.0  0.83532  0.11532  0.51074  1.0000
  H   H2686     1.0  0.81078  0.09255  0.53159  1.0000
  S   S474      1.0  0.89077  0.30112  0.51128  1.0000
  C   C3368     1.0  0.53620  0.06292  0.54207  1.0000
  H   H2687     1.0  0.57335  0.06263  0.53014  1.0000
  C   C3369     1.0  0.81912  0.22385  0.70385  1.0000
  S   S475      1.0  0.88774  0.20746  0.71325  1.0000
  C   C3370     1.0  0.57922  0.14256  0.64216  1.0000
  C   C3371     1.0  0.57487  0.25361  0.71708  1.0000
  H   H2688     1.0  0.81606  0.16088  0.68790  1.0000
  C   C3372     1.0  0.79732  0.11340  0.69543  1.0000
  H   H2689     1.0  0.53602  0.15474  0.72014  1.0000
  C   C3373     1.0  0.80677  0.20724  0.71427  1.0000
  C   C3374     1.0  0.89611  0.20392  0.49348  1.0000
  C   C3375     1.0  0.87635  0.19813  0.48938  1.0000
  H   H2690     1.0  0.66025  0.01391  0.57891  1.0000
  Fe  Fe239     1.0  0.95311  0.99721  0.65318  1.0000
  H   H2691     1.0  0.70187  0.98899  0.65248  1.0000
  C   C3376     1.0  0.67877  0.21439  0.48074  1.0000
  H   H2692     1.0  0.84628  0.17672  0.69583  1.0000
  C   C3377     1.0  0.91734  0.25011  0.65945  1.0000
  H   H2693     1.0  0.80942  0.23655  0.69597  1.0000
  H   H2694     1.0  0.59320  0.14691  0.71575  1.0000
  H   H2695     1.0  0.90529  0.08368  0.48014  1.0000
  H   H2696     1.0  0.97997  0.30022  0.71711  1.0000
  H   H2697     1.0  0.91485  0.30396  0.57852  1.0000
  C   C3378     1.0  0.64618  0.99450  0.64078  1.0000
  H   H2698     1.0  0.61775  0.06087  0.68233  1.0000
  C   C3379     1.0  0.52866  0.06957  0.56656  1.0000
  H   H2699     1.0  0.91029  0.05345  0.69735  1.0000
  H   H2700     1.0  0.65017  0.18073  0.53170  1.0000
  C   C3380     1.0  0.89745  0.13233  0.63210  1.0000
  C   C3381     1.0  0.89360  0.12522  0.62018  1.0000
  C   C3382     1.0  0.87475  0.13905  0.61298  1.0000
  C   C3383     1.0  0.85959  0.15987  0.61777  1.0000
  C   C3384     1.0  0.86290  0.16671  0.63000  1.0000
  C   C3385     1.0  0.88223  0.15301  0.63699  1.0000
  P   P113      1.0  0.84335  0.19360  0.63619  1.0000
  C   C3386     1.0  0.81219  0.19603  0.63382  1.0000
  C   C3387     1.0  0.84329  0.18968  0.65516  1.0000
  C   C3388     1.0  0.86021  0.19894  0.65978  1.0000
  C   C3389     1.0  0.86102  0.19455  0.67443  1.0000
  C   C3390     1.0  0.84542  0.18046  0.68450  1.0000
  C   C3391     1.0  0.82860  0.17123  0.68001  1.0000
  C   C3392     1.0  0.82754  0.17578  0.66540  1.0000
  C   C3393     1.0  0.80288  0.17477  0.63523  1.0000
  C   C3394     1.0  0.77903  0.17661  0.63306  1.0000
  C   C3395     1.0  0.76429  0.19966  0.62948  1.0000
  C   C3396     1.0  0.77315  0.22088  0.62837  1.0000
  C   C3397     1.0  0.79699  0.21910  0.63048  1.0000
  C   C3398     1.0  0.85481  0.22087  0.62623  1.0000
  C   C3399     1.0  0.87100  0.22074  0.61285  1.0000
  C   C3400     1.0  0.87880  0.24227  0.60488  1.0000
  C   C3401     1.0  0.87048  0.26404  0.61020  1.0000
  C   C3402     1.0  0.85449  0.26425  0.62354  1.0000
  C   C3403     1.0  0.84672  0.24279  0.63155  1.0000
  H   H2701     1.0  0.91236  0.12188  0.63750  1.0000
  H   H2702     1.0  0.90537  0.10908  0.61648  1.0000
  H   H2703     1.0  0.87195  0.13371  0.60363  1.0000
  H   H2704     1.0  0.84526  0.17059  0.61195  1.0000
  H   H2705     1.0  0.88568  0.15822  0.64618  1.0000
  H   H2706     1.0  0.87295  0.20928  0.65211  1.0000
  H   H2707     1.0  0.87379  0.20195  0.67805  1.0000
  H   H2708     1.0  0.81412  0.16872  0.66221  1.0000
  H   H2709     1.0  0.81400  0.15676  0.63803  1.0000
  H   H2710     1.0  0.77173  0.16023  0.63432  1.0000
  H   H2711     1.0  0.74591  0.20109  0.62769  1.0000
  H   H2712     1.0  0.76148  0.23878  0.62598  1.0000
  H   H2713     1.0  0.80324  0.23589  0.62951  1.0000
  H   H2714     1.0  0.87734  0.20423  0.60837  1.0000
  H   H2715     1.0  0.89092  0.24221  0.59444  1.0000
  H   H2716     1.0  0.87610  0.28080  0.60385  1.0000
  H   H2717     1.0  0.84756  0.28116  0.62755  1.0000
  H   H2718     1.0  0.83371  0.24354  0.64167  1.0000
  C   C3404     1.0  0.55346  0.07123  0.56489  1.0000
  C   C3405     1.0  0.56942  0.06897  0.55160  1.0000
  H   H2719     1.0  0.72075  0.99576  0.53774  1.0000
  C   C3406     1.0  0.86310  0.06411  0.48168  1.0000
  C   C3407     1.0  0.70774  0.01488  0.55524  1.0000
  H   H2720     1.0  0.53419  0.19919  0.71158  1.0000
  H   H2721     1.0  0.58857  0.07059  0.54991  1.0000
  C   C3408     1.0  0.83625  0.29689  0.68426  1.0000
  H   H2722     1.0  0.57341  0.14764  0.59627  1.0000
  Fe  Fe240     1.0  0.90549  0.30451  0.53018  1.0000
  C   C3409     1.0  0.54487  0.14647  0.69885  1.0000
  H   H2723     1.0  0.72637  0.00413  0.66464  1.0000
  H   H2724     1.0  0.55187  0.18897  0.66770  1.0000
  H   H2725     1.0  0.93278  0.27010  0.56516  1.0000
  C   C3410     1.0  0.95953  0.01213  0.50394  1.0000
  C   C3411     1.0  0.93830  0.03016  0.50225  1.0000
  C   C3412     1.0  0.91483  0.02456  0.50817  1.0000
  C   C3413     1.0  0.91292  0.00048  0.51544  1.0000
  P   P114      1.0  0.88738  0.04714  0.50497  1.0000
  C   C3414     1.0  0.89271  0.07771  0.50338  1.0000
  H   H2726     1.0  0.97203  0.08319  0.47792  1.0000
  S   S476      1.0  0.94925  0.28790  0.49528  1.0000
  H   H2727     1.0  0.62670  0.29560  0.70942  1.0000
  C   C3415     1.0  0.54821  0.09089  0.68833  1.0000
  H   H2728     1.0  0.79960  0.98343  0.61440  1.0000
  H   H2729     1.0  0.93430  0.26846  0.67897  1.0000
  C   C3416     1.0  0.90141  0.09128  0.48979  1.0000
  C   C3417     1.0  0.50878  0.15922  0.66457  1.0000
  C   C3418     1.0  0.89908  0.12597  0.50056  1.0000
  C   C3419     1.0  0.89076  0.11255  0.51414  1.0000
  C   C3420     1.0  0.88760  0.08851  0.51557  1.0000
  C   C3421     1.0  0.86244  0.04190  0.52016  1.0000
  C   C3422     1.0  0.86743  0.03337  0.53418  1.0000
  C   C3423     1.0  0.84835  0.02916  0.54597  1.0000
  C   C3424     1.0  0.82410  0.03373  0.54392  1.0000
  C   C3425     1.0  0.81890  0.04250  0.53008  1.0000
  C   C3426     1.0  0.83795  0.04668  0.51825  1.0000
  H   H2730     1.0  0.60453  0.10363  0.67067  1.0000
  C   C3427     1.0  0.53076  0.28862  0.71724  1.0000
  C   C3428     1.0  0.93882  0.19986  0.66376  1.0000
  H   H2731     1.0  0.94022  0.04834  0.49618  1.0000
  H   H2732     1.0  0.51090  0.03147  0.59960  1.0000
  H   H2733     1.0  0.49676  0.01308  0.54497  1.0000
  C   C3429     1.0  0.56554  0.10460  0.67948  1.0000
  H   H2734     1.0  0.57034  0.10450  0.59930  1.0000
  C   C3430     1.0  0.97045  0.26517  0.71948  1.0000
  H   H2735     1.0  0.58869  0.28099  0.72328  1.0000
  H   H2736     1.0  0.77046  0.13044  0.68192  1.0000
  C   C3431     1.0  0.89054  0.12676  0.68223  1.0000
  H   H2737     1.0  0.90107  0.14474  0.49945  1.0000
  H   H2738     1.0  0.88632  0.12101  0.52352  1.0000
  H   H2739     1.0  0.88078  0.07869  0.52616  1.0000
  H   H2740     1.0  0.88609  0.02992  0.53604  1.0000
  C   C3432     1.0  0.62487  0.15411  0.49242  1.0000
  H   H2741     1.0  0.80946  0.03009  0.55310  1.0000
  H   H2742     1.0  0.80005  0.04625  0.52848  1.0000
  H   H2743     1.0  0.83335  0.05377  0.50769  1.0000
  C   C3433     1.0  0.59838  0.06941  0.68420  1.0000
  C   C3434     1.0  0.83340  0.26710  0.67107  1.0000
  C   C3435     1.0  0.72200  0.99546  0.54868  1.0000
  H   H2744     1.0  0.51756  0.09249  0.71972  1.0000
  S   S477      1.0  0.84364  0.13656  0.47989  1.0000
  S   S478      1.0  0.94496  0.15908  0.72298  1.0000
  S   S479      1.0  0.77545  0.20734  0.71516  1.0000
  C   C3436     1.0  0.90442  0.11532  0.48841  1.0000
  H   H2745     1.0  0.52868  0.09880  0.68999  1.0000
  C   C3437     1.0  0.94581  0.05810  0.71625  1.0000
  H   H2746     1.0  0.59958  0.15530  0.66927  1.0000
  C   C3438     1.0  0.62246  0.23021  0.70078  1.0000
  C   C3439     1.0  0.64329  0.21134  0.69874  1.0000
  C   C3440     1.0  0.65914  0.21173  0.68530  1.0000
  C   C3441     1.0  0.65438  0.23098  0.67381  1.0000
  C   C3442     1.0  0.63381  0.24986  0.67574  1.0000
  C   C3443     1.0  0.61794  0.24956  0.68917  1.0000
  C   C3444     1.0  0.87839  0.00727  0.71102  1.0000
  H   H2747     1.0  0.70404  0.27887  0.71022  1.0000
  H   H2748     1.0  0.85254  0.99858  0.50725  1.0000
  C   C3445     1.0  0.87278  0.05575  0.69546  1.0000
  P   P115      1.0  0.87090  0.08573  0.68399  1.0000
  C   C3446     1.0  0.94570  0.08165  0.71820  1.0000
  C   C3447     1.0  0.70920  0.01564  0.56924  1.0000
  H   H2749     1.0  0.85337  0.23696  0.69569  1.0000
  H   H2750     1.0  0.77364  0.29926  0.66898  1.0000
  H   H2751     1.0  0.67538  0.19733  0.68382  1.0000
  H   H2752     1.0  0.54248  0.05581  0.70136  1.0000
  H   H2753     1.0  0.60248  0.26467  0.69049  1.0000
  C   C3448     1.0  0.84391  0.22394  0.70370  1.0000
  S   S480      1.0  0.66435  0.09052  0.49820  1.0000
  C   C3449     1.0  0.89836  0.13883  0.70268  1.0000
  C   C3450     1.0  0.69197  0.14035  0.50495  1.0000
  C   C3451     1.0  0.89683  0.06157  0.64588  1.0000
  C   C3452     1.0  0.92137  0.06443  0.64244  1.0000
  C   C3453     1.0  0.93041  0.07443  0.65138  1.0000
  C   C3454     1.0  0.91487  0.08184  0.66370  1.0000
  C   C3455     1.0  0.88994  0.07977  0.66701  1.0000
  C   C3456     1.0  0.88127  0.06887  0.65822  1.0000
  C   C3457     1.0  0.83155  0.10963  0.66973  1.0000
  C   C3458     1.0  0.80670  0.12008  0.66940  1.0000
  H   H2754     1.0  0.55388  0.08527  0.63043  1.0000
  H   H2755     1.0  0.89032  0.05253  0.63933  1.0000
  H   H2756     1.0  0.93368  0.05782  0.63321  1.0000
  H   H2757     1.0  0.94976  0.07553  0.64909  1.0000
  H   H2758     1.0  0.86276  0.06515  0.66116  1.0000
  H   H2759     1.0  0.84455  0.10915  0.65964  1.0000
  H   H2760     1.0  0.80051  0.12694  0.65923  1.0000
  C   C3459     1.0  0.95429  0.09886  0.70638  1.0000
  C   C3460     1.0  0.88236  0.30582  0.63248  1.0000
  C   C3461     1.0  0.66593  0.28613  0.70832  1.0000
  H   H2761     1.0  0.76346  0.02234  0.51069  1.0000
  H   H2762     1.0  0.62590  0.99887  0.57465  1.0000
  C   C3462     1.0  0.87114  0.28286  0.66629  1.0000
  P   P116      1.0  0.56532  0.07566  0.57958  1.0000
  C   C3463     1.0  0.56792  0.14799  0.56216  1.0000
  C   C3464     1.0  0.57029  0.15681  0.57387  1.0000
  C   C3465     1.0  0.96649  0.28329  0.55547  1.0000
  Fe  Fe241     1.0  0.64489  0.08020  0.48379  1.0000
  H   H2763     1.0  0.79683  0.04557  0.50341  1.0000
  H   H2764     1.0  0.59824  0.14665  0.62001  1.0000
  C   C3466     1.0  0.61534  0.06501  0.58156  1.0000
  C   C3467     1.0  0.56716  0.10749  0.57718  1.0000
  C   C3468     1.0  0.56655  0.12337  0.56376  1.0000
  C   C3469     1.0  0.57110  0.14105  0.58722  1.0000
  S   S481      1.0  0.72232  0.24522  0.66369  1.0000
  C   C3470     1.0  0.90537  0.98757  0.62128  1.0000
  H   H2765     1.0  0.86440  0.30505  0.63929  1.0000
  C   C3471     1.0  0.64816  0.00765  0.62662  1.0000
  H   H2766     1.0  0.87524  0.08655  0.71342  1.0000
  C   C3472     1.0  0.59872  0.15387  0.65852  1.0000
  H   H2767     1.0  0.54609  0.02702  0.62898  1.0000
  H   H2768     1.0  0.69598  0.02969  0.54928  1.0000
  P   P117      1.0  0.60230  0.22999  0.71831  1.0000
  C   C3473     1.0  0.63859  0.04969  0.58139  1.0000
  H   H2769     1.0  0.90190  0.24273  0.68236  1.0000
  S   S482      1.0  0.97456  0.06140  0.67359  1.0000
  H   H2770     1.0  0.53894  0.10212  0.65906  1.0000
  C   C3474     1.0  0.59574  0.05659  0.57912  1.0000
  H   H2771     1.0  0.84395  0.30372  0.53285  1.0000
  H   H2772     1.0  0.63301  0.16639  0.64891  1.0000
  C   C3475     1.0  0.88973  0.11854  0.71179  1.0000
  Fe  Fe242     1.0  0.95930  0.29222  0.51534  1.0000
  H   H2773     1.0  0.69013  0.20556  0.48872  1.0000
  C   C3476     1.0  0.80347  0.31370  0.63437  1.0000
  C   C3477     1.0  0.64233  0.02581  0.57900  1.0000
  H   H2774     1.0  0.55197  0.99596  0.51295  1.0000
  H   H2775     1.0  0.94364  0.29347  0.63350  1.0000
  H   H2776     1.0  0.92141  0.19895  0.68607  1.0000
  C   C3478     1.0  0.67476  0.16081  0.49996  1.0000
  P   P118      1.0  0.90265  0.28225  0.65693  1.0000
  C   C3479     1.0  0.61768  0.16014  0.64706  1.0000
  C   C3480     1.0  0.57922  0.14517  0.65614  1.0000
  C   C3481     1.0  0.55447  0.24872  0.71332  1.0000
  C   C3482     1.0  0.59809  0.14909  0.63073  1.0000
  S   S483      1.0  0.98744  0.01256  0.64951  1.0000
  C   C3483     1.0  0.52463  0.11844  0.65928  1.0000
  C   C3484     1.0  0.89358  0.02650  0.48066  1.0000
  Fe  Fe243     1.0  0.75814  0.25398  0.66493  1.0000
  H   H2777     1.0  0.70728  0.11881  0.52327  1.0000
  H   H2778     1.0  0.95429  0.11704  0.70775  1.0000
  H   H2779     1.0  0.50476  0.05296  0.63494  1.0000
  C   C3485     1.0  0.61729  0.15786  0.63317  1.0000
  H   H2780     1.0  0.63211  0.16244  0.62432  1.0000
  H   H2781     1.0  0.63054  0.26502  0.66688  1.0000
  C   C3486     1.0  0.69439  0.13485  0.51938  1.0000
  P   P119      1.0  0.55533  0.13609  0.67109  1.0000
  C   C3487     1.0  0.54929  0.15594  0.68397  1.0000
  H   H2782     1.0  0.56509  0.13497  0.64003  1.0000
  C   C3488     1.0  0.65974  0.17542  0.50971  1.0000
  C   C3489     1.0  0.94185  0.30205  0.68124  1.0000
  H   H2783     1.0  0.54951  0.31099  0.72409  1.0000
  C   C3490     1.0  0.67954  0.14952  0.52898  1.0000
  H   H2784     1.0  0.64587  0.19092  0.50618  1.0000
  C   C3491     1.0  0.85658  0.20705  0.71380  1.0000
  H   H2785     1.0  0.53485  0.05785  0.65191  1.0000
  C   C3492     1.0  0.67577  0.23983  0.47599  1.0000
  H   H2786     1.0  0.90714  0.01183  0.48519  1.0000
  H   H2787     1.0  0.60844  0.18529  0.70607  1.0000
  C   C3493     1.0  0.59073  0.09371  0.67753  1.0000
  C   C3494     1.0  0.91720  0.29963  0.66456  1.0000
  C   C3495     1.0  0.66213  0.16976  0.52416  1.0000
  H   H2788     1.0  0.68110  0.14478  0.54023  1.0000
  C   C3496     1.0  0.52268  0.08271  0.60062  1.0000
  H   H2789     1.0  0.86551  0.25625  0.65552  1.0000
  H   H2790     1.0  0.52407  0.08504  0.49612  1.0000
  H   H2791     1.0  0.69905  0.03135  0.57401  1.0000
  C   C3497     1.0  0.68536  0.28710  0.71451  1.0000
  C   C3498     1.0  0.78964  0.12204  0.68223  1.0000
  C   C3499     1.0  0.88228  0.10608  0.69129  1.0000
  C   C3500     1.0  0.90400  0.29643  0.63812  1.0000
  H   H2792     1.0  0.67079  0.01179  0.60539  1.0000
  C   C3501     1.0  0.66747  0.20054  0.47504  1.0000
  H   H2793     1.0  0.89055  0.13041  0.67080  1.0000
  H   H2794     1.0  0.78408  0.11527  0.70535  1.0000
  H   H2795     1.0  0.51588  0.07138  0.57658  1.0000
  C   C3502     1.0  0.53935  0.04222  0.62092  1.0000
  H   H2796     1.0  0.89691  0.00652  0.61787  1.0000
  H   H2797     1.0  0.82275  0.25561  0.66879  1.0000
  C   C3503     1.0  0.50312  0.11955  0.65440  1.0000
  H   H2798     1.0  0.87904  0.18177  0.48503  1.0000
  C   C3504     1.0  0.97948  0.30192  0.55388  1.0000
  C   C3505     1.0  0.52007  0.06555  0.55515  1.0000
  C   C3506     1.0  0.95745  0.98838  0.51148  1.0000
  H   H2799     1.0  0.51622  0.09880  0.59299  1.0000
  H   H2800     1.0  0.65495  0.23005  0.71766  1.0000
  H   H2801     1.0  0.82766  0.09580  0.70616  1.0000
  C   C3507     1.0  0.86024  0.29774  0.67658  1.0000
  C   C3508     1.0  0.78496  0.30839  0.65970  1.0000
  C   C3509     1.0  0.97876  0.24109  0.71720  1.0000
  S   S484      1.0  0.49737  0.00982  0.66715  1.0000
  H   H2802     1.0  0.94736  0.18054  0.66547  1.0000
  H   H2803     1.0  0.97759  0.01655  0.49929  1.0000
  C   C3510     1.0  0.93137  0.28811  0.67521  1.0000
  H   H2804     1.0  0.95362  0.20634  0.64097  1.0000
  C   C3511     1.0  0.57321  0.27656  0.72047  1.0000
  S   S485      1.0  0.80189  0.99180  0.58322  1.0000
  C   C3512     1.0  0.89490  0.04411  0.70015  1.0000
  H   H2805     1.0  0.83660  0.05102  0.69445  1.0000
  H   H2806     1.0  0.91507  0.01091  0.71117  1.0000
  H   H2807     1.0  0.78286  0.98635  0.47632  1.0000
  H   H2808     1.0  0.71528  0.31533  0.68793  1.0000
  C   C3513     1.0  0.85769  0.98754  0.49899  1.0000
  C   C3514     1.0  0.63266  0.98866  0.47842  1.0000
  H   H2809     1.0  0.94560  0.31404  0.60793  1.0000
  C   C3515     1.0  0.85349  0.04281  0.69846  1.0000
  H   H2810     1.0  0.64750  0.19650  0.70760  1.0000
  H   H2811     1.0  0.51041  0.17469  0.66858  1.0000
  C   C3516     1.0  0.89765  0.02002  0.70796  1.0000
  H   H2812     1.0  0.72511  0.99690  0.58782  1.0000
  C   C3517     1.0  0.85629  0.01867  0.70629  1.0000
  H   H2813     1.0  0.87005  0.31009  0.67869  1.0000
  Fe  Fe244     1.0  0.80855  0.12967  0.47621  1.0000
  H   H2814     1.0  0.95254  0.29305  0.68954  1.0000
  S   S486      1.0  0.88073  0.31146  0.55153  1.0000
  C   C3518     1.0  0.84426  0.19021  0.72409  1.0000
  H   H2815     1.0  0.88097  0.98834  0.71671  1.0000
  H   H2816     1.0  0.74631  0.01942  0.48011  1.0000
  H   H2817     1.0  0.49716  0.01053  0.62469  1.0000
  C   C3519     1.0  0.60075  0.14407  0.47804  1.0000
  H   H2818     1.0  0.82900  0.98332  0.55150  1.0000
  H   H2819     1.0  0.51652  0.26195  0.71100  1.0000
  H   H2820     1.0  0.61822  0.31364  0.67637  1.0000
  H   H2821     1.0  0.96650  0.22803  0.72089  1.0000
  C   C3520     1.0  0.92802  0.31123  0.61472  1.0000
  C   C3521     1.0  0.58863  0.16096  0.72222  1.0000
  H   H2822     1.0  0.75779  0.98318  0.51919  1.0000
  C   C3522     1.0  0.49262  0.02715  0.60291  1.0000
  H   H2823     1.0  0.58008  0.31600  0.69512  1.0000
  C   C3523     1.0  0.81940  0.19043  0.72440  1.0000
  Fe  Fe245     1.0  0.87012  0.12950  0.88549  1.0000
  S   S487      1.0  0.88258  0.09745  0.90226  1.0000
  S   S488      1.0  0.83838  0.16159  0.88931  1.0000
  Fe  Fe246     1.0  0.91038  0.11091  0.86155  1.0000
  S   S489      1.0  0.92633  0.07759  0.87655  1.0000
  S   S490      1.0  0.93151  0.11612  0.83860  1.0000
  Fe  Fe247     1.0  0.88694  0.07423  0.88574  1.0000
  S   S491      1.0  0.87390  0.03786  0.89361  1.0000
  Fe  Fe248     1.0  0.92087  0.10338  0.89166  1.0000
  C   C3524     1.0  0.97120  0.98522  0.91437  1.0000
  S   S492      1.0  0.87117  0.10594  0.86966  1.0000
  S   S493      1.0  0.90829  0.13708  0.87593  1.0000
  C   C3525     1.0  0.85618  0.02152  0.83972  1.0000
  H   H2824     1.0  0.84876  0.22028  0.91109  1.0000
  S   S494      1.0  0.69218  0.08505  0.95569  1.0000
  H   H2825     1.0  0.94864  0.99541  0.72486  1.0000
  S   S495      1.0  0.79703  0.18816  0.95165  1.0000
  Fe  Fe249     1.0  0.58129  0.20696  0.88911  1.0000
  S   S496      1.0  0.54157  0.20386  0.89712  1.0000
  S   S497      1.0  0.58454  0.24420  0.87516  1.0000
  Fe  Fe250     1.0  0.59897  0.15403  0.90313  1.0000
  S   S498      1.0  0.56066  0.14685  0.91210  1.0000
  S   S499      1.0  0.63207  0.12315  0.90483  1.0000
  Fe  Fe251     1.0  0.55243  0.16715  0.89055  1.0000
  C   C3526     1.0  0.90690  0.07716  0.79360  1.0000
  Fe  Fe252     1.0  0.55316  0.18409  0.91789  1.0000
  S   S500      1.0  0.52953  0.19125  0.93919  1.0000
  S   S501      1.0  0.59133  0.17172  0.88089  1.0000
  S   S502      1.0  0.59217  0.18979  0.91053  1.0000
  C   C3527     1.0  0.50447  0.27435  0.90747  1.0000
  C   C3528     1.0  0.94348  0.26208  0.91473  1.0000
  C   C3529     1.0  0.94778  0.98745  0.73621  1.0000
  C   C3530     1.0  0.58266  0.10545  0.94322  1.0000
  C   C3531     1.0  0.54670  0.31395  0.90401  1.0000
  H   H2826     1.0  0.80357  0.26852  0.73465  1.0000
  H   H2827     1.0  0.84919  0.25772  0.72773  1.0000
  H   H2828     1.0  0.82750  0.08907  0.91271  1.0000
  C   C3532     1.0  0.50142  0.12785  0.87404  1.0000
  H   H2829     1.0  0.84110  0.27377  0.93735  1.0000
  H   H2830     1.0  0.97415  0.29376  0.80794  1.0000
  H   H2831     1.0  0.61899  0.22162  0.84761  1.0000
  H   H2832     1.0  0.86113  0.07083  0.85180  1.0000
  Fe  Fe253     1.0  0.99119  0.21662  0.94867  1.0000
  Fe  Fe254     1.0  0.90727  0.15838  0.76196  1.0000
  S   S503      1.0  0.94467  0.13445  0.75725  1.0000
  S   S504      1.0  0.88180  0.15865  0.78378  1.0000
  C   C3533     1.0  0.60465  0.24185  0.74407  1.0000
  C   C3534     1.0  0.98206  0.16575  0.90408  1.0000
  C   C3535     1.0  0.92004  0.27712  0.91567  1.0000
  Fe  Fe255     1.0  0.93157  0.12737  0.73886  1.0000
  C   C3536     1.0  0.51950  0.24635  0.76137  1.0000
  Fe  Fe256     1.0  0.95507  0.16822  0.74181  1.0000
  H   H2833     1.0  0.55106  0.23773  0.77158  1.0000
  S   S505      1.0  0.89322  0.14858  0.74484  1.0000
  S   S506      1.0  0.91854  0.19276  0.74781  1.0000
  H   H2834     1.0  0.58361  0.29335  0.82896  1.0000
  C   C3537     1.0  0.90226  0.99754  0.86199  1.0000
  C   C3538     1.0  0.73448  0.22552  0.83927  1.0000
  H   H2835     1.0  0.93480  0.03466  0.84008  1.0000
  H   H2836     1.0  0.92072  0.04147  0.90370  1.0000
  Fe  Fe257     1.0  0.90736  0.18091  0.73023  1.0000
  C   C3539     1.0  0.97416  0.20014  0.85221  1.0000
  C   C3540     1.0  0.86555  0.05683  0.84530  1.0000
  H   H2837     1.0  0.95911  0.21652  0.75263  1.0000
  C   C3541     1.0  0.95030  0.02721  0.91551  1.0000
  C   C3542     1.0  0.53773  0.14209  0.82623  1.0000
  C   C3543     1.0  0.72443  0.19724  0.78232  1.0000
  C   C3544     1.0  0.84839  0.24558  0.92460  1.0000
  H   H2838     1.0  0.89724  0.20702  0.90668  1.0000
  H   H2839     1.0  0.83305  0.20691  0.81543  1.0000
  Fe  Fe258     1.0  0.76911  0.22159  0.95789  1.0000
  C   C3545     1.0  0.90122  0.24113  0.92505  1.0000
  H   H2840     1.0  0.82976  0.21994  0.95382  1.0000
  H   H2841     1.0  0.96300  0.99595  0.76607  1.0000
  C   C3546     1.0  0.58533  0.05934  0.90104  1.0000
  H   H2842     1.0  0.55616  0.28105  0.76715  1.0000
  H   H2843     1.0  0.69152  0.26871  0.75550  1.0000
  P   P120      1.0  0.87430  0.22740  0.93257  1.0000
  S   S507      1.0  0.77988  0.25817  0.95401  1.0000
  H   H2844     1.0  0.60794  0.22069  0.78785  1.0000
  H   H2845     1.0  0.89582  0.19652  0.79544  1.0000
  H   H2846     1.0  0.84561  0.09735  0.78211  1.0000
  H   H2847     1.0  0.74835  0.21385  0.84516  1.0000
  H   H2848     1.0  0.89447  0.27113  0.79798  1.0000
  C   C3547     1.0  0.51932  0.13022  0.88106  1.0000
  C   C3548     1.0  0.52964  0.10984  0.89047  1.0000
  C   C3549     1.0  0.97263  0.98454  0.87108  1.0000
  P   P121      1.0  0.91980  0.22132  0.80951  1.0000
  H   H2849     1.0  0.66284  0.98676  0.93894  1.0000
  H   H2850     1.0  0.54364  0.11135  0.89584  1.0000
  H   H2851     1.0  0.51403  0.27381  0.79895  1.0000
  C   C3550     1.0  0.52692  0.22110  0.94206  1.0000
  C   C3551     1.0  0.54253  0.23655  0.93328  1.0000
  C   C3552     1.0  0.54057  0.26002  0.93604  1.0000
  C   C3553     1.0  0.82107  0.13174  0.97417  1.0000
  C   C3554     1.0  0.52502  0.99871  0.92210  1.0000
  C   C3555     1.0  0.70797  0.26171  0.77426  1.0000
  H   H2852     1.0  0.55608  0.23050  0.92434  1.0000
  H   H2853     1.0  0.55277  0.27182  0.92927  1.0000
  C   C3556     1.0  0.85059  0.03949  0.84814  1.0000
  S   S508      1.0  0.49546  0.05625  0.88868  1.0000
  C   C3557     1.0  0.64382  0.29066  0.86673  1.0000
  C   C3558     1.0  0.64937  0.26553  0.87269  1.0000
  C   C3559     1.0  0.63132  0.25085  0.87571  1.0000
  C   C3560     1.0  0.60822  0.26105  0.87197  1.0000
  C   C3561     1.0  0.60340  0.28575  0.86528  1.0000
  H   H2854     1.0  0.49330  0.30408  0.74656  1.0000
  H   H2855     1.0  0.66738  0.25770  0.87532  1.0000
  H   H2856     1.0  0.63516  0.23178  0.88086  1.0000
  H   H2857     1.0  0.58595  0.29354  0.86197  1.0000
  C   C3562     1.0  0.97282  0.22410  0.85405  1.0000
  H   H2858     1.0  0.61979  0.00876  0.93897  1.0000
  C   C3563     1.0  0.98235  0.23570  0.75861  1.0000
  C   C3564     1.0  0.50600  0.28961  0.75198  1.0000
  H   H2859     1.0  0.50438  0.17902  0.91776  1.0000
  C   C3565     1.0  0.67461  0.09647  0.94197  1.0000
  C   C3566     1.0  0.68303  0.08761  0.92912  1.0000
  C   C3567     1.0  0.66967  0.09604  0.91796  1.0000
  C   C3568     1.0  0.64806  0.11395  0.91930  1.0000
  C   C3569     1.0  0.63987  0.12352  0.93197  1.0000
  C   C3570     1.0  0.65294  0.11447  0.94341  1.0000
  H   H2860     1.0  0.69976  0.07383  0.92787  1.0000
  H   H2861     1.0  0.67618  0.08864  0.90818  1.0000
  H   H2862     1.0  0.62356  0.13780  0.93296  1.0000
  H   H2863     1.0  0.64660  0.12188  0.95315  1.0000
  C   C3571     1.0  0.94379  0.04776  0.81702  1.0000
  S   S509      1.0  0.51996  0.29841  0.95009  1.0000
  C   C3572     1.0  0.97677  0.07100  0.80921  1.0000
  H   H2864     1.0  0.50546  0.99928  0.96300  1.0000
  C   C3573     1.0  0.60024  0.27953  0.82992  1.0000
  C   C3574     1.0  0.66449  0.27703  0.77420  1.0000
  H   H2865     1.0  0.70220  0.18560  0.95429  1.0000
  C   C3575     1.0  0.52536  0.24142  0.85805  1.0000
  S   S510      1.0  0.95551  0.23624  0.96007  1.0000
  S   S511      1.0  0.73078  0.23703  0.95317  1.0000
  H   H2866     1.0  0.80502  0.29816  0.92715  1.0000
  C   C3576     1.0  0.82734  0.16915  0.90664  1.0000
  C   C3577     1.0  0.80940  0.19053  0.90832  1.0000
  C   C3578     1.0  0.80000  0.19682  0.92201  1.0000
  C   C3579     1.0  0.80863  0.18180  0.93410  1.0000
  C   C3580     1.0  0.82635  0.16032  0.93242  1.0000
  C   C3581     1.0  0.83575  0.15406  0.91877  1.0000
  H   H2867     1.0  0.80264  0.20221  0.89900  1.0000
  H   H2868     1.0  0.78612  0.21324  0.92322  1.0000
  H   H2869     1.0  0.83281  0.14840  0.94175  1.0000
  H   H2870     1.0  0.84942  0.13750  0.91766  1.0000
  H   H2871     1.0  0.93874  0.04490  0.72529  1.0000
  C   C3582     1.0  0.89696  0.01648  0.86986  1.0000
  C   C3583     1.0  0.88194  0.01406  0.88355  1.0000
  Fe  Fe259     1.0  0.74053  0.27371  0.95110  1.0000
  H   H2872     1.0  0.97844  0.99598  0.87650  1.0000
  H   H2873     1.0  0.90408  0.03313  0.86523  1.0000
  H   H2874     1.0  0.61795  0.07664  0.92057  1.0000
  C   C3584     1.0  0.91663  0.12511  0.82369  1.0000
  C   C3585     1.0  0.89098  0.13254  0.82521  1.0000
  C   C3586     1.0  0.88030  0.14246  0.81289  1.0000
  C   C3587     1.0  0.89519  0.14471  0.79906  1.0000
  C   C3588     1.0  0.92066  0.13644  0.79760  1.0000
  C   C3589     1.0  0.93125  0.12654  0.80986  1.0000
  H   H2875     1.0  0.87947  0.13133  0.83584  1.0000
  H   H2876     1.0  0.86053  0.14872  0.81409  1.0000
  H   H2877     1.0  0.93234  0.13818  0.78706  1.0000
  H   H2878     1.0  0.95100  0.12052  0.80861  1.0000
  C   C3590     1.0  0.50283  0.31047  0.87516  1.0000
  C   C3591     1.0  0.61647  0.24706  0.75369  1.0000
  H   H2879     1.0  0.80027  0.06600  0.90733  1.0000
  C   C3592     1.0  0.96685  0.17555  0.78384  1.0000
  C   C3593     1.0  0.80695  0.27340  0.91324  1.0000
  H   H2880     1.0  0.88107  0.27875  0.92161  1.0000
  H   H2881     1.0  0.75080  0.19451  0.79543  1.0000
  C   C3594     1.0  0.52515  0.29549  0.75650  1.0000
  C   C3595     1.0  0.71613  0.16891  0.95503  1.0000
  C   C3596     1.0  0.98155  0.26366  0.96810  1.0000
  C   C3597     1.0  0.84002  0.23757  0.91440  1.0000
  H   H2882     1.0  0.63325  0.06427  0.95774  1.0000
  C   C3598     1.0  0.64329  0.24445  0.83312  1.0000
  C   C3599     1.0  0.93689  0.00352  0.81110  1.0000
  C   C3600     1.0  0.74026  0.20085  0.75667  1.0000
  C   C3601     1.0  0.74795  0.19684  0.78454  1.0000
  C   C3602     1.0  0.76763  0.19919  0.77276  1.0000
  C   C3603     1.0  0.76375  0.20040  0.75887  1.0000
  P   P122      1.0  0.79821  0.19810  0.77549  1.0000
  C   C3604     1.0  0.81435  0.21704  0.76037  1.0000
  C   C3605     1.0  0.79782  0.21093  0.79080  1.0000
  C   C3606     1.0  0.77876  0.23025  0.79476  1.0000
  C   C3607     1.0  0.77887  0.24054  0.80641  1.0000
  C   C3608     1.0  0.79828  0.23197  0.81396  1.0000
  C   C3609     1.0  0.81772  0.21328  0.80978  1.0000
  C   C3610     1.0  0.81758  0.20291  0.79819  1.0000
  C   C3611     1.0  0.84017  0.21147  0.75661  1.0000
  C   C3612     1.0  0.85261  0.22645  0.74505  1.0000
  C   C3613     1.0  0.83945  0.24686  0.73707  1.0000
  C   C3614     1.0  0.81379  0.25281  0.74092  1.0000
  C   C3615     1.0  0.80129  0.23822  0.75268  1.0000
  C   C3616     1.0  0.81338  0.16620  0.77763  1.0000
  C   C3617     1.0  0.81218  0.15112  0.79139  1.0000
  C   C3618     1.0  0.82395  0.12642  0.79298  1.0000
  C   C3619     1.0  0.83643  0.11645  0.78085  1.0000
  C   C3620     1.0  0.83704  0.13114  0.76711  1.0000
  C   C3621     1.0  0.82547  0.15590  0.76549  1.0000
  H   H2883     1.0  0.77883  0.20103  0.74965  1.0000
  H   H2884     1.0  0.76399  0.23755  0.78877  1.0000
  H   H2885     1.0  0.76400  0.25529  0.80954  1.0000
  H   H2886     1.0  0.79843  0.24001  0.82295  1.0000
  H   H2887     1.0  0.83307  0.18876  0.79494  1.0000
  H   H2888     1.0  0.85073  0.19542  0.76247  1.0000
  H   H2889     1.0  0.87245  0.22184  0.74189  1.0000
  C   C3622     1.0  0.87272  0.22471  0.78300  1.0000
  H   H2890     1.0  0.58478  0.24402  0.74661  1.0000
  H   H2891     1.0  0.78143  0.24332  0.75558  1.0000
  H   H2892     1.0  0.80235  0.15841  0.80091  1.0000
  H   H2893     1.0  0.82354  0.11502  0.80363  1.0000
  C   C3623     1.0  0.91008  0.03916  0.78577  1.0000
  H   H2894     1.0  0.84666  0.12341  0.75769  1.0000
  H   H2895     1.0  0.82606  0.16700  0.75479  1.0000
  H   H2896     1.0  0.55834  0.30858  0.96530  1.0000
  H   H2897     1.0  0.75124  0.07322  0.94782  1.0000
  H   H2898     1.0  0.95322  0.14415  0.88410  1.0000
  C   C3624     1.0  0.84247  0.22408  0.95918  1.0000
  C   C3625     1.0  0.86595  0.22791  0.95160  1.0000
  C   C3626     1.0  0.88215  0.23304  0.95886  1.0000
  C   C3627     1.0  0.88177  0.19638  0.92930  1.0000
  C   C3628     1.0  0.89341  0.19194  0.91547  1.0000
  C   C3629     1.0  0.90045  0.16797  0.91291  1.0000
  C   C3630     1.0  0.89623  0.14822  0.92416  1.0000
  C   C3631     1.0  0.88461  0.15246  0.93795  1.0000
  C   C3632     1.0  0.87725  0.17645  0.94052  1.0000
  C   C3633     1.0  0.92488  0.22623  0.92426  1.0000
  C   C3634     1.0  0.94583  0.23666  0.91898  1.0000
  C   C3635     1.0  0.95579  0.17850  0.81301  1.0000
  H   H2899     1.0  0.81277  0.24497  0.90110  1.0000
  H   H2900     1.0  0.63841  0.16394  0.96531  1.0000
  H   H2901     1.0  0.90052  0.23578  0.95341  1.0000
  H   H2902     1.0  0.90936  0.16464  0.90223  1.0000
  H   H2903     1.0  0.90193  0.12963  0.92216  1.0000
  H   H2904     1.0  0.88110  0.13715  0.94662  1.0000
  H   H2905     1.0  0.86815  0.17929  0.95126  1.0000
  H   H2906     1.0  0.92733  0.20652  0.92794  1.0000
  C   C3636     1.0  0.51113  0.01995  0.92690  1.0000
  C   C3637     1.0  0.65584  0.17606  0.88438  1.0000
  C   C3638     1.0  0.66821  0.18868  0.87168  1.0000
  C   C3639     1.0  0.68358  0.20389  0.87234  1.0000
  C   C3640     1.0  0.68634  0.20666  0.88572  1.0000
  C   C3641     1.0  0.67322  0.19472  0.89853  1.0000
  C   C3642     1.0  0.65844  0.17888  0.89779  1.0000
  P   P123      1.0  0.67828  0.19724  0.91565  1.0000
  C   C3643     1.0  0.65219  0.19181  0.92998  1.0000
  C   C3644     1.0  0.70635  0.17504  0.91783  1.0000
  C   C3645     1.0  0.70538  0.15012  0.92305  1.0000
  C   C3646     1.0  0.72708  0.13253  0.92390  1.0000
  C   C3647     1.0  0.74997  0.13956  0.91902  1.0000
  C   C3648     1.0  0.75117  0.16416  0.91332  1.0000
  C   C3649     1.0  0.72948  0.18184  0.91260  1.0000
  C   C3650     1.0  0.65564  0.17743  0.94347  1.0000
  C   C3651     1.0  0.63557  0.17508  0.95491  1.0000
  C   C3652     1.0  0.57600  0.10686  0.97238  1.0000
  C   C3653     1.0  0.60821  0.20186  0.93967  1.0000
  C   C3654     1.0  0.62829  0.20420  0.92820  1.0000
  C   C3655     1.0  0.68057  0.22859  0.91460  1.0000
  C   C3656     1.0  0.66570  0.24784  0.90672  1.0000
  C   C3657     1.0  0.66854  0.27206  0.90480  1.0000
  C   C3658     1.0  0.68586  0.27728  0.91103  1.0000
  C   C3659     1.0  0.69965  0.25845  0.91966  1.0000
  C   C3660     1.0  0.69681  0.23417  0.92161  1.0000
  H   H2907     1.0  0.64436  0.16388  0.88383  1.0000
  H   H2908     1.0  0.66587  0.18659  0.86135  1.0000
  H   H2909     1.0  0.69307  0.21380  0.86252  1.0000
  H   H2910     1.0  0.69855  0.21831  0.88605  1.0000
  H   H2911     1.0  0.64912  0.16852  0.90752  1.0000
  H   H2912     1.0  0.68788  0.14415  0.92626  1.0000
  H   H2913     1.0  0.72606  0.11341  0.92821  1.0000
  H   H2914     1.0  0.76681  0.12598  0.91950  1.0000
  H   H2915     1.0  0.76899  0.16944  0.90934  1.0000
  H   H2916     1.0  0.73091  0.20063  0.90766  1.0000
  H   H2917     1.0  0.67380  0.16820  0.94523  1.0000
  H   H2918     1.0  0.95801  0.10248  0.96857  1.0000
  H   H2919     1.0  0.76178  0.05865  0.92479  1.0000
  H   H2920     1.0  0.65119  0.24933  0.75788  1.0000
  H   H2921     1.0  0.62520  0.21599  0.91803  1.0000
  H   H2922     1.0  0.65219  0.24413  0.90180  1.0000
  H   H2923     1.0  0.65761  0.28682  0.89830  1.0000
  H   H2924     1.0  0.68840  0.29603  0.90928  1.0000
  H   H2925     1.0  0.71260  0.26283  0.92476  1.0000
  H   H2926     1.0  0.70752  0.21987  0.92841  1.0000
  C   C3661     1.0  0.87178  0.26650  0.78450  1.0000
  H   H2927     1.0  0.96192  0.01541  0.79148  1.0000
  C   C3662     1.0  0.50676  0.25308  0.95598  1.0000
  H   H2928     1.0  0.56981  0.14624  0.96558  1.0000
  H   H2929     1.0  0.53859  0.14237  0.84820  1.0000
  C   C3663     1.0  0.97020  0.12704  0.91680  1.0000
  H   H2930     1.0  0.56981  0.21174  0.74505  1.0000
  H   H2931     1.0  0.68510  0.28971  0.94548  1.0000
  H   H2932     1.0  0.58981  0.21149  0.93826  1.0000
  H   H2933     1.0  0.96455  0.01450  0.74024  1.0000
  H   H2934     1.0  0.98913  0.14743  0.92513  1.0000
  S   S512      1.0  0.94843  0.09970  0.90577  1.0000
  C   C3664     1.0  0.57323  0.15749  0.73575  1.0000
  H   H2935     1.0  0.53211  0.18706  0.84463  1.0000
  H   H2936     1.0  0.58505  0.10557  0.93189  1.0000
  H   H2937     1.0  0.53597  0.14760  0.80379  1.0000
  H   H2938     1.0  0.59773  0.00661  0.96896  1.0000
  H   H2939     1.0  0.98367  0.30307  0.93714  1.0000
  H   H2940     1.0  0.73454  0.19839  0.82730  1.0000
  C   C3665     1.0  0.64493  0.26751  0.82420  1.0000
  H   H2941     1.0  0.51146  0.13829  0.91130  1.0000
  C   C3666     1.0  0.81515  0.28152  0.92335  1.0000
  C   C3667     1.0  0.53523  0.15635  0.81265  1.0000
  C   C3668     1.0  0.68065  0.29920  0.72611  1.0000
  H   H2942     1.0  0.93297  0.23870  0.83243  1.0000
  C   C3669     1.0  0.54145  0.27670  0.76356  1.0000
  C   C3670     1.0  0.66024  0.27798  0.78879  1.0000
  C   C3671     1.0  0.50427  0.02001  0.94166  1.0000
  H   H2943     1.0  0.94001  0.20874  0.78080  1.0000
  C   C3672     1.0  0.57690  0.12800  0.94770  1.0000
  H   H2944     1.0  0.64179  0.28533  0.79397  1.0000
  H   H2945     1.0  0.97557  0.10382  0.85262  1.0000
  C   C3673     1.0  0.65570  0.23872  0.73758  1.0000
  C   C3674     1.0  0.81106  0.08532  0.92051  1.0000
  H   H2946     1.0  0.89786  0.06941  0.83238  1.0000
  H   H2947     1.0  0.96969  0.11248  0.92622  1.0000
  C   C3675     1.0  0.59877  0.25660  0.83871  1.0000
  C   C3676     1.0  0.89896  0.26672  0.92079  1.0000
  H   H2948     1.0  0.58102  0.25271  0.84466  1.0000
  H   H2949     1.0  0.56587  0.14080  0.73980  1.0000
  C   C3677     1.0  0.83563  0.26760  0.92911  1.0000
  C   C3678     1.0  0.49440  0.14488  0.91819  1.0000
  H   H2950     1.0  0.53831  0.06410  0.95546  1.0000
  H   H2951     1.0  0.88258  0.16206  0.84983  1.0000
  C   C3679     1.0  0.72055  0.19943  0.76838  1.0000
  H   H2952     1.0  0.67603  0.04180  0.95774  1.0000
  C   C3680     1.0  0.96339  0.28025  0.80835  1.0000
  C   C3681     1.0  0.96023  0.27550  0.79556  1.0000
  H   H2953     1.0  0.90572  0.30583  0.94774  1.0000
  C   C3682     1.0  0.88654  0.23043  0.83466  1.0000
  C   C3683     1.0  0.62026  0.23906  0.84033  1.0000
  C   C3684     1.0  0.53661  0.15340  0.83764  1.0000
  C   C3685     1.0  0.53289  0.17897  0.83554  1.0000
  C   C3686     1.0  0.53006  0.19350  0.82196  1.0000
  C   C3687     1.0  0.53151  0.18192  0.81048  1.0000
  S   S513      1.0  0.73209  0.30605  0.93314  1.0000
  C   C3688     1.0  0.63356  0.26517  0.96876  1.0000
  C   C3689     1.0  0.56669  0.17589  0.74390  1.0000
  C   C3690     1.0  0.70595  0.26416  0.83450  1.0000
  H   H2954     1.0  0.72954  0.25574  0.85002  1.0000
  H   H2955     1.0  0.98011  0.00787  0.92646  1.0000
  S   S514      1.0  0.51653  0.21543  0.76462  1.0000
  C   C3691     1.0  0.53264  0.23437  0.84463  1.0000
  C   C3692     1.0  0.72670  0.21684  0.82919  1.0000
  C   C3693     1.0  0.70383  0.26294  0.78885  1.0000
  C   C3694     1.0  0.97918  0.15771  0.79358  1.0000
  H   H2956     1.0  0.94795  0.04398  0.91948  1.0000
  S   S515      1.0  0.93474  0.08877  0.73556  1.0000
  C   C3695     1.0  0.55287  0.23751  0.80979  1.0000
  C   C3696     1.0  0.57191  0.22312  0.80150  1.0000
  C   C3697     1.0  0.59336  0.23191  0.79423  1.0000
  C   C3698     1.0  0.59585  0.25521  0.79505  1.0000
  C   C3699     1.0  0.57698  0.26968  0.80321  1.0000
  C   C3700     1.0  0.55566  0.26085  0.81064  1.0000
  C   C3701     1.0  0.50469  0.31028  0.86059  1.0000
  H   H2957     1.0  0.94820  0.28395  0.93963  1.0000
  H   H2958     1.0  0.52955  0.19267  0.79985  1.0000
  C   C3702     1.0  0.61183  0.18725  0.95299  1.0000
  C   C3703     1.0  0.89913  0.18777  0.83239  1.0000
  H   H2959     1.0  0.62385  0.30268  0.81564  1.0000
  H   H2960     1.0  0.53894  0.23929  0.86465  1.0000
  H   H2961     1.0  0.55189  0.22663  0.84103  1.0000
  H   H2962     1.0  0.77795  0.14936  0.94574  1.0000
  H   H2963     1.0  0.98035  0.14554  0.83992  1.0000
  H   H2964     1.0  0.95199  0.17951  0.82430  1.0000
  C   C3704     1.0  0.57186  0.04474  0.92659  1.0000
  C   C3705     1.0  0.69829  0.25576  0.82417  1.0000
  H   H2965     1.0  0.57032  0.20517  0.80053  1.0000
  C   C3706     1.0  0.87450  0.23526  0.97333  1.0000
  C   C3707     1.0  0.50129  0.23952  0.80818  1.0000
  H   H2966     1.0  0.57878  0.28789  0.80371  1.0000
  H   H2967     1.0  0.54121  0.27243  0.81687  1.0000
  H   H2968     1.0  0.96703  0.24853  0.76324  1.0000
  H   H2969     1.0  0.95985  0.27007  0.91092  1.0000
  C   C3708     1.0  0.50057  0.25089  0.86306  1.0000
  C   C3709     1.0  0.94272  0.19611  0.80335  1.0000
  C   C3710     1.0  0.53856  0.25219  0.76601  1.0000
  C   C3711     1.0  0.96068  0.14496  0.89316  1.0000
  C   C3712     1.0  0.94895  0.19488  0.78863  1.0000
  H   H2970     1.0  0.91663  0.98511  0.83089  1.0000
  P   P124      1.0  0.67447  0.27485  0.81468  1.0000
  H   H2971     1.0  0.89668  0.11031  0.77850  1.0000
  S   S516      1.0  0.98977  0.18012  0.94473  1.0000
  C   C3713     1.0  0.93824  0.00455  0.90116  1.0000
  C   C3714     1.0  0.95241  0.19055  0.85602  1.0000
  C   C3715     1.0  0.52249  0.26850  0.94727  1.0000
  C   C3716     1.0  0.91242  0.05140  0.79613  1.0000
  H   H2972     1.0  0.71942  0.25856  0.79416  1.0000
  H   H2973     1.0  0.86484  0.28601  0.78151  1.0000
  C   C3717     1.0  0.97783  0.21764  0.75255  1.0000
  C   C3718     1.0  0.70858  0.23182  0.82174  1.0000
  C   C3719     1.0  0.94632  0.04485  0.83136  1.0000
  C   C3720     1.0  0.89312  0.03682  0.82641  1.0000
  C   C3721     1.0  0.93990  0.24926  0.82209  1.0000
  C   C3722     1.0  0.80048  0.12666  0.97084  1.0000
  C   C3723     1.0  0.67982  0.27072  0.79630  1.0000
  H   H2974     1.0  0.54042  0.12228  0.82796  1.0000
  C   C3724     1.0  0.79561  0.07244  0.91744  1.0000
  S   S517      1.0  0.66570  0.30962  0.86363  1.0000
  H   H2975     1.0  0.90912  0.17366  0.82636  1.0000
  C   C3725     1.0  0.95313  0.26722  0.82161  1.0000
  C   C3726     1.0  0.60543  0.28531  0.95246  1.0000
  H   H2976     1.0  0.86151  0.99011  0.90008  1.0000
  C   C3727     1.0  0.61821  0.23518  0.73103  1.0000
  H   H2977     1.0  0.57507  0.14504  0.93987  1.0000
  C   C3728     1.0  0.95606  0.98755  0.75941  1.0000
  H   H2978     1.0  0.83477  0.03987  0.85693  1.0000
  C   C3729     1.0  0.78416  0.08845  0.94377  1.0000
  H   H2979     1.0  0.98307  0.14509  0.81565  1.0000
  C   C3730     1.0  0.57379  0.12871  0.96224  1.0000
  H   H2980     1.0  0.60994  0.30327  0.91552  1.0000
  C   C3731     1.0  0.82549  0.08942  0.96343  1.0000
  H   H2981     1.0  0.81707  0.10421  0.93549  1.0000
  H   H2982     1.0  0.69112  0.00349  0.94805  1.0000
  H   H2983     1.0  0.88692  0.24967  0.83038  1.0000
  H   H2984     1.0  0.91348  0.99986  0.85133  1.0000
  C   C3732     1.0  0.54481  0.04664  0.96206  1.0000
  H   H2985     1.0  0.61399  0.08063  0.89547  1.0000
  H   H2986     1.0  0.95832  0.06260  0.79475  1.0000
  C   C3733     1.0  0.64388  0.23391  0.72782  1.0000
  C   C3734     1.0  0.80268  0.10578  0.96508  1.0000
  C   C3735     1.0  0.64345  0.24689  0.96058  1.0000
  P   P125      1.0  0.92117  0.03448  0.81291  1.0000
  C   C3736     1.0  0.57048  0.04611  0.91226  1.0000
  C   C3737     1.0  0.97151  0.16486  0.89264  1.0000
  C   C3738     1.0  0.90105  0.21240  0.82694  1.0000
  C   C3739     1.0  0.67323  0.30686  0.81429  1.0000
  C   C3740     1.0  0.95951  0.06050  0.80593  1.0000
  C   C3741     1.0  0.89797  0.23272  0.79757  1.0000
  H   H2987     1.0  0.49288  0.25933  0.96472  1.0000
  C   C3742     1.0  0.65649  0.31003  0.73172  1.0000
  H   H2988     1.0  0.78302  0.13931  0.97266  1.0000
  C   C3743     1.0  0.88384  0.18115  0.84564  1.0000
  C   C3744     1.0  0.72400  0.24911  0.84197  1.0000
  C   C3745     1.0  0.88660  0.05569  0.83440  1.0000
  C   C3746     1.0  0.61493  0.26656  0.94451  1.0000
  H   H2989     1.0  0.90791  0.08699  0.80161  1.0000
  C   C3747     1.0  0.65628  0.00369  0.94302  1.0000
  H   H2990     1.0  0.56467  0.26510  0.97084  1.0000
  C   C3748     1.0  0.64202  0.24523  0.75051  1.0000
  C   C3749     1.0  0.90039  0.09046  0.78057  1.0000
  H   H2991     1.0  0.64217  0.23369  0.94204  1.0000
  C   C3750     1.0  0.86390  0.24986  0.77904  1.0000
  H   H2992     1.0  0.64936  0.28355  0.76841  1.0000
  H   H2993     1.0  0.73751  0.20205  0.74584  1.0000
  H   H2994     1.0  0.61227  0.26219  0.78926  1.0000
  C   C3751     1.0  0.95052  0.23761  0.86027  1.0000
  C   C3752     1.0  0.92922  0.22759  0.86442  1.0000
  C   C3753     1.0  0.93015  0.20416  0.86218  1.0000
  H   H2995     1.0  0.94985  0.25574  0.86210  1.0000
  H   H2996     1.0  0.91204  0.23790  0.86946  1.0000
  H   H2997     1.0  0.91369  0.19627  0.86549  1.0000
  C   C3754     1.0  0.58944  0.29282  0.90274  1.0000
  H   H2998     1.0  0.85810  0.19389  0.86371  1.0000
  C   C3755     1.0  0.51094  0.99872  0.95167  1.0000
  C   C3756     1.0  0.95683  0.99811  0.74485  1.0000
  C   C3757     1.0  0.58530  0.08335  0.95333  1.0000
  S   S518      1.0  0.52841  0.15883  0.87759  1.0000
  P   P126      1.0  0.59183  0.05381  0.94808  1.0000
  C   C3758     1.0  0.62320  0.03795  0.94854  1.0000
  C   C3759     1.0  0.51515  0.23674  0.83611  1.0000
  H   H2999     1.0  0.69789  0.28215  0.83705  1.0000
  C   C3760     1.0  0.87707  0.02050  0.82869  1.0000
  H   H3000     1.0  0.65964  0.23074  0.83479  1.0000
  C   C3761     1.0  0.68830  0.26884  0.76693  1.0000
  C   C3762     1.0  0.68192  0.30645  0.93759  1.0000
  C   C3763     1.0  0.63930  0.04731  0.95371  1.0000
  C   C3764     1.0  0.66369  0.03475  0.95360  1.0000
  C   C3765     1.0  0.67221  0.01308  0.94819  1.0000
  C   C3766     1.0  0.89889  0.07820  0.77012  1.0000
  C   C3767     1.0  0.63189  0.01612  0.94314  1.0000
  C   C3768     1.0  0.58845  0.05641  0.92977  1.0000
  C   C3769     1.0  0.60421  0.06851  0.91839  1.0000
  C   C3770     1.0  0.60227  0.07046  0.90411  1.0000
  H   H3001     1.0  0.58379  0.06091  0.88995  1.0000
  C   C3771     1.0  0.76825  0.07627  0.94039  1.0000
  C   C3772     1.0  0.57588  0.19756  0.73867  1.0000
  C   C3773     1.0  0.81945  0.25151  0.90872  1.0000
  H   H3002     1.0  0.70922  0.19560  0.79140  1.0000
  C   C3774     1.0  0.62316  0.28487  0.82254  1.0000
  H   H3003     1.0  0.95590  0.27074  0.83149  1.0000
  H   H3004     1.0  0.96420  0.05455  0.84576  1.0000
  H   H3005     1.0  0.60564  0.25308  0.76342  1.0000
  H   H3006     1.0  0.60507  0.28015  0.89812  1.0000
  H   H3007     1.0  0.88089  0.00660  0.82220  1.0000
  C   C3775     1.0  0.62076  0.30059  0.86302  1.0000
  P   P127      1.0  0.52480  0.22667  0.81903  1.0000
  C   C3776     1.0  0.93084  0.98306  0.82146  1.0000
  H   H3008     1.0  0.96866  0.28520  0.78526  1.0000
  H   H3009     1.0  0.72190  0.10764  0.96818  1.0000
  H   H3010     1.0  0.86675  0.21174  0.77878  1.0000
  H   H3011     1.0  0.91334  0.01932  0.78766  1.0000
  C   C3777     1.0  0.88939  0.21613  0.79238  1.0000
  H   H3012     1.0  0.78297  0.04519  0.96524  1.0000
  H   H3013     1.0  0.97182  0.17951  0.88330  1.0000
  C   C3778     1.0  0.57018  0.03670  0.96059  1.0000
  H   H3014     1.0  0.64346  0.30639  0.93957  1.0000
  H   H3015     1.0  0.94489  0.25400  0.78601  1.0000
  H   H3016     1.0  0.86023  0.23768  0.85392  1.0000
  C   C3779     1.0  0.87307  0.99217  0.88947  1.0000
  H   H3017     1.0  0.82742  0.07283  0.95942  1.0000
  H   H3018     1.0  0.79054  0.28384  0.90920  1.0000
  C   C3780     1.0  0.96020  0.12585  0.90520  1.0000
  C   C3781     1.0  0.84386  0.11572  0.97213  1.0000
  H   H3019     1.0  0.96391  0.22493  0.91842  1.0000
  C   C3782     1.0  0.59213  0.30562  0.91264  1.0000
  H   H3020     1.0  0.89420  0.08860  0.75994  1.0000
  H   H3021     1.0  0.55408  0.17359  0.75421  1.0000
  C   C3783     1.0  0.63412  0.24758  0.94848  1.0000
  C   C3784     1.0  0.96838  0.00688  0.91942  1.0000
  H   H3022     1.0  0.70238  0.19964  0.76663  1.0000
  H   H3023     1.0  0.56488  0.28672  0.89087  1.0000
  C   C3785     1.0  0.50409  0.08500  0.88578  1.0000
  C   C3786     1.0  0.61438  0.28450  0.96488  1.0000
  C   C3787     1.0  0.97574  0.99013  0.85604  1.0000
  C   C3788     1.0  0.70943  0.14632  0.96172  1.0000
  H   H3024     1.0  0.90261  0.04318  0.76452  1.0000
  H   H3025     1.0  0.72648  0.25581  0.76851  1.0000
  C   C3789     1.0  0.86999  0.19911  0.85345  1.0000
  H   H3026     1.0  0.92653  0.00408  0.89398  1.0000
  C   C3790     1.0  0.93512  0.02593  0.90649  1.0000
  C   C3791     1.0  0.93633  0.24468  0.80927  1.0000
  C   C3792     1.0  0.80525  0.09357  0.93355  1.0000
  C   C3793     1.0  0.75890  0.14846  0.95042  1.0000
  C   C3794     1.0  0.74086  0.16988  0.94916  1.0000
  C   C3795     1.0  0.94682  0.25775  0.79602  1.0000
  P   P128      1.0  0.77629  0.09911  0.96059  1.0000
  C   C3796     1.0  0.88870  0.25799  0.79379  1.0000
  C   C3797     1.0  0.49383  0.10537  0.87639  1.0000
  H   H3027     1.0  0.85383  0.17709  0.73184  1.0000
  C   C3798     1.0  0.77406  0.06815  0.92730  1.0000
  C   C3799     1.0  0.72751  0.12495  0.96311  1.0000
  H   H3028     1.0  0.49497  0.25600  0.87356  1.0000
  H   H3029     1.0  0.74626  0.18719  0.94372  1.0000
  H   H3030     1.0  0.59629  0.18549  0.96186  1.0000
  H   H3031     1.0  0.86367  0.08197  0.96535  1.0000
  C   C3800     1.0  0.57827  0.01438  0.96950  1.0000
  H   H3032     1.0  0.55781  0.03700  0.90981  1.0000
  C   C3801     1.0  0.75249  0.12609  0.95797  1.0000
  H   H3033     1.0  0.69581  0.30038  0.73066  1.0000
  C   C3802     1.0  0.87126  0.22376  0.84793  1.0000
  H   H3034     1.0  0.51802  0.26899  0.89830  1.0000
  H   H3035     1.0  0.85097  0.25638  0.77174  1.0000
  C   C3803     1.0  0.90365  0.05257  0.77272  1.0000
  C   C3804     1.0  0.63697  0.30854  0.72577  1.0000
  H   H3036     1.0  0.52963  0.07182  0.90025  1.0000
  C   C3805     1.0  0.95840  0.25888  0.96858  1.0000
  C   C3806     1.0  0.52187  0.08739  0.89289  1.0000
  H   H3037     1.0  0.91820  0.29687  0.91262  1.0000
  H   H3038     1.0  0.70232  0.22462  0.81422  1.0000
  H   H3039     1.0  0.60787  0.26706  0.93505  1.0000
  C   C3807     1.0  0.96328  0.05576  0.83462  1.0000
  H   H3040     1.0  0.53035  0.99878  0.91063  1.0000
  C   C3808     1.0  0.50902  0.22945  0.95338  1.0000
  H   H3041     1.0  0.69024  0.14522  0.96584  1.0000
  H   H3042     1.0  0.95242  0.17238  0.85470  1.0000
  H   H3043     1.0  0.97116  0.17429  0.77255  1.0000
  H   H3044     1.0  0.56023  0.03429  0.93503  1.0000
  C   C3809     1.0  0.56674  0.29683  0.89850  1.0000
  C   C3810     1.0  0.58197  0.08425  0.96797  1.0000
  H   H3045     1.0  0.50184  0.00555  0.88521  1.0000
  C   C3811     1.0  0.95648  0.99987  0.79942  1.0000
  H   H3046     1.0  0.69126  0.31531  0.79186  1.0000
  H   H3047     1.0  0.49818  0.11130  0.81717  1.0000
  C   C3812     1.0  0.84604  0.09449  0.96683  1.0000
  C   C3813     1.0  0.97365  0.15917  0.80814  1.0000
  H   H3048     1.0  0.84461  0.00803  0.84195  1.0000
  H   H3049     1.0  0.65433  0.30530  0.83642  1.0000
  H   H3050     1.0  0.72243  0.99402  0.96351  1.0000
  S   S519      1.0  0.50011  0.12864  0.73765  1.0000
  H   H3051     1.0  0.99115  0.07781  0.82613  1.0000
  C   C3814     1.0  0.50082  0.26284  0.79927  1.0000
  H   H3052     1.0  0.59212  0.30074  0.94839  1.0000
  H   H3053     1.0  0.67542  0.23817  0.73483  1.0000
  C   C3815     1.0  0.95608  0.98388  0.90519  1.0000
  C   C3816     1.0  0.92120  0.31476  0.94609  1.0000
  C   C3817     1.0  0.83496  0.22623  0.97364  1.0000
  H   H3054     1.0  0.65861  0.23240  0.96355  1.0000
  C   C3818     1.0  0.50046  0.29817  0.91021  1.0000
  H   H3055     1.0  0.49513  0.23849  0.91489  1.0000
  C   C3819     1.0  0.94517  0.30243  0.94155  1.0000
  H   H3056     1.0  0.50563  0.03634  0.91913  1.0000
  H   H3057     1.0  0.49357  0.03657  0.94532  1.0000
  H   H3058     1.0  0.98870  0.22355  0.82302  1.0000
  C   C3820     1.0  0.50323  0.26513  0.75433  1.0000
  H   H3059     1.0  0.98909  0.23223  0.85098  1.0000
  H   H3060     1.0  0.98845  0.08127  0.80063  1.0000
  C   C3821     1.0  0.98973  0.13696  0.84882  1.0000
  C   C3822     1.0  0.50094  0.98633  0.88912  1.0000
  C   C3823     1.0  0.98691  0.11325  0.85604  1.0000
  H   H3061     1.0  0.49338  0.14347  0.86673  1.0000
  C   C3824     1.0  0.97843  0.06891  0.82356  1.0000
  H   H3062     1.0  0.80999  0.17730  0.73235  1.0000
  C   C3825     1.0  0.98104  0.14695  0.91626  1.0000
  H   H3063     1.0  0.96616  0.06291  0.96035  1.0000
  H   H3064     1.0  0.98366  0.00582  0.85000  1.0000
  H   H3065     1.0  0.79259  0.30540  0.97053  1.0000
  C   C3826     1.0  0.97906  0.07522  0.95610  1.0000
  C   C3827     1.0  0.97444  0.09748  0.96072  1.0000
  H   H3066     1.0  0.98809  0.13001  0.95938  1.0000
  C   C3828     1.0  0.52774  0.03427  0.97217  1.0000
  C   C3829     1.0  0.96531  0.31331  0.94027  1.0000
  H   H3067     1.0  0.52289  0.15326  0.97295  1.0000
  C   C3830     1.0  0.99128  0.11317  0.95541  1.0000
  H   H3068     1.0  0.50821  0.04212  0.97332  1.0000
  H   H3069     1.0  0.49483  0.19701  0.86382  1.0000
  H   H3070     1.0  0.49650  0.21784  0.95992  1.0000
  H   H3071     1.0  0.95162  0.27086  0.72484  1.0000
  C   C3831     1.0  0.65822  0.31594  0.93427  1.0000
  C   C3832     1.0  0.59180  0.20109  0.72519  1.0000
  S   S520      1.0  0.72681  0.27616  0.97437  1.0000
  Fe  Fe260     1.0  0.92785  0.34268  0.99692  1.0000
  Fe  Fe261     1.0  0.89898  0.39563  0.99553  1.0000
  S   S521      1.0  0.86529  0.38314  0.00998  1.0000
  C   C3833     1.0  0.90566  0.48149  0.98269  1.0000
  C   C3834     1.0  0.52201  0.56600  0.18599  1.0000
  H   H3072     1.0  0.56978  0.49708  0.14706  1.0000
  Fe  Fe262     1.0  0.87260  0.35355  0.99690  1.0000
  H   H3073     1.0  0.60129  0.34535  0.17206  1.0000
  S   S522      1.0  0.92534  0.37174  0.00940  1.0000
  H   H3074     1.0  0.92772  0.39768  0.17288  1.0000
  S   S523      1.0  0.84511  0.34862  0.98465  1.0000
  P   P129      1.0  0.96374  0.39289  0.10016  1.0000
  Fe  Fe263     1.0  0.91824  0.55690  0.00150  1.0000
  S   S524      1.0  0.89005  0.57483  0.01820  1.0000
  H   H3075     1.0  0.71631  0.38341  0.16892  1.0000
  S   S525      1.0  0.89758  0.62798  0.99850  1.0000
  Fe  Fe264     1.0  0.91565  0.60058  0.01547  1.0000
  S   S526      1.0  0.92132  0.60590  0.03673  1.0000
  Fe  Fe265     1.0  0.87481  0.60040  0.99966  1.0000
  H   H3076     1.0  0.92902  0.46453  0.01868  1.0000
  S   S527      1.0  0.94497  0.58133  0.99977  1.0000
  C   C3835     1.0  0.52860  0.33589  0.07241  1.0000
  C   C3836     1.0  0.85329  0.53696  0.01489  1.0000
  Fe  Fe266     1.0  0.52907  0.41209  0.16245  1.0000
  C   C3837     1.0  0.62841  0.46459  0.15900  1.0000
  H   H3077     1.0  0.69957  0.32485  0.20401  1.0000
  C   C3838     1.0  0.97877  0.41124  0.18345  1.0000
  H   H3078     1.0  0.84560  0.44482  0.00420  1.0000
  H   H3079     1.0  0.94792  0.54823  0.16075  1.0000
  S   S528      1.0  0.53985  0.42013  0.18131  1.0000
  Fe  Fe267     1.0  0.50827  0.61955  0.09685  1.0000
  H   H3080     1.0  0.96266  0.48881  0.10802  1.0000
  C   C3839     1.0  0.98223  0.42782  0.10781  1.0000
  C   C3840     1.0  0.98666  0.54319  0.01726  1.0000
  C   C3841     1.0  0.63282  0.32429  0.18098  1.0000
  C   C3842     1.0  0.52591  0.60876  0.98873  1.0000
  H   H3081     1.0  0.65599  0.60160  0.13731  1.0000
  H   H3082     1.0  0.50365  0.34614  0.21104  1.0000
  H   H3083     1.0  0.81619  0.39628  0.21724  1.0000
  C   C3843     1.0  0.88050  0.49007  0.20277  1.0000
  S   S529      1.0  0.51735  0.57843  0.09863  1.0000
  C   C3844     1.0  0.97278  0.49255  0.21658  1.0000
  C   C3845     1.0  0.80755  0.55227  0.00630  1.0000
  H   H3084     1.0  0.93559  0.52937  0.12080  1.0000
  C   C3846     1.0  0.50619  0.50489  0.15496  1.0000
  C   C3847     1.0  0.95093  0.45023  0.17775  1.0000
  H   H3085     1.0  0.52455  0.39466  0.07559  1.0000
  C   C3848     1.0  0.60175  0.58154  0.14588  1.0000
  C   C3849     1.0  0.97301  0.44252  0.19742  1.0000
  H   H3086     1.0  0.97304  0.54142  0.12336  1.0000
  C   C3850     1.0  0.95604  0.32146  0.06755  1.0000
  H   H3087     1.0  0.92348  0.52456  0.20156  1.0000
  H   H3088     1.0  0.88008  0.61583  0.08504  1.0000
  H   H3089     1.0  0.82612  0.58176  0.20276  1.0000
  C   C3851     1.0  0.85307  0.34072  0.10503  1.0000
  C   C3852     1.0  0.95646  0.45796  0.18905  1.0000
  C   C3853     1.0  0.81637  0.32374  0.97678  1.0000
  H   H3090     1.0  0.98359  0.60964  0.00132  1.0000
  C   C3854     1.0  0.92242  0.46936  0.00864  1.0000
  H   H3091     1.0  0.49519  0.40236  0.05937  1.0000
  H   H3092     1.0  0.51377  0.46674  0.16523  1.0000
  C   C3855     1.0  0.51451  0.34743  0.02663  1.0000
  H   H3093     1.0  0.99023  0.43168  0.13875  1.0000
  C   C3856     1.0  0.53614  0.63761  0.15538  1.0000
  C   C3857     1.0  0.50386  0.55382  0.02906  1.0000
  H   H3094     1.0  0.92210  0.32742  0.20003  1.0000
  H   H3095     1.0  0.87228  0.39016  0.08665  1.0000
  H   H3096     1.0  0.55738  0.63900  0.05694  1.0000
  H   H3097     1.0  0.51392  0.37338  0.13164  1.0000
  C   C3858     1.0  0.81042  0.55736  0.01910  1.0000
  H   H3098     1.0  0.71373  0.53733  0.20439  1.0000
  H   H3099     1.0  0.83562  0.55396  0.03318  1.0000
  H   H3100     1.0  0.79511  0.56774  0.02553  1.0000
  H   H3101     1.0  0.94171  0.56797  0.21565  1.0000
  C   C3859     1.0  0.91140  0.33251  0.07000  1.0000
  H   H3102     1.0  0.82305  0.34692  0.09384  1.0000
  C   C3860     1.0  0.60105  0.37602  0.20883  1.0000
  H   H3103     1.0  0.58244  0.37596  0.20806  1.0000
  C   C3861     1.0  0.51082  0.47078  0.14314  1.0000
  H   H3104     1.0  0.58264  0.50657  0.18359  1.0000
  C   C3862     1.0  0.53308  0.35552  0.07691  1.0000
  C   C3863     1.0  0.56617  0.55857  0.17692  1.0000
  H   H3105     1.0  0.94139  0.35261  0.17763  1.0000
  C   C3864     1.0  0.51061  0.47951  0.15540  1.0000
  S   S530      1.0  0.93001  0.51541  0.00751  1.0000
  H   H3106     1.0  0.99141  0.32696  0.15339  1.0000
  C   C3865     1.0  0.69915  0.33370  0.19290  1.0000
  H   H3107     1.0  0.52373  0.33739  0.03538  1.0000
  H   H3108     1.0  0.91222  0.40325  0.11537  1.0000
  H   H3109     1.0  0.61112  0.61749  0.13925  1.0000
  C   C3866     1.0  0.82830  0.44997  0.19044  1.0000
  H   H3110     1.0  0.93522  0.61083  0.06196  1.0000
  C   C3867     1.0  0.91239  0.39721  0.10565  1.0000
  C   C3868     1.0  0.91543  0.45298  0.15922  1.0000
  H   H3111     1.0  0.91133  0.38048  0.06954  1.0000
  C   C3869     1.0  0.97154  0.37000  0.11583  1.0000
  H   H3112     1.0  0.78979  0.55859  0.00313  1.0000
  S   S531      1.0  0.90092  0.58055  0.98309  1.0000
  H   H3113     1.0  0.52236  0.35218  0.99045  1.0000
  H   H3114     1.0  0.50613  0.57328  0.19352  1.0000
  C   C3870     1.0  0.98788  0.59008  0.19021  1.0000
  C   C3871     1.0  0.83543  0.48301  0.99465  1.0000
  H   H3115     1.0  0.75267  0.51155  0.21103  1.0000
  H   H3116     1.0  0.59080  0.36111  0.97595  1.0000
  H   H3117     1.0  0.53079  0.57451  0.02915  1.0000
  C   C3872     1.0  0.83786  0.45782  0.99555  1.0000
  C   C3873     1.0  0.73028  0.54498  0.20168  1.0000
  C   C3874     1.0  0.95821  0.64934  0.19022  1.0000
  H   H3118     1.0  0.71709  0.36190  0.19423  1.0000
  C   C3875     1.0  0.70879  0.36687  0.17312  1.0000
  C   C3876     1.0  0.90724  0.45731  0.99059  1.0000
  C   C3877     1.0  0.91560  0.45132  0.00361  1.0000
  C   C3878     1.0  0.94410  0.57558  0.17323  1.0000
  C   C3879     1.0  0.92070  0.49359  0.00081  1.0000
  C   C3880     1.0  0.91241  0.49957  0.98775  1.0000
  H   H3119     1.0  0.58445  0.55998  0.17767  1.0000
  C   C3881     1.0  0.93710  0.33466  0.04628  1.0000
  H   H3120     1.0  0.50408  0.60273  0.00998  1.0000
  H   H3121     1.0  0.63847  0.34048  0.18192  1.0000
  C   C3882     1.0  0.54228  0.46811  0.97614  1.0000
  H   H3122     1.0  0.78424  0.62658  0.99630  1.0000
  C   C3883     1.0  0.88995  0.39660  0.10235  1.0000
  C   C3884     1.0  0.98505  0.61131  0.14464  1.0000
  C   C3885     1.0  0.79906  0.62927  0.14665  1.0000
  C   C3886     1.0  0.91163  0.38478  0.07975  1.0000
  H   H3123     1.0  0.94821  0.44462  0.14316  1.0000
  C   C3887     1.0  0.88959  0.39039  0.08939  1.0000
  C   C3888     1.0  0.90011  0.59696  0.16329  1.0000
  C   C3889     1.0  0.88121  0.34405  0.15282  1.0000
  C   C3890     1.0  0.61807  0.59784  0.14176  1.0000
  C   C3891     1.0  0.91097  0.61359  0.20493  1.0000
  C   C3892     1.0  0.70926  0.35478  0.18736  1.0000
  C   C3893     1.0  0.94297  0.46631  0.10190  1.0000
  C   C3894     1.0  0.50248  0.62305  0.15112  1.0000
  C   C3895     1.0  0.94304  0.44279  0.10003  1.0000
  C   C3896     1.0  0.89761  0.35852  0.20798  1.0000
  C   C3897     1.0  0.98013  0.55337  0.21462  1.0000
  H   H3124     1.0  0.81051  0.34491  0.15836  1.0000
  H   H3125     1.0  0.91134  0.51806  0.98152  1.0000
  H   H3126     1.0  0.99118  0.60371  0.18050  1.0000
  H   H3127     1.0  0.94825  0.47610  0.19129  1.0000
  C   C3898     1.0  0.50616  0.48754  0.13052  1.0000
  S   S532      1.0  0.61022  0.38931  0.17923  1.0000
  H   H3128     1.0  0.89614  0.41806  0.19088  1.0000
  C   C3899     1.0  0.93051  0.60647  0.10752  1.0000
  C   C3900     1.0  0.91808  0.59289  0.11978  1.0000
  C   C3901     1.0  0.89253  0.59991  0.12411  1.0000
  C   C3902     1.0  0.87954  0.62087  0.11637  1.0000
  P   P130      1.0  0.92918  0.47054  0.16719  1.0000
  H   H3129     1.0  0.82318  0.45096  0.18027  1.0000
  Fe  Fe268     1.0  0.51813  0.39162  0.19452  1.0000
  C   C3903     1.0  0.50441  0.38371  0.06283  1.0000
  C   C3904     1.0  0.96525  0.52725  0.13147  1.0000
  H   H3130     1.0  0.87759  0.54708  0.18183  1.0000
  H   H3131     1.0  0.96160  0.64006  0.20085  1.0000
  C   C3905     1.0  0.93370  0.50265  0.14066  1.0000
  Fe  Fe269     1.0  0.92494  0.60659  0.98296  1.0000
  H   H3132     1.0  0.87949  0.45856  0.17320  1.0000
  C   C3906     1.0  0.61069  0.55606  0.14881  1.0000
  C   C3907     1.0  0.52369  0.45631  0.98501  1.0000
  C   C3908     1.0  0.89084  0.45011  0.16438  1.0000
  C   C3909     1.0  0.55175  0.32507  0.12789  1.0000
  H   H3133     1.0  0.95030  0.60095  0.10404  1.0000
  H   H3134     1.0  0.92835  0.57692  0.12582  1.0000
  H   H3135     1.0  0.88274  0.58926  0.13349  1.0000
  C   C3910     1.0  0.94925  0.64241  0.02777  1.0000
  C   C3911     1.0  0.97624  0.51589  0.14341  1.0000
  C   C3912     1.0  0.50233  0.52166  0.14220  1.0000
  C   C3913     1.0  0.84002  0.44708  0.21713  1.0000
  H   H3136     1.0  0.74530  0.59516  0.21572  1.0000
  C   C3914     1.0  0.57919  0.53296  0.13790  1.0000
  H   H3137     1.0  0.90637  0.52331  0.16454  1.0000
  C   C3915     1.0  0.89210  0.63509  0.10433  1.0000
  C   C3916     1.0  0.81098  0.62387  0.22450  1.0000
  Fe  Fe270     1.0  0.53818  0.35666  0.17357  1.0000
  C   C3917     1.0  0.83157  0.44923  0.98492  1.0000
  C   C3918     1.0  0.49962  0.36401  0.05835  1.0000
  C   C3919     1.0  0.74775  0.62735  0.19859  1.0000
  C   C3920     1.0  0.92939  0.59680  0.17784  1.0000
  H   H3138     1.0  0.49644  0.31727  0.11437  1.0000
  H   H3139     1.0  0.78929  0.57221  0.19336  1.0000
  C   C3921     1.0  0.56345  0.52878  0.11352  1.0000
  C   C3922     1.0  0.79251  0.32883  0.14699  1.0000
  C   C3923     1.0  0.95709  0.63895  0.05560  1.0000
  H   H3140     1.0  0.87389  0.48102  0.21361  1.0000
  H   H3141     1.0  0.89561  0.62383  0.17626  1.0000
  Fe  Fe271     1.0  0.89232  0.35695  0.02295  1.0000
  C   C3924     1.0  0.89663  0.47640  0.19302  1.0000
  H   H3142     1.0  0.87109  0.53092  0.01815  1.0000
  C   C3925     1.0  0.98433  0.41922  0.19455  1.0000
  C   C3926     1.0  0.90114  0.39826  0.19282  1.0000
  C   C3927     1.0  0.84272  0.42847  0.19680  1.0000
  H   H3143     1.0  0.91698  0.49803  0.13955  1.0000
  C   C3928     1.0  0.87711  0.59732  0.22189  1.0000
  C   C3929     1.0  0.50796  0.64069  0.00287  1.0000
  H   H3144     1.0  0.63386  0.31961  0.21174  1.0000
  P   P131      1.0  0.82475  0.53255  0.98114  1.0000
  S   S533      1.0  0.55006  0.35997  0.19332  1.0000
  C   C3930     1.0  0.98216  0.45134  0.10963  1.0000
  H   H3145     1.0  0.92806  0.48137  0.09926  1.0000
  H   H3146     1.0  0.91697  0.43276  0.00976  1.0000
  H   H3147     1.0  0.55379  0.63389  0.15865  1.0000
  H   H3148     1.0  0.58515  0.56877  0.12555  1.0000
  H   H3149     1.0  0.67214  0.55665  0.14276  1.0000
  C   C3931     1.0  0.94454  0.49125  0.15275  1.0000
  H   H3150     1.0  0.65603  0.38609  0.18792  1.0000
  C   C3932     1.0  0.64914  0.37644  0.21117  1.0000
  C   C3933     1.0  0.93666  0.56494  0.16391  1.0000
  C   C3934     1.0  0.60467  0.47080  0.18245  1.0000
  C   C3935     1.0  0.84892  0.42698  0.21015  1.0000
  C   C3936     1.0  0.61953  0.48907  0.15311  1.0000
  C   C3937     1.0  0.77978  0.32853  0.22074  1.0000
  H   H3151     1.0  0.98897  0.34922  0.08835  1.0000
  C   C3938     1.0  0.95905  0.34785  0.14281  1.0000
  C   C3939     1.0  0.96231  0.42671  0.17501  1.0000
  H   H3152     1.0  0.64064  0.45247  0.15217  1.0000
  H   H3153     1.0  0.62501  0.49570  0.14165  1.0000
  H   H3154     1.0  0.54287  0.33084  0.01090  1.0000
  C   C3940     1.0  0.52105  0.37943  0.07209  1.0000
  H   H3155     1.0  0.64360  0.52769  0.15000  1.0000
  S   S534      1.0  0.51504  0.55040  0.01084  1.0000
  C   C3941     1.0  0.68850  0.32445  0.18422  1.0000
  C   C3942     1.0  0.85059  0.53234  0.00199  1.0000
  C   C3943     1.0  0.71874  0.61224  0.16543  1.0000
  C   C3944     1.0  0.49630  0.38334  0.13640  1.0000
  H   H3156     1.0  0.49736  0.41546  0.11957  1.0000
  P   P132      1.0  0.74922  0.61215  0.18401  1.0000
  H   H3157     1.0  0.54431  0.62429  0.11579  1.0000
  C   C3945     1.0  0.75083  0.57970  0.19141  1.0000
  C   C3946     1.0  0.77280  0.56486  0.19523  1.0000
  P   P133      1.0  0.58932  0.53528  0.15370  1.0000
  C   C3947     1.0  0.52529  0.61823  0.15527  1.0000
  C   C3948     1.0  0.82982  0.32384  0.98715  1.0000
  H   H3158     1.0  0.97109  0.53826  0.02545  1.0000
  C   C3949     1.0  0.69832  0.35780  0.16439  1.0000
  H   H3159     1.0  0.88323  0.60556  0.15930  1.0000
  H   H3160     1.0  0.57118  0.56493  0.10439  1.0000
  H   H3161     1.0  0.84857  0.41285  0.19149  1.0000
  H   H3162     1.0  0.88967  0.34712  0.21770  1.0000
  C   C3950     1.0  0.77724  0.61713  0.17117  1.0000
  C   C3951     1.0  0.93374  0.51335  0.20965  1.0000
  H   H3163     1.0  0.79024  0.52949  0.20563  1.0000
  C   C3952     1.0  0.82061  0.62691  0.15177  1.0000
  C   C3953     1.0  0.82060  0.61958  0.16650  1.0000
  C   C3954     1.0  0.79896  0.61503  0.17615  1.0000
  H   H3164     1.0  0.55693  0.52731  0.10423  1.0000
  C   C3955     1.0  0.51180  0.61620  0.00137  1.0000
  H   H3165     1.0  0.93058  0.32018  0.08789  1.0000
  H   H3166     1.0  0.73028  0.59470  0.16378  1.0000
  S   S535      1.0  0.96481  0.31940  0.98984  1.0000
  H   H3167     1.0  0.93911  0.33853  0.03470  1.0000
  H   H3168     1.0  0.55504  0.34498  0.14332  1.0000
  C   C3956     1.0  0.92937  0.44231  0.14751  1.0000
  C   C3957     1.0  0.70822  0.64786  0.17663  1.0000
  C   C3958     1.0  0.68603  0.64602  0.15870  1.0000
  H   H3169     1.0  0.90229  0.45681  0.19653  1.0000
  C   C3959     1.0  0.96370  0.58879  0.19772  1.0000
  H   H3170     1.0  0.89330  0.33505  0.07679  1.0000
  C   C3960     1.0  0.53404  0.62930  0.03014  1.0000
  C   C3961     1.0  0.82657  0.49992  0.98307  1.0000
  H   H3171     1.0  0.49892  0.52573  0.12016  1.0000
  H   H3172     1.0  0.84765  0.35844  0.10819  1.0000
  H   H3173     1.0  0.83703  0.61871  0.17054  1.0000
  H   H3174     1.0  0.79893  0.61086  0.18757  1.0000
  H   H3175     1.0  0.50587  0.51146  0.16453  1.0000
  H   H3176     1.0  0.54578  0.35207  0.08422  1.0000
  H   H3177     1.0  0.92729  0.63729  0.09008  1.0000
  C   C3962     1.0  0.89495  0.42515  0.14670  1.0000
  C   C3963     1.0  0.54573  0.56783  0.18673  1.0000
  C   C3964     1.0  0.72948  0.56958  0.19486  1.0000
  H   H3178     1.0  0.82240  0.62624  0.20160  1.0000
  S   S536      1.0  0.88684  0.34951  0.04734  1.0000
  C   C3965     1.0  0.98810  0.38805  0.08471  1.0000
  C   C3966     1.0  0.64251  0.38178  0.19755  1.0000
  C   C3967     1.0  0.63619  0.54718  0.14776  1.0000
  H   H3179     1.0  0.53811  0.61697  0.02265  1.0000
  C   C3968     1.0  0.50614  0.56968  0.04987  1.0000
  H   H3180     1.0  0.75678  0.35237  0.20641  1.0000
  C   C3969     1.0  0.88978  0.38417  0.20543  1.0000
  C   C3970     1.0  0.89781  0.59448  0.21086  1.0000
  C   C3971     1.0  0.57928  0.55209  0.12576  1.0000
  H   H3181     1.0  0.61472  0.33270  0.12065  1.0000
  C   C3972     1.0  0.93914  0.62543  0.03917  1.0000
  H   H3182     1.0  0.93066  0.41950  0.13265  1.0000
  C   C3973     1.0  0.57087  0.51183  0.13772  1.0000
  P   P134      1.0  0.93786  0.60953  0.19077  1.0000
  H   H3183     1.0  0.78352  0.33919  0.18455  1.0000
  C   C3974     1.0  0.94405  0.52055  0.13007  1.0000
  S   S537      1.0  0.83366  0.61114  0.00071  1.0000
  C   C3975     1.0  0.77342  0.54042  0.20225  1.0000
  C   C3976     1.0  0.77747  0.62431  0.15628  1.0000
  C   C3977     1.0  0.80607  0.32811  0.15738  1.0000
  H   H3184     1.0  0.94503  0.34383  0.15222  1.0000
  C   C3978     1.0  0.95184  0.36394  0.12910  1.0000
  C   C3979     1.0  0.95817  0.32645  0.05255  1.0000
  C   C3980     1.0  0.79618  0.62979  0.98586  1.0000
  C   C3981     1.0  0.93253  0.32429  0.07630  1.0000
  H   H3185     1.0  0.76099  0.62689  0.15201  1.0000
  H   H3186     1.0  0.52857  0.58981  0.98767  1.0000
  H   H3187     1.0  0.71204  0.58077  0.19263  1.0000
  H   H3188     1.0  0.92827  0.44027  0.09566  1.0000
  C   C3982     1.0  0.90727  0.60740  0.17284  1.0000
  Fe  Fe272     1.0  0.57103  0.38786  0.17859  1.0000
  C   C3983     1.0  0.53649  0.62563  0.97753  1.0000
  C   C3984     1.0  0.90253  0.63585  0.20991  1.0000
  C   C3985     1.0  0.95952  0.50689  0.20611  1.0000
  C   C3986     1.0  0.93413  0.38471  0.08317  1.0000
  C   C3987     1.0  0.96247  0.47055  0.10677  1.0000
  C   C3988     1.0  0.56333  0.50967  0.12552  1.0000
  H   H3189     1.0  0.84105  0.48889  0.00290  1.0000
  C   C3989     1.0  0.60767  0.37073  0.22239  1.0000
  H   H3190     1.0  0.97749  0.44887  0.20593  1.0000
  C   C3990     1.0  0.53918  0.54553  0.16571  1.0000
  H   H3191     1.0  0.87278  0.40137  0.10970  1.0000
  C   C3991     1.0  0.94300  0.62390  0.05308  1.0000
  C   C3992     1.0  0.56298  0.54746  0.16628  1.0000
  C   C3993     1.0  0.82043  0.58911  0.21255  1.0000
  C   C3994     1.0  0.89901  0.51370  0.17506  1.0000
  C   C3995     1.0  0.61837  0.38185  0.19636  1.0000
  H   H3192     1.0  0.86633  0.52284  0.99542  1.0000
  C   C3996     1.0  0.96584  0.49809  0.15408  1.0000
  C   C3997     1.0  0.65246  0.56357  0.14368  1.0000
  C   C3998     1.0  0.51180  0.34005  0.06328  1.0000
  S   S538      1.0  0.50456  0.38637  0.17597  1.0000
  C   C3999     1.0  0.83327  0.54967  0.02340  1.0000
  Fe  Fe273     1.0  0.97768  0.33334  0.12525  1.0000
  H   H3193     1.0  0.95079  0.38003  0.07545  1.0000
  C   C4000     1.0  0.92695  0.36137  0.18534  1.0000
  H   H3194     1.0  0.51471  0.57986  0.05464  1.0000
  C   C4001     1.0  0.87336  0.62576  0.06352  1.0000
  H   H3195     1.0  0.58217  0.58884  0.14651  1.0000
  C   C4002     1.0  0.60287  0.50457  0.16183  1.0000
  H   H3196     1.0  0.89164  0.34446  0.14190  1.0000
  S   S539      1.0  0.53322  0.31969  0.17128  1.0000
  C   C4003     1.0  0.91610  0.34721  0.19797  1.0000
  C   C4004     1.0  0.50205  0.51294  0.13002  1.0000
  H   H3197     1.0  0.97425  0.49008  0.16345  1.0000
  C   C4005     1.0  0.62088  0.45542  0.17365  1.0000
  H   H3198     1.0  0.94679  0.39991  0.97879  1.0000
  H   H3199     1.0  0.50043  0.55354  0.17472  1.0000
  S   S540      1.0  0.56201  0.38183  0.15855  1.0000
  H   H3200     1.0  0.50610  0.48088  0.12103  1.0000
  C   C4006     1.0  0.82180  0.62418  0.98483  1.0000
  C   C4007     1.0  0.52559  0.34365  0.01269  1.0000
  S   S541      1.0  0.97478  0.51551  0.18835  1.0000
  C   C4008     1.0  0.57142  0.54997  0.11364  1.0000
  S   S542      1.0  0.94890  0.32939  0.11263  1.0000
  C   C4009     1.0  0.85552  0.34110  0.18133  1.0000
  C   C4010     1.0  0.87179  0.35738  0.17563  1.0000
  C   C4011     1.0  0.88495  0.35857  0.16147  1.0000
  H   H3201     1.0  0.50802  0.32450  0.06026  1.0000
  H   H3202     1.0  0.96020  0.63723  0.06633  1.0000
  H   H3203     1.0  0.95921  0.42031  0.16617  1.0000
  S   S543      1.0  0.98039  0.38576  0.13701  1.0000
  H   H3204     1.0  0.80874  0.48670  0.19246  1.0000
  C   C4012     1.0  0.88270  0.52730  0.18484  1.0000
  C   C4013     1.0  0.88070  0.43617  0.15815  1.0000
  C   C4014     1.0  0.77437  0.53843  0.98199  1.0000
  C   C4015     1.0  0.82001  0.47009  0.19734  1.0000
  H   H3205     1.0  0.86176  0.43393  0.16215  1.0000
  C   C4016     1.0  0.94689  0.63872  0.18258  1.0000
  C   C4017     1.0  0.82581  0.46860  0.21070  1.0000
  H   H3206     1.0  0.86142  0.52608  0.20641  1.0000
  P   P135      1.0  0.86686  0.39905  0.21870  1.0000
  H   H3207     1.0  0.90901  0.56726  0.15173  1.0000
  H   H3208     1.0  0.98474  0.51860  0.00411  1.0000
  H   H3209     1.0  0.54825  0.57645  0.19490  1.0000
  H   H3210     1.0  0.84602  0.34002  0.19244  1.0000
  H   H3211     1.0  0.87447  0.36873  0.18231  1.0000
  H   H3212     1.0  0.89825  0.37048  0.15726  1.0000
  H   H3213     1.0  0.96881  0.60793  0.14207  1.0000
  C   C4018     1.0  0.91751  0.62731  0.09974  1.0000
  C   C4019     1.0  0.82769  0.53965  0.99767  1.0000
  C   C4020     1.0  0.93478  0.39097  0.09617  1.0000
  C   C4021     1.0  0.98613  0.33793  0.14348  1.0000
  H   H3214     1.0  0.93262  0.37144  0.12908  1.0000
  H   H3215     1.0  0.66766  0.37669  0.21205  1.0000
  C   C4022     1.0  0.91471  0.57562  0.15891  1.0000
  H   H3216     1.0  0.81910  0.48403  0.21621  1.0000
  C   C4023     1.0  0.78886  0.33134  0.19487  1.0000
  S   S544      1.0  0.90475  0.36773  0.98167  1.0000
  C   C4024     1.0  0.64341  0.58887  0.14064  1.0000
  C   C4025     1.0  0.88170  0.63868  0.22085  1.0000
  C   C4026     1.0  0.77366  0.33892  0.20723  1.0000
  C   C4027     1.0  0.90621  0.48813  0.17911  1.0000
  H   H3217     1.0  0.96117  0.56689  0.17694  1.0000
  H   H3218     1.0  0.56093  0.33672  0.11876  1.0000
  C   C4028     1.0  0.87354  0.51549  0.19871  1.0000
  H   H3219     1.0  0.55678  0.49339  0.12552  1.0000
  C   C4029     1.0  0.51400  0.35569  0.00113  1.0000
  C   C4030     1.0  0.55028  0.62639  0.03944  1.0000
  C   C4031     1.0  0.91931  0.42819  0.14141  1.0000
  H   H3220     1.0  0.97617  0.32421  0.04570  1.0000
  H   H3221     1.0  0.88712  0.41433  0.14189  1.0000
  S   S545      1.0  0.89899  0.43513  0.98367  1.0000
  H   H3222     1.0  0.93399  0.64359  0.16259  1.0000
  C   C4032     1.0  0.51515  0.56672  0.03542  1.0000
  S   S546      1.0  0.53520  0.64527  0.08674  1.0000
  H   H3223     1.0  0.53454  0.59947  0.15833  1.0000
  C   C4033     1.0  0.96243  0.42316  0.10331  1.0000
  C   C4034     1.0  0.96000  0.57018  0.20993  1.0000
  C   C4035     1.0  0.68828  0.33664  0.16988  1.0000
  H   H3224     1.0  0.78666  0.34603  0.14000  1.0000
  C   C4036     1.0  0.81814  0.61431  0.21187  1.0000
  H   H3225     1.0  0.57061  0.63402  0.12980  1.0000
  H   H3226     1.0  0.59698  0.32620  0.00212  1.0000
  C   C4037     1.0  0.85181  0.32631  0.17273  1.0000
  C   C4038     1.0  0.91362  0.33804  0.05496  1.0000
  C   C4039     1.0  0.75222  0.53042  0.20541  1.0000
  C   C4040     1.0  0.92116  0.50448  0.22349  1.0000
  C   C4041     1.0  0.91931  0.38685  0.18272  1.0000
  C   C4042     1.0  0.54835  0.32984  0.14179  1.0000
  S   S547      1.0  0.51663  0.43911  0.14324  1.0000
  H   H3227     1.0  0.90344  0.57742  0.20688  1.0000
  H   H3228     1.0  0.49958  0.43163  0.98662  1.0000
  C   C4043     1.0  0.74639  0.61438  0.21290  1.0000
  H   H3229     1.0  0.51651  0.45947  0.99591  1.0000
  C   C4044     1.0  0.66938  0.31880  0.98097  1.0000
  C   C4045     1.0  0.55444  0.63899  0.11119  1.0000
  C   C4046     1.0  0.51877  0.55485  0.17547  1.0000
  H   H3230     1.0  0.87725  0.60691  0.06206  1.0000
  H   H3231     1.0  0.53632  0.53698  0.15766  1.0000
  C   C4047     1.0  0.83919  0.33420  0.09701  1.0000
  H   H3232     1.0  0.53791  0.31734  0.07620  1.0000
  H   H3233     1.0  0.62725  0.43626  0.17814  1.0000
  H   H3234     1.0  0.53802  0.40727  0.22293  1.0000
  C   C4048     1.0  0.51411  0.44069  0.97974  1.0000
  C   C4049     1.0  0.98244  0.64699  0.99048  1.0000
  H   H3235     1.0  0.69775  0.61365  0.14939  1.0000
  H   H3236     1.0  0.54957  0.48037  0.98022  1.0000
  C   C4050     1.0  0.59568  0.49529  0.17660  1.0000
  C   C4051     1.0  0.70037  0.62289  0.15724  1.0000
  H   H3237     1.0  0.83712  0.63153  0.14442  1.0000
  H   H3238     1.0  0.59863  0.46348  0.19377  1.0000
  S   S548      1.0  0.89643  0.32625  0.01126  1.0000
  C   C4052     1.0  0.72299  0.62471  0.17514  1.0000
  H   H3239     1.0  0.97699  0.53862  0.22376  1.0000
  H   H3240     1.0  0.69769  0.36731  0.15340  1.0000
  C   C4053     1.0  0.63155  0.37124  0.22365  1.0000
  H   H3241     1.0  0.85978  0.62588  0.11977  1.0000
  H   H3242     1.0  0.73527  0.54291  0.98315  1.0000
  H   H3243     1.0  0.79888  0.63560  0.13525  1.0000
  H   H3244     1.0  0.61192  0.64644  0.06020  1.0000
  C   C4054     1.0  0.87513  0.63096  0.07651  1.0000
  C   C4055     1.0  0.51246  0.64749  0.03085  1.0000
  H   H3245     1.0  0.56660  0.61197  0.03906  1.0000
  H   H3246     1.0  0.98801  0.39337  0.18102  1.0000
  H   H3247     1.0  0.91510  0.41302  0.21467  1.0000
  H   H3248     1.0  0.77564  0.52045  0.98893  1.0000
  C   C4056     1.0  0.54509  0.64159  0.04951  1.0000
  H   H3249     1.0  0.86718  0.64060  0.04192  1.0000
  C   C4057     1.0  0.86443  0.32827  0.15837  1.0000
  H   H3250     1.0  0.88488  0.32930  0.11517  1.0000
  H   H3251     1.0  0.90599  0.63847  0.13633  1.0000
  C   C4058     1.0  0.87401  0.32436  0.10896  1.0000
  C   C4059     1.0  0.74729  0.62600  0.22382  1.0000
  H   H3252     1.0  0.99118  0.57051  0.02757  1.0000
  C   C4060     1.0  0.86770  0.64483  0.05211  1.0000
  S   S549      1.0  0.49834  0.55332  0.14170  1.0000
  C   C4061     1.0  0.75141  0.55116  0.97880  1.0000
  C   C4062     1.0  0.98920  0.63522  0.14185  1.0000
  C   C4063     1.0  0.61158  0.32711  0.17544  1.0000
  C   C4064     1.0  0.56934  0.64454  0.11912  1.0000
  H   H3253     1.0  0.94616  0.64384  0.01705  1.0000
  C   C4065     1.0  0.79540  0.54900  0.97648  1.0000
  H   H3254     1.0  0.68015  0.32990  0.16299  1.0000
  H   H3255     1.0  0.83432  0.42961  0.98545  1.0000
  H   H3256     1.0  0.49402  0.60795  0.15113  1.0000
  Fe  Fe274     1.0  0.49248  0.57788  0.12044  1.0000
  H   H3257     1.0  0.99107  0.42636  0.07718  1.0000
  H   H3258     1.0  0.96461  0.64872  0.98785  1.0000
  H   H3259     1.0  0.86177  0.31705  0.15157  1.0000
  H   H3260     1.0  0.78824  0.50656  0.41731  1.0000
  H   H3261     1.0  0.79379  0.48784  0.39622  1.0000
  C   C4066     1.0  0.85754  0.33202  0.42942  1.0000
  H   H3262     1.0  0.85531  0.58368  0.25494  1.0000
  Fe  Fe275     1.0  0.83036  0.46727  0.26457  1.0000
  S   S550      1.0  0.85794  0.47030  0.27686  1.0000
  S   S551      1.0  0.81606  0.43187  0.26983  1.0000
  Fe  Fe276     1.0  0.83166  0.51783  0.24626  1.0000
  S   S552      1.0  0.85916  0.52572  0.25681  1.0000
  C   C4067     1.0  0.98586  0.46627  0.43455  1.0000
  Fe  Fe277     1.0  0.87823  0.48704  0.25550  1.0000
  S   S553      1.0  0.91946  0.47626  0.25075  1.0000
  Fe  Fe278     1.0  0.83692  0.50865  0.27752  1.0000
  S   S554      1.0  0.82875  0.52174  0.29869  1.0000
  S   S555      1.0  0.85289  0.48036  0.24314  1.0000
  S   S556      1.0  0.80718  0.50438  0.26704  1.0000
  H   H3263     1.0  0.81447  0.50704  0.37222  1.0000
  S   S557      1.0  0.67020  0.37800  0.39525  1.0000
  Fe  Fe279     1.0  0.81288  0.43592  0.41456  1.0000
  S   S558      1.0  0.80381  0.45517  0.43324  1.0000
  S   S559      1.0  0.83992  0.44478  0.39381  1.0000
  Fe  Fe280     1.0  0.77249  0.40595  0.42731  1.0000
  S   S560      1.0  0.75946  0.42335  0.44682  1.0000
  S   S561      1.0  0.75816  0.37321  0.42598  1.0000
  Fe  Fe281     1.0  0.76457  0.45860  0.43154  1.0000
  S   S562      1.0  0.73984  0.49573  0.43145  1.0000
  Fe  Fe282     1.0  0.79968  0.41835  0.44710  1.0000
  P   P136      1.0  0.80274  0.54998  0.42114  1.0000
  S   S563      1.0  0.77364  0.44180  0.41186  1.0000
  S   S564      1.0  0.81259  0.39844  0.42859  1.0000
  Fe  Fe283     1.0  0.91408  0.56775  0.33640  1.0000
  S   S565      1.0  0.94152  0.54109  0.34864  1.0000
  S   S566      1.0  0.91015  0.56485  0.31421  1.0000
  Fe  Fe284     1.0  0.90355  0.60400  0.35662  1.0000
  S   S567      1.0  0.93055  0.58067  0.37032  1.0000
  H   H3264     1.0  0.93469  0.42566  0.23099  1.0000
  Fe  Fe285     1.0  0.95610  0.57391  0.34946  1.0000
  Fe  Fe286     1.0  0.91409  0.54965  0.36853  1.0000
  S   S568      1.0  0.90431  0.52363  0.38955  1.0000
  S   S569      1.0  0.93035  0.60007  0.33588  1.0000
  S   S570      1.0  0.88534  0.57345  0.35626  1.0000
  H   H3265     1.0  0.84041  0.39544  0.35648  1.0000
  H   H3266     1.0  0.65644  0.36585  0.32513  1.0000
  H   H3267     1.0  0.61052  0.36447  0.35857  1.0000
  C   C4068     1.0  0.60480  0.35451  0.27950  1.0000
  C   C4069     1.0  0.72463  0.50306  0.44821  1.0000
  H   H3268     1.0  0.53127  0.36489  0.22850  1.0000
  Fe  Fe287     1.0  0.72348  0.37892  0.24517  1.0000
  C   C4070     1.0  0.78468  0.37489  0.38454  1.0000
  C   C4071     1.0  0.59565  0.36160  0.35440  1.0000
  C   C4072     1.0  0.71406  0.52760  0.44902  1.0000
  C   C4073     1.0  0.55733  0.35297  0.34409  1.0000
  C   C4074     1.0  0.91466  0.48732  0.30794  1.0000
  C   C4075     1.0  0.60099  0.35010  0.34257  1.0000
  H   H3269     1.0  0.71581  0.54174  0.43941  1.0000
  C   C4076     1.0  0.85708  0.46732  0.39270  1.0000
  C   C4077     1.0  0.86036  0.47330  0.40513  1.0000
  C   C4078     1.0  0.87486  0.49063  0.40400  1.0000
  C   C4079     1.0  0.88563  0.50258  0.39045  1.0000
  C   C4080     1.0  0.88193  0.49703  0.37799  1.0000
  C   C4081     1.0  0.86798  0.47918  0.37913  1.0000
  H   H3270     1.0  0.85233  0.46409  0.41563  1.0000
  H   H3271     1.0  0.87791  0.49461  0.41366  1.0000
  H   H3272     1.0  0.89025  0.50608  0.36750  1.0000
  H   H3273     1.0  0.86555  0.47461  0.36948  1.0000
  H   H3274     1.0  0.80586  0.34452  0.40738  1.0000
  C   C4082     1.0  0.73951  0.59017  0.44109  1.0000
  C   C4083     1.0  0.85790  0.39057  0.45986  1.0000
  C   C4084     1.0  0.69499  0.37680  0.40348  1.0000
  C   C4085     1.0  0.70525  0.35486  0.41174  1.0000
  C   C4086     1.0  0.72463  0.35416  0.41852  1.0000
  C   C4087     1.0  0.73388  0.37535  0.41714  1.0000
  C   C4088     1.0  0.72387  0.39733  0.40873  1.0000
  C   C4089     1.0  0.70439  0.39803  0.40194  1.0000
  H   H3275     1.0  0.69807  0.33843  0.41307  1.0000
  H   H3276     1.0  0.73236  0.33711  0.42497  1.0000
  H   H3277     1.0  0.73099  0.41373  0.40760  1.0000
  H   H3278     1.0  0.69649  0.41499  0.39552  1.0000
  H   H3279     1.0  0.80189  0.31775  0.43121  1.0000
  P   P137      1.0  0.96823  0.51298  0.27523  1.0000
  H   H3280     1.0  0.68100  0.37981  0.36047  1.0000
  C   C4090     1.0  0.51410  0.39541  0.40168  1.0000
  C   C4091     1.0  0.85179  0.53306  0.30309  1.0000
  C   C4092     1.0  0.87249  0.53848  0.29278  1.0000
  C   C4093     1.0  0.89000  0.54842  0.29636  1.0000
  C   C4094     1.0  0.88739  0.55244  0.31037  1.0000
  C   C4095     1.0  0.86682  0.54684  0.32075  1.0000
  C   C4096     1.0  0.84897  0.53738  0.31706  1.0000
  H   H3281     1.0  0.87492  0.53523  0.28201  1.0000
  H   H3282     1.0  0.90585  0.55265  0.28826  1.0000
  H   H3283     1.0  0.86457  0.54997  0.33155  1.0000
  H   H3284     1.0  0.83296  0.53329  0.32508  1.0000
  H   H3285     1.0  0.91702  0.59261  0.23891  1.0000
  H   H3286     1.0  0.84671  0.51800  0.43154  1.0000
  C   C4097     1.0  0.91846  0.55530  0.25043  1.0000
  C   C4098     1.0  0.80960  0.58268  0.23857  1.0000
  C   C4099     1.0  0.73715  0.37868  0.36737  1.0000
  C   C4100     1.0  0.73335  0.58979  0.41742  1.0000
  H   H3287     1.0  0.80624  0.57049  0.24888  1.0000
  C   C4101     1.0  0.93447  0.48931  0.23377  1.0000
  C   C4102     1.0  0.57121  0.36850  0.36120  1.0000
  H   H3288     1.0  0.95685  0.51078  0.37602  1.0000
  C   C4103     1.0  0.59808  0.34750  0.30569  1.0000
  C   C4104     1.0  0.64802  0.52858  0.45842  1.0000
  C   C4105     1.0  0.76576  0.41515  0.24436  1.0000
  C   C4106     1.0  0.77188  0.39902  0.25681  1.0000
  C   C4107     1.0  0.78784  0.40413  0.26422  1.0000
  C   C4108     1.0  0.79730  0.42576  0.25954  1.0000
  C   C4109     1.0  0.79141  0.44191  0.24701  1.0000
  C   C4110     1.0  0.77594  0.43644  0.23935  1.0000
  H   H3289     1.0  0.76446  0.38251  0.26070  1.0000
  H   H3290     1.0  0.79262  0.39138  0.27375  1.0000
  H   H3291     1.0  0.79856  0.45867  0.24334  1.0000
  H   H3292     1.0  0.55543  0.42213  0.23960  1.0000
  C   C4111     1.0  0.85333  0.35969  0.24004  1.0000
  H   H3293     1.0  0.88684  0.56753  0.40292  1.0000
  C   C4112     1.0  0.53869  0.37108  0.23596  1.0000
  H   H3294     1.0  0.86960  0.61695  0.26090  1.0000
  H   H3295     1.0  0.74672  0.39063  0.37004  1.0000
  C   C4113     1.0  0.82058  0.34072  0.41334  1.0000
  C   C4114     1.0  0.74807  0.35405  0.36678  1.0000
  Fe  Fe288     1.0  0.69542  0.35490  0.27386  1.0000
  H   H3296     1.0  0.76766  0.52443  0.44338  1.0000
  C   C4115     1.0  0.61023  0.36671  0.30456  1.0000
  H   H3297     1.0  0.95425  0.59716  0.24624  1.0000
  C   C4116     1.0  0.78905  0.49575  0.45647  1.0000
  C   C4117     1.0  0.90499  0.42096  0.24917  1.0000
  C   C4118     1.0  0.83735  0.34393  0.24789  1.0000
  C   C4119     1.0  0.83566  0.63570  0.33534  1.0000
  C   C4120     1.0  0.86815  0.57438  0.40812  1.0000
  H   H3298     1.0  0.62420  0.38359  0.26805  1.0000
  H   H3299     1.0  0.87550  0.60923  0.40864  1.0000
  H   H3300     1.0  0.70636  0.60834  0.43301  1.0000
  H   H3301     1.0  0.87123  0.35716  0.24281  1.0000
  H   H3302     1.0  0.77301  0.48888  0.46309  1.0000
  C   C4121     1.0  0.56418  0.44970  0.45659  1.0000
  C   C4122     1.0  0.66875  0.34820  0.32537  1.0000
  C   C4123     1.0  0.73476  0.33911  0.36347  1.0000
  C   C4124     1.0  0.55209  0.40357  0.24222  1.0000
  H   H3303     1.0  0.59416  0.36641  0.23200  1.0000
  C   C4125     1.0  0.90818  0.47003  0.30230  1.0000
  C   C4126     1.0  0.94769  0.58005  0.24996  1.0000
  H   H3304     1.0  0.91579  0.45157  0.28439  1.0000
  H   H3305     1.0  0.55785  0.35211  0.26817  1.0000
  C   C4127     1.0  0.94002  0.47685  0.28111  1.0000
  C   C4128     1.0  0.95175  0.53829  0.26384  1.0000
  H   H3306     1.0  0.85170  0.48203  0.45107  1.0000
  H   H3307     1.0  0.50685  0.33486  0.31266  1.0000
  C   C4129     1.0  0.85034  0.55981  0.41131  1.0000
  H   H3308     1.0  0.50827  0.40939  0.39281  1.0000
  C   C4130     1.0  0.86176  0.59788  0.41131  1.0000
  C   C4131     1.0  0.80685  0.36575  0.23341  1.0000
  C   C4132     1.0  0.57283  0.48037  0.46717  1.0000
  S   S571      1.0  0.74570  0.40905  0.23481  1.0000
  C   C4133     1.0  0.87028  0.40803  0.24499  1.0000
  C   C4134     1.0  0.88168  0.41493  0.25419  1.0000
  H   H3309     1.0  0.53694  0.48008  0.46339  1.0000
  H   H3310     1.0  0.85283  0.62191  0.23522  1.0000
  C   C4135     1.0  0.55206  0.36437  0.35598  1.0000
  H   H3311     1.0  0.73263  0.59605  0.45136  1.0000
  C   C4136     1.0  0.81376  0.37182  0.36208  1.0000
  H   H3312     1.0  0.93565  0.60920  0.39603  1.0000
  C   C4137     1.0  0.80555  0.33236  0.32834  1.0000
  C   C4138     1.0  0.76313  0.57580  0.43819  1.0000
  H   H3313     1.0  0.95380  0.62460  0.35644  1.0000
  H   H3314     1.0  0.78896  0.40034  0.39639  1.0000
  H   H3315     1.0  0.97654  0.56275  0.26193  1.0000
  C   C4139     1.0  0.79706  0.51541  0.40691  1.0000
  H   H3316     1.0  0.93759  0.51337  0.30462  1.0000
  H   H3317     1.0  0.87216  0.41611  0.26514  1.0000
  H   H3318     1.0  0.91369  0.42654  0.25629  1.0000
  C   C4140     1.0  0.70102  0.53391  0.46219  1.0000
  C   C4141     1.0  0.81684  0.54818  0.39173  1.0000
  H   H3319     1.0  0.82921  0.54568  0.36931  1.0000
  C   C4142     1.0  0.79987  0.50490  0.39492  1.0000
  P   P138      1.0  0.53915  0.32417  0.25261  1.0000
  C   C4143     1.0  0.84614  0.37866  0.22879  1.0000
  C   C4144     1.0  0.97380  0.52098  0.39065  1.0000
  H   H3320     1.0  0.76959  0.37179  0.46738  1.0000
  C   C4145     1.0  0.81146  0.51578  0.38138  1.0000
  S   S572      1.0  0.81906  0.54189  0.22641  1.0000
  C   C4146     1.0  0.81409  0.34699  0.24459  1.0000
  S   S573      1.0  0.68442  0.38768  0.25704  1.0000
  H   H3321     1.0  0.90444  0.49186  0.31819  1.0000
  Fe  Fe289     1.0  0.66396  0.34054  0.39479  1.0000
  C   C4147     1.0  0.83756  0.60687  0.41770  1.0000
  H   H3322     1.0  0.53625  0.34403  0.43253  1.0000
  C   C4148     1.0  0.68219  0.34140  0.31239  1.0000
  H   H3323     1.0  0.61145  0.47677  0.46770  1.0000
  C   C4149     1.0  0.56171  0.53239  0.45731  1.0000
  C   C4150     1.0  0.53915  0.54468  0.45327  1.0000
  H   H3324     1.0  0.66100  0.33807  0.34854  1.0000
  C   C4151     1.0  0.97345  0.51502  0.37762  1.0000
  H   H3325     1.0  0.76756  0.33361  0.23040  1.0000
  C   C4152     1.0  0.84493  0.61624  0.28168  1.0000
  C   C4153     1.0  0.80682  0.60798  0.23787  1.0000
  C   C4154     1.0  0.58903  0.43809  0.45496  1.0000
  H   H3326     1.0  0.55116  0.44236  0.45314  1.0000
  H   H3327     1.0  0.97991  0.48612  0.41372  1.0000
  C   C4155     1.0  0.53880  0.56217  0.44050  1.0000
  S   S574      1.0  0.64296  0.33563  0.37916  1.0000
  H   H3328     1.0  0.80101  0.59992  0.42565  1.0000
  H   H3329     1.0  0.62931  0.39415  0.29022  1.0000
  H   H3330     1.0  0.74269  0.31997  0.36310  1.0000
  C   C4156     1.0  0.96856  0.54398  0.29326  1.0000
  H   H3331     1.0  0.58743  0.32591  0.29356  1.0000
  H   H3332     1.0  0.52909  0.31983  0.40937  1.0000
  H   H3333     1.0  0.92317  0.57585  0.44094  1.0000
  C   C4157     1.0  0.81269  0.48358  0.45864  1.0000
  C   C4158     1.0  0.66132  0.41001  0.43299  1.0000
  C   C4159     1.0  0.68174  0.39901  0.43946  1.0000
  C   C4160     1.0  0.69710  0.41342  0.44114  1.0000
  C   C4161     1.0  0.69207  0.43886  0.43635  1.0000
  C   C4162     1.0  0.67131  0.45012  0.43007  1.0000
  C   C4163     1.0  0.65607  0.43548  0.42830  1.0000
  P   P139      1.0  0.66644  0.48270  0.42282  1.0000
  C   C4164     1.0  0.66077  0.50047  0.43677  1.0000
  C   C4165     1.0  0.69348  0.48749  0.40908  1.0000
  C   C4166     1.0  0.70478  0.50746  0.40757  1.0000
  C   C4167     1.0  0.72642  0.50997  0.39734  1.0000
  C   C4168     1.0  0.73689  0.49266  0.38853  1.0000
  C   C4169     1.0  0.72568  0.47283  0.38988  1.0000
  C   C4170     1.0  0.70408  0.47026  0.40009  1.0000
  C   C4171     1.0  0.65441  0.52621  0.43328  1.0000
  C   C4172     1.0  0.64845  0.54020  0.44404  1.0000
  C   C4173     1.0  0.91686  0.42033  0.23490  1.0000
  H   H3334     1.0  0.97926  0.45055  0.43363  1.0000
  C   C4174     1.0  0.66031  0.48897  0.45127  1.0000
  C   C4175     1.0  0.63904  0.49212  0.41503  1.0000
  C   C4176     1.0  0.61574  0.49512  0.42412  1.0000
  C   C4177     1.0  0.59427  0.50275  0.41835  1.0000
  C   C4178     1.0  0.59589  0.50731  0.40344  1.0000
  C   C4179     1.0  0.61900  0.50422  0.39431  1.0000
  C   C4180     1.0  0.64054  0.49666  0.40006  1.0000
  H   H3335     1.0  0.65020  0.39861  0.43107  1.0000
  H   H3336     1.0  0.68633  0.37919  0.44260  1.0000
  H   H3337     1.0  0.71352  0.40465  0.44560  1.0000
  H   H3338     1.0  0.70468  0.44971  0.43724  1.0000
  H   H3339     1.0  0.64059  0.44343  0.42293  1.0000
  H   H3340     1.0  0.69791  0.52043  0.41471  1.0000
  H   H3341     1.0  0.73564  0.52480  0.39671  1.0000
  H   H3342     1.0  0.75401  0.49432  0.38090  1.0000
  H   H3343     1.0  0.73406  0.45912  0.38326  1.0000
  H   H3344     1.0  0.69589  0.45454  0.40117  1.0000
  H   H3345     1.0  0.65410  0.53546  0.42222  1.0000
  H   H3346     1.0  0.64423  0.56007  0.44129  1.0000
  H   H3347     1.0  0.62003  0.34403  0.33776  1.0000
  S   S575      1.0  0.64253  0.31901  0.41380  1.0000
  H   H3348     1.0  0.66488  0.46924  0.45440  1.0000
  H   H3349     1.0  0.61418  0.49166  0.43569  1.0000
  H   H3350     1.0  0.57636  0.50523  0.42545  1.0000
  H   H3351     1.0  0.57924  0.51326  0.39895  1.0000
  H   H3352     1.0  0.62024  0.50774  0.38274  1.0000
  H   H3353     1.0  0.65821  0.49449  0.39278  1.0000
  S   S576      1.0  0.49428  0.60184  0.46068  1.0000
  C   C4181     1.0  0.84121  0.35163  0.40775  1.0000
  H   H3354     1.0  0.85188  0.40413  0.24900  1.0000
  C   C4182     1.0  0.92672  0.57749  0.24581  1.0000
  H   H3355     1.0  0.59526  0.42167  0.45032  1.0000
  C   C4183     1.0  0.93942  0.63199  0.27106  1.0000
  H   H3356     1.0  0.83133  0.63445  0.34694  1.0000
  H   H3357     1.0  0.76447  0.33060  0.28903  1.0000
  C   C4184     1.0  0.88225  0.40685  0.23071  1.0000
  C   C4185     1.0  0.49672  0.38393  0.41226  1.0000
  H   H3358     1.0  0.52125  0.57217  0.43770  1.0000
  S   S577      1.0  0.68595  0.63735  0.45589  1.0000
  H   H3359     1.0  0.64384  0.53936  0.46676  1.0000
  C   C4186     1.0  0.86527  0.62682  0.31391  1.0000
  C   C4187     1.0  0.54365  0.33121  0.31629  1.0000
  C   C4188     1.0  0.83335  0.49187  0.44966  1.0000
  H   H3360     1.0  0.89295  0.46115  0.30817  1.0000
  C   C4189     1.0  0.93090  0.53576  0.25938  1.0000
  H   H3361     1.0  0.69259  0.55285  0.46268  1.0000
  H   H3362     1.0  0.78681  0.36189  0.33936  1.0000
  C   C4190     1.0  0.56089  0.56737  0.43164  1.0000
  H   H3363     1.0  0.96750  0.56683  0.30816  1.0000
  H   H3364     1.0  0.54619  0.60278  0.45245  1.0000
  C   C4191     1.0  0.82633  0.60503  0.29127  1.0000
  H   H3365     1.0  0.80548  0.34385  0.31772  1.0000
  C   C4192     1.0  0.85527  0.60857  0.26847  1.0000
  C   C4193     1.0  0.79567  0.39274  0.38668  1.0000
  H   H3366     1.0  0.90247  0.55307  0.24705  1.0000
  H   H3367     1.0  0.53317  0.36904  0.36152  1.0000
  C   C4194     1.0  0.77203  0.56828  0.42485  1.0000
  C   C4195     1.0  0.80674  0.52467  0.43622  1.0000
  C   C4196     1.0  0.85966  0.34730  0.41579  1.0000
  H   H3368     1.0  0.57766  0.60380  0.46606  1.0000
  C   C4197     1.0  0.53919  0.38848  0.40231  1.0000
  C   C4198     1.0  0.69998  0.37293  0.36171  1.0000
  S   S578      1.0  0.67995  0.36309  0.29628  1.0000
  H   H3369     1.0  0.80151  0.33505  0.25079  1.0000
  H   H3370     1.0  0.52173  0.54112  0.45995  1.0000
  C   C4199     1.0  0.81344  0.31960  0.46557  1.0000
  H   H3371     1.0  0.85529  0.40307  0.44983  1.0000
  C   C4200     1.0  0.55764  0.38791  0.25494  1.0000
  C   C4201     1.0  0.70912  0.49109  0.47378  1.0000
  C   C4202     1.0  0.83686  0.32096  0.43508  1.0000
  C   C4203     1.0  0.54708  0.37010  0.41349  1.0000
  C   C4204     1.0  0.72464  0.59715  0.43071  1.0000
  H   H3372     1.0  0.49376  0.36269  0.25238  1.0000
  C   C4205     1.0  0.82861  0.57893  0.27459  1.0000
  C   C4206     1.0  0.81825  0.58646  0.28770  1.0000
  H   H3373     1.0  0.88368  0.61836  0.30931  1.0000
  C   C4207     1.0  0.77825  0.31863  0.38664  1.0000
  C   C4208     1.0  0.96027  0.48376  0.23039  1.0000
  H   H3374     1.0  0.78857  0.36854  0.23108  1.0000
  H   H3375     1.0  0.97061  0.47226  0.23839  1.0000
  H   H3376     1.0  0.83262  0.62531  0.41993  1.0000
  C   C4209     1.0  0.54422  0.35523  0.24870  1.0000
  H   H3377     1.0  0.55264  0.39695  0.39399  1.0000
  Fe  Fe290     1.0  0.72306  0.32462  0.25079  1.0000
  C   C4210     1.0  0.78209  0.35510  0.47101  1.0000
  C   C4211     1.0  0.81612  0.57330  0.22588  1.0000
  C   C4212     1.0  0.71319  0.38805  0.36478  1.0000
  H   H3378     1.0  0.95718  0.52156  0.39890  1.0000
  H   H3379     1.0  0.58189  0.32691  0.22892  1.0000
  P   P140      1.0  0.77892  0.34112  0.37003  1.0000
  S   S579      1.0  0.73511  0.34772  0.26263  1.0000
  H   H3380     1.0  0.73079  0.46592  0.46007  1.0000
  H   H3381     1.0  0.62524  0.43900  0.45767  1.0000
  H   H3382     1.0  0.70048  0.33675  0.35872  1.0000
  C   C4213     1.0  0.50688  0.32387  0.26009  1.0000
  C   C4214     1.0  0.65383  0.50302  0.46203  1.0000
  H   H3383     1.0  0.91119  0.60914  0.42083  1.0000
  C   C4215     1.0  0.81560  0.40030  0.37650  1.0000
  H   H3384     1.0  0.82254  0.56418  0.27206  1.0000
  H   H3385     1.0  0.80443  0.57730  0.29529  1.0000
  C   C4216     1.0  0.55355  0.36386  0.25825  1.0000
  C   C4217     1.0  0.96458  0.64837  0.36693  1.0000
  C   C4218     1.0  0.61653  0.37380  0.27852  1.0000
  H   H3386     1.0  0.94980  0.55189  0.29189  1.0000
  H   H3387     1.0  0.56045  0.58128  0.42190  1.0000
  S   S580      1.0  0.80801  0.40464  0.46948  1.0000
  C   C4219     1.0  0.81838  0.32547  0.42693  1.0000
  C   C4220     1.0  0.82592  0.56858  0.41779  1.0000
  H   H3388     1.0  0.85557  0.54192  0.40834  1.0000
  C   C4221     1.0  0.92103  0.46464  0.28894  1.0000
  C   C4222     1.0  0.96138  0.57610  0.40219  1.0000
  H   H3389     1.0  0.70437  0.40673  0.36581  1.0000
  C   C4223     1.0  0.54095  0.60265  0.46389  1.0000
  H   H3390     1.0  0.84267  0.36387  0.39734  1.0000
  H   H3391     1.0  0.90652  0.63084  0.38137  1.0000
  H   H3392     1.0  0.72175  0.59524  0.40940  1.0000
  H   H3393     1.0  0.76336  0.57000  0.40409  1.0000
  C   C4224     1.0  0.74695  0.33078  0.32493  1.0000
  C   C4225     1.0  0.92710  0.59467  0.41879  1.0000
  C   C4226     1.0  0.75845  0.33771  0.29892  1.0000
  C   C4227     1.0  0.75344  0.36305  0.29838  1.0000
  C   C4228     1.0  0.74473  0.37242  0.31113  1.0000
  C   C4229     1.0  0.74202  0.35609  0.32439  1.0000
  P   P141      1.0  0.73920  0.40491  0.31087  1.0000
  C   C4230     1.0  0.76535  0.40971  0.31653  1.0000
  C   C4231     1.0  0.73509  0.42270  0.29332  1.0000
  C   C4232     1.0  0.74591  0.44338  0.28726  1.0000
  C   C4233     1.0  0.74188  0.45738  0.27384  1.0000
  C   C4234     1.0  0.72684  0.45101  0.26646  1.0000
  C   C4235     1.0  0.71557  0.43079  0.27257  1.0000
  C   C4236     1.0  0.71946  0.41682  0.28601  1.0000
  C   C4237     1.0  0.78786  0.41006  0.30680  1.0000
  C   C4238     1.0  0.80824  0.41390  0.31100  1.0000
  C   C4239     1.0  0.80647  0.41672  0.32510  1.0000
  C   C4240     1.0  0.78437  0.41539  0.33505  1.0000
  C   C4241     1.0  0.76392  0.41169  0.33083  1.0000
  C   C4242     1.0  0.71049  0.41460  0.32257  1.0000
  C   C4243     1.0  0.70629  0.43651  0.32766  1.0000
  C   C4244     1.0  0.68383  0.44429  0.33652  1.0000
  C   C4245     1.0  0.66522  0.43059  0.34003  1.0000
  C   C4246     1.0  0.66895  0.40929  0.33452  1.0000
  C   C4247     1.0  0.69147  0.40136  0.32577  1.0000
  S   S581      1.0  0.63807  0.36563  0.24110  1.0000
  P   P142      1.0  0.85497  0.64081  0.28598  1.0000
  H   H3394     1.0  0.74398  0.31826  0.33520  1.0000
  H   H3395     1.0  0.75613  0.37519  0.28802  1.0000
  H   H3396     1.0  0.73592  0.36308  0.33427  1.0000
  H   H3397     1.0  0.75761  0.44873  0.29275  1.0000
  H   H3398     1.0  0.75096  0.47282  0.26900  1.0000
  H   H3399     1.0  0.72430  0.46140  0.25588  1.0000
  H   H3400     1.0  0.70416  0.42568  0.26677  1.0000
  H   H3401     1.0  0.71042  0.40129  0.29063  1.0000
  H   H3402     1.0  0.78956  0.40771  0.29588  1.0000
  H   H3403     1.0  0.82528  0.41502  0.30319  1.0000
  H   H3404     1.0  0.82221  0.42000  0.32827  1.0000
  H   H3405     1.0  0.78307  0.41733  0.34602  1.0000
  H   H3406     1.0  0.74714  0.41025  0.33874  1.0000
  H   H3407     1.0  0.72032  0.44763  0.32471  1.0000
  H   H3408     1.0  0.68078  0.46108  0.34053  1.0000
  H   H3409     1.0  0.64781  0.43660  0.34687  1.0000
  H   H3410     1.0  0.65440  0.39887  0.33705  1.0000
  H   H3411     1.0  0.69395  0.38509  0.32135  1.0000
  C   C4248     1.0  0.72257  0.48485  0.46065  1.0000
  C   C4249     1.0  0.83042  0.51234  0.43851  1.0000
  C   C4250     1.0  0.83759  0.38705  0.47094  1.0000
  C   C4251     1.0  0.84717  0.58988  0.26500  1.0000
  C   C4252     1.0  0.59564  0.34136  0.29302  1.0000
  C   C4253     1.0  0.67128  0.33247  0.33863  1.0000
  H   H3412     1.0  0.89533  0.59835  0.28774  1.0000
  C   C4254     1.0  0.94085  0.59473  0.40483  1.0000
  C   C4255     1.0  0.96020  0.56053  0.25891  1.0000
  H   H3413     1.0  0.60360  0.34935  0.26971  1.0000
  H   H3414     1.0  0.95951  0.54305  0.43646  1.0000
  C   C4256     1.0  0.52989  0.35878  0.42413  1.0000
  H   H3415     1.0  0.61357  0.37112  0.31401  1.0000
  C   C4257     1.0  0.93391  0.57594  0.43013  1.0000
  C   C4258     1.0  0.58383  0.53738  0.44825  1.0000
  C   C4259     1.0  0.79505  0.34256  0.34062  1.0000
  H   H3416     1.0  0.92416  0.51874  0.26273  1.0000
  S   S582      1.0  0.68441  0.32882  0.26380  1.0000
  C   C4260     1.0  0.98623  0.48662  0.42324  1.0000
  H   H3417     1.0  0.94926  0.47292  0.27060  1.0000
  C   C4261     1.0  0.50476  0.36570  0.42359  1.0000
  H   H3418     1.0  0.56538  0.39435  0.26215  1.0000
  C   C4262     1.0  0.71081  0.34854  0.36096  1.0000
  C   C4263     1.0  0.79645  0.34076  0.46109  1.0000
  C   C4264     1.0  0.75698  0.57547  0.41446  1.0000
  P   P143      1.0  0.58944  0.32825  0.32299  1.0000
  C   C4265     1.0  0.78609  0.51604  0.44526  1.0000
  C   C4266     1.0  0.54247  0.39519  0.23279  1.0000
  C   C4267     1.0  0.75518  0.32159  0.31219  1.0000
  C   C4268     1.0  0.82269  0.38158  0.22557  1.0000
  C   C4269     1.0  0.85929  0.62545  0.32880  1.0000
  H   H3419     1.0  0.82141  0.36367  0.35265  1.0000
  H   H3420     1.0  0.97179  0.57635  0.39129  1.0000
  C   C4270     1.0  0.82469  0.38979  0.36423  1.0000
  C   C4271     1.0  0.58342  0.55490  0.43549  1.0000
  H   H3421     1.0  0.60054  0.55894  0.42863  1.0000
  H   H3422     1.0  0.87192  0.32920  0.43549  1.0000
  C   C4272     1.0  0.79346  0.36445  0.37219  1.0000
  C   C4273     1.0  0.92883  0.61164  0.27811  1.0000
  C   C4274     1.0  0.58193  0.34553  0.33734  1.0000
  H   H3423     1.0  0.99169  0.59257  0.36738  1.0000
  H   H3424     1.0  0.79441  0.34661  0.44995  1.0000
  C   C4275     1.0  0.81986  0.53747  0.37978  1.0000
  C   C4276     1.0  0.97858  0.55251  0.30246  1.0000
  C   C4277     1.0  0.80590  0.53690  0.40548  1.0000
  H   H3425     1.0  0.82341  0.56503  0.39020  1.0000
  C   C4278     1.0  0.81967  0.59232  0.42094  1.0000
  Fe  Fe291     1.0  0.67598  0.36113  0.24615  1.0000
  H   H3426     1.0  0.56715  0.37641  0.37075  1.0000
  H   H3427     1.0  0.94042  0.59378  0.28062  1.0000
  C   C4279     1.0  0.93360  0.49962  0.30010  1.0000
  H   H3428     1.0  0.84367  0.44611  0.22767  1.0000
  C   C4280     1.0  0.55614  0.47091  0.46254  1.0000
  H   H3429     1.0  0.54214  0.34907  0.34071  1.0000
  H   H3430     1.0  0.60135  0.52773  0.45111  1.0000
  H   H3431     1.0  0.73841  0.32371  0.39244  1.0000
  H   H3432     1.0  0.54552  0.34933  0.31012  1.0000
  C   C4281     1.0  0.94617  0.49481  0.28646  1.0000
  H   H3433     1.0  0.89758  0.38224  0.45363  1.0000
  H   H3434     1.0  0.87316  0.61656  0.33527  1.0000
  H   H3435     1.0  0.76942  0.36903  0.39262  1.0000
  C   C4282     1.0  0.88182  0.37885  0.46204  1.0000
  H   H3436     1.0  0.86479  0.32476  0.46307  1.0000
  C   C4283     1.0  0.79471  0.32783  0.35444  1.0000
  C   C4284     1.0  0.60590  0.44781  0.45914  1.0000
  C   C4285     1.0  0.61923  0.37989  0.29103  1.0000
  H   H3437     1.0  0.77446  0.57054  0.44634  1.0000
  H   H3438     1.0  0.56662  0.36410  0.41372  1.0000
  H   H3439     1.0  0.74723  0.61569  0.23472  1.0000
  C   C4286     1.0  0.69761  0.31828  0.31269  1.0000
  S   S583      1.0  0.71399  0.35535  0.23243  1.0000
  C   C4287     1.0  0.59792  0.46905  0.46504  1.0000
  C   C4288     1.0  0.96847  0.55733  0.41353  1.0000
  H   H3440     1.0  0.81499  0.46721  0.46694  1.0000
  H   H3441     1.0  0.95931  0.62986  0.26799  1.0000
  C   C4289     1.0  0.89054  0.64500  0.38363  1.0000
  C   C4290     1.0  0.90322  0.61430  0.28220  1.0000
  H   H3442     1.0  0.87541  0.35619  0.41159  1.0000
  H   H3443     1.0  0.81822  0.61017  0.30160  1.0000
  H   H3444     1.0  0.80155  0.61525  0.24769  1.0000
  C   C4291     1.0  0.98223  0.52471  0.28634  1.0000
  H   H3445     1.0  0.84289  0.32948  0.25664  1.0000
  C   C4292     1.0  0.95456  0.55733  0.42754  1.0000
  H   H3446     1.0  0.82423  0.41403  0.37827  1.0000
  H   H3447     1.0  0.77142  0.44897  0.22969  1.0000
  C   C4293     1.0  0.88795  0.63749  0.27965  1.0000
  H   H3448     1.0  0.97700  0.63371  0.37247  1.0000
  C   C4294     1.0  0.86918  0.61937  0.22693  1.0000
  H   H3449     1.0  0.62781  0.31879  0.23775  1.0000
  H   H3450     1.0  0.90123  0.50891  0.22611  1.0000
  C   C4295     1.0  0.95144  0.64325  0.35794  1.0000
  S   S584      1.0  0.87822  0.64069  0.35867  1.0000
  C   C4296     1.0  0.90560  0.41323  0.22569  1.0000
  C   C4297     1.0  0.81789  0.64756  0.32692  1.0000
  P   P144      1.0  0.56281  0.50909  0.47342  1.0000
  H   H3451     1.0  0.86681  0.58266  0.22629  1.0000
  C   C4298     1.0  0.84764  0.63885  0.30532  1.0000
  C   C4299     1.0  0.99161  0.49468  0.26384  1.0000
  C   C4300     1.0  0.52166  0.32318  0.31777  1.0000
  C   C4301     1.0  0.51629  0.60220  0.47085  1.0000
  H   H3452     1.0  0.65403  0.49420  0.47319  1.0000
  S   S585      1.0  0.64369  0.59019  0.47248  1.0000
  C   C4302     1.0  0.55885  0.60324  0.47158  1.0000
  C   C4303     1.0  0.56258  0.31638  0.32330  1.0000
  H   H3453     1.0  0.49422  0.36251  0.38980  1.0000
  C   C4304     1.0  0.82384  0.64915  0.31197  1.0000
  C   C4305     1.0  0.56999  0.31704  0.22636  1.0000
  C   C4306     1.0  0.69798  0.51556  0.47449  1.0000
  H   H3454     1.0  0.95648  0.39563  0.60577  1.0000
  C   C4307     1.0  0.50973  0.60230  0.48562  1.0000
  S   S586      1.0  0.98291  0.46836  0.65298  1.0000
  H   H3455     1.0  0.80416  0.37169  0.57864  1.0000
  S   S587      1.0  0.53059  0.58086  0.66578  1.0000
  C   C4308     1.0  0.84116  0.37082  0.48390  1.0000
  Fe  Fe292     1.0  0.89559  0.40506  0.62828  1.0000
  S   S588      1.0  0.88281  0.43353  0.60975  1.0000
  S   S589      1.0  0.93282  0.39477  0.63530  1.0000
  Fe  Fe293     1.0  0.84948  0.38232  0.63447  1.0000
  S   S590      1.0  0.83349  0.40839  0.61629  1.0000
  H   H3456     1.0  0.99036  0.32588  0.66093  1.0000
  Fe  Fe294     1.0  0.87240  0.40228  0.60358  1.0000
  S   S591      1.0  0.88412  0.39959  0.57989  1.0000
  Fe  Fe295     1.0  0.84490  0.43735  0.62393  1.0000
  S   S592      1.0  0.81462  0.46941  0.62980  1.0000
  S   S593      1.0  0.88743  0.37373  0.62120  1.0000
  S   S594      1.0  0.85872  0.41141  0.64291  1.0000
  S   S595      1.0  0.73056  0.59295  0.58907  1.0000
  S   S596      1.0  0.73705  0.60576  0.61916  1.0000
  Fe  Fe296     1.0  0.76011  0.60186  0.59734  1.0000
  S   S597      1.0  0.79785  0.57767  0.59265  1.0000
  Fe  Fe297     1.0  0.70678  0.59919  0.61025  1.0000
  C   C4309     1.0  0.53369  0.51170  0.48590  1.0000
  Fe  Fe298     1.0  0.55548  0.55394  0.65264  1.0000
  S   S598      1.0  0.57423  0.56847  0.63007  1.0000
  S   S599      1.0  0.57454  0.53212  0.67058  1.0000
  C   C4310     1.0  0.55219  0.60363  0.48633  1.0000
  S   S600      1.0  0.82961  0.35675  0.65240  1.0000
  C   C4311     1.0  0.77020  0.58495  0.49970  1.0000
  C   C4312     1.0  0.81498  0.33194  0.63580  1.0000
  S   S601      1.0  0.68673  0.58782  0.49079  1.0000
  H   H3457     1.0  0.92880  0.40268  0.58847  1.0000
  C   C4313     1.0  0.79647  0.32652  0.66113  1.0000
  H   H3458     1.0  0.61825  0.48183  0.50873  1.0000
  C   C4314     1.0  0.67282  0.46625  0.65748  1.0000
  C   C4315     1.0  0.91376  0.32526  0.66004  1.0000
  H   H3459     1.0  0.76118  0.43200  0.49163  1.0000
  S   S602      1.0  0.63384  0.57306  0.50729  1.0000
  C   C4316     1.0  0.53898  0.58799  0.57510  1.0000
  C   C4317     1.0  0.72893  0.56085  0.65022  1.0000
  C   C4318     1.0  0.96874  0.39201  0.68076  1.0000
  C   C4319     1.0  0.97731  0.36854  0.54248  1.0000
  H   H3460     1.0  0.53663  0.57760  0.61129  1.0000
  C   C4320     1.0  0.98447  0.40344  0.69872  1.0000
  C   C4321     1.0  0.94777  0.41045  0.68266  1.0000
  C   C4322     1.0  0.73415  0.49448  0.65791  1.0000
  C   C4323     1.0  0.65573  0.57009  0.62545  1.0000
  C   C4324     1.0  0.64441  0.55358  0.63662  1.0000
  C   C4325     1.0  0.61943  0.55319  0.63809  1.0000
  C   C4326     1.0  0.60561  0.56910  0.62832  1.0000
  C   C4327     1.0  0.61707  0.58528  0.61690  1.0000
  C   C4328     1.0  0.64210  0.58596  0.61553  1.0000
  H   H3461     1.0  0.61106  0.54023  0.64664  1.0000
  H   H3462     1.0  0.60651  0.59752  0.60922  1.0000
  H   H3463     1.0  0.65083  0.59864  0.60682  1.0000
  C   C4329     1.0  0.94643  0.39012  0.58700  1.0000
  C   C4330     1.0  0.88413  0.37406  0.57263  1.0000
  C   C4331     1.0  0.89695  0.37273  0.55851  1.0000
  C   C4332     1.0  0.89641  0.35343  0.55203  1.0000
  C   C4333     1.0  0.86966  0.33693  0.57362  1.0000
  H   H3464     1.0  0.63540  0.46758  0.66934  1.0000
  C   C4334     1.0  0.87072  0.35591  0.58025  1.0000
  H   H3465     1.0  0.90729  0.38674  0.55250  1.0000
  H   H3466     1.0  0.90652  0.35255  0.54121  1.0000
  C   C4335     1.0  0.64712  0.47250  0.65900  1.0000
  H   H3467     1.0  0.86050  0.35698  0.59105  1.0000
  C   C4336     1.0  0.81115  0.49957  0.61951  1.0000
  C   C4337     1.0  0.79145  0.51755  0.62451  1.0000
  C   C4338     1.0  0.78721  0.54149  0.61634  1.0000
  C   C4339     1.0  0.80286  0.54775  0.60318  1.0000
  C   C4340     1.0  0.82279  0.52988  0.59825  1.0000
  C   C4341     1.0  0.82685  0.50580  0.60635  1.0000
  H   H3468     1.0  0.77920  0.51281  0.63465  1.0000
  H   H3469     1.0  0.77188  0.55512  0.62021  1.0000
  H   H3470     1.0  0.83506  0.53466  0.58812  1.0000
  H   H3471     1.0  0.84211  0.49210  0.60243  1.0000
  H   H3472     1.0  0.52199  0.60273  0.69916  1.0000
  Fe  Fe299     1.0  0.54767  0.55706  0.68420  1.0000
  H   H3473     1.0  0.62795  0.54876  0.67195  1.0000
  C   C4342     1.0  0.65864  0.54383  0.68275  1.0000
  C   C4343     1.0  0.63751  0.51167  0.68267  1.0000
  H   H3474     1.0  0.58892  0.54182  0.57943  1.0000
  H   H3475     1.0  0.58312  0.63988  0.67941  1.0000
  C   C4344     1.0  0.63639  0.48542  0.64721  1.0000
  C   C4345     1.0  0.96641  0.40277  0.51776  1.0000
  H   H3476     1.0  0.82658  0.34098  0.62659  1.0000
  C   C4346     1.0  0.96940  0.44758  0.64807  1.0000
  H   H3477     1.0  0.51932  0.56123  0.56333  1.0000
  C   C4347     1.0  0.97041  0.40766  0.64310  1.0000
  C   C4348     1.0  0.94655  0.41563  0.63997  1.0000
  C   C4349     1.0  0.93419  0.43965  0.64084  1.0000
  C   C4350     1.0  0.94562  0.45555  0.64486  1.0000
  H   H3478     1.0  0.73595  0.57303  0.50255  1.0000
  C   C4351     1.0  0.74527  0.56873  0.65594  1.0000
  H   H3479     1.0  0.91584  0.44600  0.63843  1.0000
  H   H3480     1.0  0.93596  0.47416  0.64547  1.0000
  H   H3481     1.0  0.60919  0.48003  0.55661  1.0000
  H   H3482     1.0  0.93397  0.41366  0.67608  1.0000
  H   H3483     1.0  0.63366  0.56230  0.70675  1.0000
  S   S603      1.0  0.67877  0.52266  0.49052  1.0000
  C   C4352     1.0  0.55948  0.47428  0.70936  1.0000
  C   C4353     1.0  0.99191  0.35774  0.58329  1.0000
  C   C4354     1.0  0.59293  0.51849  0.55519  1.0000
  C   C4355     1.0  0.58054  0.59704  0.54404  1.0000
  C   C4356     1.0  0.72869  0.39416  0.63870  1.0000
  C   C4357     1.0  0.75250  0.38367  0.64128  1.0000
  C   C4358     1.0  0.76666  0.39805  0.64421  1.0000
  C   C4359     1.0  0.75707  0.42281  0.64464  1.0000
  C   C4360     1.0  0.73315  0.43350  0.64208  1.0000
  C   C4361     1.0  0.71906  0.41904  0.63901  1.0000
  P   P145      1.0  0.72132  0.46573  0.64231  1.0000
  C   C4362     1.0  0.68804  0.47259  0.64405  1.0000
  C   C4363     1.0  0.96203  0.38613  0.59677  1.0000
  C   C4364     1.0  0.72793  0.45400  0.67087  1.0000
  C   C4365     1.0  0.67700  0.48441  0.63207  1.0000
  C   C4366     1.0  0.73576  0.48435  0.62615  1.0000
  C   C4367     1.0  0.75773  0.47435  0.61754  1.0000
  C   C4368     1.0  0.76890  0.48902  0.60526  1.0000
  C   C4369     1.0  0.75823  0.51370  0.60137  1.0000
  C   C4370     1.0  0.73650  0.52383  0.60987  1.0000
  C   C4371     1.0  0.72539  0.50932  0.62225  1.0000
  H   H3484     1.0  0.71782  0.38294  0.63638  1.0000
  H   H3485     1.0  0.76007  0.36443  0.64098  1.0000
  H   H3486     1.0  0.78524  0.39006  0.64604  1.0000
  H   H3487     1.0  0.76855  0.43374  0.64672  1.0000
  H   H3488     1.0  0.70075  0.42693  0.63678  1.0000
  H   H3489     1.0  0.64555  0.34300  0.67248  1.0000
  H   H3490     1.0  0.72362  0.43639  0.67132  1.0000
  H   H3491     1.0  0.68809  0.48887  0.62146  1.0000
  H   H3492     1.0  0.76695  0.45554  0.62044  1.0000
  H   H3493     1.0  0.78660  0.48157  0.59920  1.0000
  H   H3494     1.0  0.76749  0.52528  0.59222  1.0000
  H   H3495     1.0  0.72872  0.54317  0.60714  1.0000
  H   H3496     1.0  0.70889  0.51775  0.62890  1.0000
  C   C4372     1.0  0.82083  0.62230  0.53166  1.0000
  H   H3497     1.0  0.50359  0.44756  0.62284  1.0000
  H   H3498     1.0  0.76799  0.33227  0.52970  1.0000
  H   H3499     1.0  0.96242  0.41589  0.50815  1.0000
  H   H3500     1.0  0.70680  0.47688  0.48330  1.0000
  C   C4373     1.0  0.50209  0.43503  0.63313  1.0000
  C   C4374     1.0  0.88365  0.31719  0.61798  1.0000
  H   H3501     1.0  0.79398  0.33124  0.67156  1.0000
  C   C4375     1.0  0.64023  0.53616  0.67851  1.0000
  C   C4376     1.0  0.50747  0.55563  0.54536  1.0000
  H   H3502     1.0  0.74489  0.51616  0.66978  1.0000
  H   H3503     1.0  0.67085  0.62108  0.68249  1.0000
  H   H3504     1.0  0.52631  0.40478  0.62419  1.0000
  H   H3505     1.0  0.74970  0.58367  0.67324  1.0000
  H   H3506     1.0  0.94112  0.38148  0.56787  1.0000
  C   C4377     1.0  0.56011  0.43309  0.70683  1.0000
  H   H3507     1.0  0.55842  0.49362  0.70483  1.0000
  H   H3508     1.0  0.61597  0.45309  0.71264  1.0000
  C   C4378     1.0  0.96900  0.36150  0.53190  1.0000
  C   C4379     1.0  0.49992  0.53712  0.49943  1.0000
  C   C4380     1.0  0.70913  0.33504  0.68525  1.0000
  H   H3509     1.0  0.85137  0.34544  0.52871  1.0000
  C   C4381     1.0  0.61249  0.49861  0.55320  1.0000
  C   C4382     1.0  0.68943  0.61358  0.55954  1.0000
  H   H3510     1.0  0.92617  0.40781  0.72388  1.0000
  C   C4383     1.0  0.64368  0.59376  0.66509  1.0000
  H   H3511     1.0  0.61443  0.44690  0.63564  1.0000
  C   C4384     1.0  0.52755  0.60314  0.49327  1.0000
  C   C4385     1.0  0.73361  0.45851  0.68307  1.0000
  S   S604      1.0  0.56790  0.56666  0.69873  1.0000
  H   H3512     1.0  0.80116  0.60217  0.49662  1.0000
  Fe  Fe300     1.0  0.66332  0.56308  0.48890  1.0000
  H   H3513     1.0  0.50211  0.63961  0.60644  1.0000
  H   H3514     1.0  0.61868  0.63263  0.54696  1.0000
  C   C4386     1.0  0.98711  0.38859  0.68872  1.0000
  C   C4387     1.0  0.50908  0.52487  0.60640  1.0000
  C   C4388     1.0  0.49812  0.40166  0.65939  1.0000
  C   C4389     1.0  0.59700  0.60516  0.54968  1.0000
  C   C4390     1.0  0.51559  0.51996  0.61991  1.0000
  H   H3515     1.0  0.57457  0.51509  0.56013  1.0000
  H   H3516     1.0  0.98226  0.52244  0.70878  1.0000
  H   H3517     1.0  0.67422  0.58295  0.55893  1.0000
  C   C4391     1.0  0.54847  0.56247  0.54428  1.0000
  S   S605      1.0  0.52846  0.52904  0.65686  1.0000
  C   C4392     1.0  0.80116  0.32731  0.49001  1.0000
  C   C4393     1.0  0.67439  0.60942  0.53903  1.0000
  C   C4394     1.0  0.57230  0.55512  0.58209  1.0000
  C   C4395     1.0  0.65131  0.49117  0.63372  1.0000
  C   C4396     1.0  0.61793  0.59632  0.66906  1.0000
  C   C4397     1.0  0.78459  0.34854  0.48543  1.0000
  C   C4398     1.0  0.55853  0.45813  0.70083  1.0000
  H   H3518     1.0  0.82556  0.36787  0.49249  1.0000
  H   H3519     1.0  0.70622  0.58677  0.68544  1.0000
  C   C4399     1.0  0.66081  0.61205  0.69244  1.0000
  S   S606      1.0  0.68709  0.56957  0.62423  1.0000
  C   C4400     1.0  0.95350  0.37801  0.57535  1.0000
  H   H3520     1.0  0.73482  0.50854  0.64827  1.0000
  C   C4401     1.0  0.60613  0.51849  0.72245  1.0000
  H   H3521     1.0  0.57390  0.64394  0.51523  1.0000
  Fe  Fe301     1.0  0.61548  0.60228  0.49126  1.0000
  H   H3522     1.0  0.67622  0.63935  0.52082  1.0000
  Fe  Fe302     1.0  0.92018  0.32172  0.49806  1.0000
  H   H3523     1.0  0.60948  0.58788  0.67971  1.0000
  H   H3524     1.0  0.54263  0.55368  0.51190  1.0000
  H   H3525     1.0  0.64296  0.50130  0.62459  1.0000
  C   C4402     1.0  0.72174  0.64255  0.66376  1.0000
  H   H3526     1.0  0.58501  0.44507  0.65904  1.0000
  H   H3527     1.0  0.50028  0.55048  0.52571  1.0000
  C   C4403     1.0  0.59222  0.32869  0.69364  1.0000
  C   C4404     1.0  0.68002  0.63207  0.53156  1.0000
  H   H3528     1.0  0.95746  0.37292  0.51141  1.0000
  C   C4405     1.0  0.55494  0.55957  0.52983  1.0000
  H   H3529     1.0  0.68070  0.45669  0.66683  1.0000
  Fe  Fe303     1.0  0.71942  0.63351  0.58154  1.0000
  H   H3530     1.0  0.97735  0.42858  0.52667  1.0000
  H   H3531     1.0  0.69308  0.60629  0.57029  1.0000
  H   H3532     1.0  0.60905  0.52321  0.71079  1.0000
  C   C4406     1.0  0.94511  0.42541  0.69260  1.0000
  H   H3533     1.0  0.67368  0.60488  0.64810  1.0000
  H   H3534     1.0  0.96034  0.46838  0.68294  1.0000
  C   C4407     1.0  0.81384  0.36340  0.52652  1.0000
  C   C4408     1.0  0.79020  0.35926  0.52712  1.0000
  P   P146      1.0  0.81851  0.39408  0.52537  1.0000
  C   C4409     1.0  0.82055  0.39689  0.54311  1.0000
  C   C4410     1.0  0.84744  0.39851  0.51331  1.0000
  C   C4411     1.0  0.84810  0.41247  0.49926  1.0000
  H   H3535     1.0  0.90720  0.32958  0.59805  1.0000
  H   H3536     1.0  0.86760  0.34729  0.49625  1.0000
  C   C4412     1.0  0.89233  0.39054  0.50883  1.0000
  C   C4413     1.0  0.86980  0.38792  0.51807  1.0000
  C   C4414     1.0  0.80961  0.38198  0.55548  1.0000
  C   C4415     1.0  0.81197  0.38374  0.56915  1.0000
  C   C4416     1.0  0.82525  0.40034  0.57055  1.0000
  C   C4417     1.0  0.83613  0.41526  0.55829  1.0000
  C   C4418     1.0  0.83357  0.41378  0.54463  1.0000
  C   C4419     1.0  0.79280  0.41644  0.51923  1.0000
  C   C4420     1.0  0.78584  0.41559  0.50649  1.0000
  C   C4421     1.0  0.76593  0.43260  0.50168  1.0000
  C   C4422     1.0  0.75227  0.45021  0.50978  1.0000
  C   C4423     1.0  0.75864  0.45082  0.52268  1.0000
  C   C4424     1.0  0.77896  0.43418  0.52734  1.0000
  C   C4425     1.0  0.71832  0.37576  0.67661  1.0000
  H   H3537     1.0  0.55911  0.42053  0.70036  1.0000
  H   H3538     1.0  0.52955  0.60022  0.56687  1.0000
  C   C4426     1.0  0.60524  0.62698  0.54287  1.0000
  H   H3539     1.0  0.77466  0.37435  0.52615  1.0000
  H   H3540     1.0  0.83147  0.42084  0.49508  1.0000
  C   C4427     1.0  0.96351  0.37860  0.51962  1.0000
  C   C4428     1.0  0.53040  0.59040  0.58950  1.0000
  H   H3541     1.0  0.90945  0.38179  0.51247  1.0000
  H   H3542     1.0  0.86991  0.37738  0.52890  1.0000
  C   C4429     1.0  0.98034  0.39285  0.54048  1.0000
  H   H3543     1.0  0.96953  0.50840  0.67005  1.0000
  H   H3544     1.0  0.82790  0.40107  0.58109  1.0000
  H   H3545     1.0  0.84726  0.42739  0.55940  1.0000
  H   H3546     1.0  0.84231  0.42535  0.53525  1.0000
  H   H3547     1.0  0.79592  0.40179  0.50021  1.0000
  C   C4430     1.0  0.62082  0.54655  0.54400  1.0000
  H   H3548     1.0  0.73672  0.46329  0.50607  1.0000
  H   H3549     1.0  0.74779  0.46420  0.52909  1.0000
  H   H3550     1.0  0.78361  0.43511  0.53731  1.0000
  Fe  Fe304     1.0  0.65598  0.59960  0.50844  1.0000
  C   C4431     1.0  0.51496  0.41074  0.63385  1.0000
  C   C4432     1.0  0.98476  0.36996  0.59491  1.0000
  H   H3551     1.0  0.73526  0.55380  0.64030  1.0000
  C   C4433     1.0  0.58372  0.51334  0.48346  1.0000
  S   S607      1.0  0.93259  0.32784  0.51699  1.0000
  C   C4434     1.0  0.60971  0.49715  0.50142  1.0000
  H   H3552     1.0  0.57358  0.64167  0.70521  1.0000
  H   H3553     1.0  0.55868  0.60629  0.52731  1.0000
  H   H3554     1.0  0.87108  0.42457  0.47897  1.0000
  C   C4435     1.0  0.96979  0.50287  0.68148  1.0000
  C   C4436     1.0  0.52356  0.49096  0.49313  1.0000
  C   C4437     1.0  0.97160  0.48794  0.71076  1.0000
  H   H3555     1.0  0.77407  0.36021  0.49294  1.0000
  C   C4438     1.0  0.49965  0.61894  0.62816  1.0000
  C   C4439     1.0  0.98183  0.42355  0.64715  1.0000
  P   P147      1.0  0.96016  0.44213  0.71317  1.0000
  H   H3556     1.0  0.91027  0.40475  0.48738  1.0000
  C   C4440     1.0  0.72823  0.47193  0.65814  1.0000
  C   C4441     1.0  0.63884  0.61913  0.64166  1.0000
  H   H3557     1.0  0.58300  0.57971  0.72124  1.0000
  C   C4442     1.0  0.51305  0.39409  0.64697  1.0000
  C   C4443     1.0  0.96462  0.47998  0.68889  1.0000
  C   C4444     1.0  0.52193  0.53471  0.48932  1.0000
  C   C4445     1.0  0.64065  0.61222  0.71731  1.0000
  C   C4446     1.0  0.69063  0.64534  0.53805  1.0000
  H   H3558     1.0  0.57319  0.56130  0.52359  1.0000
  H   H3559     1.0  0.69186  0.55589  0.65273  1.0000
  C   C4447     1.0  0.63619  0.50273  0.54658  1.0000
  C   C4448     1.0  0.56205  0.46535  0.72381  1.0000
  H   H3560     1.0  0.50898  0.50103  0.64183  1.0000
  H   H3561     1.0  0.85881  0.32324  0.57944  1.0000
  H   H3562     1.0  0.65146  0.47548  0.69380  1.0000
  H   H3563     1.0  0.72889  0.64822  0.50463  1.0000
  C   C4449     1.0  0.93839  0.32753  0.67664  1.0000
  C   C4450     1.0  0.65446  0.58945  0.69327  1.0000
  H   H3564     1.0  0.52966  0.55088  0.48408  1.0000
  C   C4451     1.0  0.64123  0.38322  0.71502  1.0000
  C   C4452     1.0  0.97602  0.51821  0.68865  1.0000
  H   H3565     1.0  0.79837  0.61008  0.52119  1.0000
  H   H3566     1.0  0.96705  0.34277  0.53295  1.0000
  C   C4453     1.0  0.52097  0.62307  0.71543  1.0000
  C   C4454     1.0  0.58769  0.53692  0.48263  1.0000
  H   H3567     1.0  0.57887  0.55266  0.47569  1.0000
  H   H3568     1.0  0.61646  0.49086  0.64852  1.0000
  C   C4455     1.0  0.72986  0.61089  0.50419  1.0000
  C   C4456     1.0  0.71209  0.57980  0.67554  1.0000
  S   S608      1.0  0.91571  0.35103  0.47821  1.0000
  H   H3569     1.0  0.50375  0.63532  0.71371  1.0000
  H   H3570     1.0  0.68920  0.53183  0.69404  1.0000
  C   C4457     1.0  0.50140  0.49348  0.50321  1.0000
  C   C4458     1.0  0.73693  0.57784  0.66872  1.0000
  H   H3571     1.0  0.52955  0.52846  0.62152  1.0000
  S   S609      1.0  0.51928  0.53310  0.69106  1.0000
  H   H3572     1.0  0.98078  0.53559  0.68279  1.0000
  C   C4459     1.0  0.53766  0.55517  0.52317  1.0000
  C   C4460     1.0  0.56393  0.55791  0.59644  1.0000
  C   C4461     1.0  0.62926  0.34396  0.68095  1.0000
  S   S610      1.0  0.75111  0.64233  0.58802  1.0000
  C   C4462     1.0  0.64004  0.57897  0.70605  1.0000
  C   C4463     1.0  0.70568  0.64157  0.65517  1.0000
  H   H3573     1.0  0.68486  0.48843  0.70077  1.0000
  C   C4464     1.0  0.68389  0.34509  0.68737  1.0000
  H   H3574     1.0  0.60413  0.59427  0.55908  1.0000
  C   C4465     1.0  0.62361  0.43368  0.71318  1.0000
  H   H3575     1.0  0.59056  0.47539  0.49449  1.0000
  C   C4466     1.0  0.61360  0.32750  0.68298  1.0000
  Fe  Fe305     1.0  0.50444  0.55446  0.67118  1.0000
  H   H3576     1.0  0.52211  0.60372  0.50463  1.0000
  H   H3577     1.0  0.50483  0.46390  0.66423  1.0000
  C   C4467     1.0  0.65398  0.60587  0.65143  1.0000
  H   H3578     1.0  0.62592  0.52342  0.50669  1.0000
  C   C4468     1.0  0.70426  0.56239  0.65715  1.0000
  C   C4469     1.0  0.59698  0.54263  0.55060  1.0000
  H   H3579     1.0  0.98005  0.38912  0.64240  1.0000
  H   H3580     1.0  0.90263  0.33472  0.65199  1.0000
  C   C4470     1.0  0.96929  0.32149  0.56122  1.0000
  H   H3581     1.0  0.97106  0.38087  0.67279  1.0000
  C   C4471     1.0  0.67466  0.52639  0.69083  1.0000
  C   C4472     1.0  0.73984  0.49892  0.67014  1.0000
  C   C4473     1.0  0.83316  0.34311  0.52857  1.0000
  C   C4474     1.0  0.67226  0.50178  0.69467  1.0000
  C   C4475     1.0  0.63327  0.59030  0.71804  1.0000
  C   C4476     1.0  0.50376  0.50445  0.63147  1.0000
  C   C4477     1.0  0.78122  0.60464  0.49905  1.0000
  C   C4478     1.0  0.76660  0.62749  0.50129  1.0000
  C   C4479     1.0  0.94595  0.32201  0.57024  1.0000
  C   C4480     1.0  0.60290  0.60898  0.65911  1.0000
  C   C4481     1.0  0.74453  0.58810  0.50228  1.0000
  C   C4482     1.0  0.83066  0.64184  0.53263  1.0000
  H   H3582     1.0  0.67100  0.33287  0.69198  1.0000
  H   H3583     1.0  0.58315  0.60977  0.66202  1.0000
  C   C4483     1.0  0.60273  0.54051  0.49104  1.0000
  S   S611      1.0  0.63533  0.63036  0.49386  1.0000
  C   C4484     1.0  0.61397  0.52063  0.50032  1.0000
  C   C4485     1.0  0.58014  0.63332  0.52498  1.0000
  H   H3584     1.0  0.94645  0.33837  0.68131  1.0000
  H   H3585     1.0  0.84166  0.63952  0.54073  1.0000
  C   C4486     1.0  0.64033  0.52671  0.54201  1.0000
  C   C4487     1.0  0.89279  0.40378  0.49476  1.0000
  H   H3586     1.0  0.73378  0.44443  0.69275  1.0000
  H   H3587     1.0  0.71191  0.63017  0.64707  1.0000
  C   C4488     1.0  0.69539  0.57275  0.66952  1.0000
  H   H3588     1.0  0.92899  0.43999  0.69370  1.0000
  H   H3589     1.0  0.52298  0.37527  0.64751  1.0000
  C   C4489     1.0  0.54293  0.57545  0.60015  1.0000
  C   C4490     1.0  0.74078  0.63062  0.50354  1.0000
  H   H3590     1.0  0.73175  0.38756  0.67258  1.0000
  H   H3591     1.0  0.65853  0.53013  0.53666  1.0000
  H   H3592     1.0  0.59745  0.37617  0.70722  1.0000
  C   C4491     1.0  0.67880  0.60037  0.55307  1.0000
  H   H3593     1.0  0.93723  0.33720  0.57565  1.0000
  H   H3594     1.0  0.64704  0.62776  0.63098  1.0000
  C   C4492     1.0  0.57175  0.61159  0.53181  1.0000
  H   H3595     1.0  0.70995  0.61336  0.50600  1.0000
  H   H3596     1.0  0.76438  0.56771  0.65045  1.0000
  S   S612      1.0  0.66202  0.59148  0.53134  1.0000
  C   C4493     1.0  0.80555  0.48518  0.56100  1.0000
  C   C4494     1.0  0.79754  0.46592  0.57152  1.0000
  C   C4495     1.0  0.77234  0.46587  0.57604  1.0000
  C   C4496     1.0  0.75506  0.48546  0.57038  1.0000
  C   C4497     1.0  0.76293  0.50525  0.56010  1.0000
  C   C4498     1.0  0.78834  0.50466  0.55519  1.0000
  P   P148      1.0  0.74065  0.53104  0.55313  1.0000
  C   C4499     1.0  0.73613  0.52787  0.53593  1.0000
  C   C4500     1.0  0.71209  0.53288  0.56632  1.0000
  C   C4501     1.0  0.69320  0.52145  0.56570  1.0000
  C   C4502     1.0  0.67096  0.52377  0.57573  1.0000
  C   C4503     1.0  0.66768  0.53693  0.58666  1.0000
  C   C4504     1.0  0.68671  0.54755  0.58765  1.0000
  C   C4505     1.0  0.70880  0.54547  0.57756  1.0000
  C   C4506     1.0  0.71360  0.53860  0.53143  1.0000
  C   C4507     1.0  0.70988  0.53578  0.51828  1.0000
  C   C4508     1.0  0.72893  0.52304  0.50925  1.0000
  C   C4509     1.0  0.75174  0.51311  0.51336  1.0000
  C   C4510     1.0  0.75531  0.51535  0.52669  1.0000
  C   C4511     1.0  0.75123  0.55938  0.55077  1.0000
  C   C4512     1.0  0.76695  0.56150  0.55938  1.0000
  C   C4513     1.0  0.77336  0.58403  0.55834  1.0000
  C   C4514     1.0  0.76379  0.60472  0.54894  1.0000
  C   C4515     1.0  0.74862  0.60267  0.54014  1.0000
  C   C4516     1.0  0.74221  0.58018  0.54108  1.0000
  H   H3597     1.0  0.82514  0.48517  0.55752  1.0000
  H   H3598     1.0  0.81088  0.45120  0.57631  1.0000
  H   H3599     1.0  0.76620  0.45090  0.58422  1.0000
  H   H3600     1.0  0.73562  0.48527  0.57426  1.0000
  H   H3601     1.0  0.79489  0.51952  0.54710  1.0000
  H   H3602     1.0  0.69548  0.51097  0.55743  1.0000
  H   H3603     1.0  0.65618  0.51558  0.57493  1.0000
  H   H3604     1.0  0.65040  0.53906  0.59435  1.0000
  H   H3605     1.0  0.68426  0.55772  0.59613  1.0000
  H   H3606     1.0  0.72323  0.55386  0.57852  1.0000
  H   H3607     1.0  0.69888  0.54930  0.53802  1.0000
  H   H3608     1.0  0.69231  0.54387  0.51497  1.0000
  H   H3609     1.0  0.72603  0.52119  0.49897  1.0000
  H   H3610     1.0  0.76660  0.50352  0.50624  1.0000
  H   H3611     1.0  0.77307  0.50738  0.52968  1.0000
  H   H3612     1.0  0.77361  0.54611  0.56732  1.0000
  H   H3613     1.0  0.78492  0.58572  0.56528  1.0000
  H   H3614     1.0  0.76756  0.62249  0.54876  1.0000
  H   H3615     1.0  0.74075  0.61886  0.53312  1.0000
  H   H3616     1.0  0.72935  0.57947  0.53468  1.0000
  C   C4517     1.0  0.97671  0.51084  0.70332  1.0000
  H   H3617     1.0  0.53273  0.47288  0.49112  1.0000
  C   C4518     1.0  0.97626  0.36160  0.57342  1.0000
  C   C4519     1.0  0.60240  0.36251  0.70048  1.0000
  C   C4520     1.0  0.62403  0.36130  0.68985  1.0000
  C   C4521     1.0  0.72635  0.35033  0.67979  1.0000
  P   P149      1.0  0.64309  0.38393  0.68625  1.0000
  C   C4522     1.0  0.63483  0.40506  0.67033  1.0000
  C   C4523     1.0  0.63710  0.39807  0.70175  1.0000
  C   C4524     1.0  0.62852  0.42346  0.70086  1.0000
  C   C4525     1.0  0.65127  0.40583  0.65699  1.0000
  C   C4526     1.0  0.64397  0.42102  0.64454  1.0000
  C   C4527     1.0  0.62013  0.43519  0.64527  1.0000
  C   C4528     1.0  0.60358  0.43421  0.65844  1.0000
  C   C4529     1.0  0.61080  0.41907  0.67090  1.0000
  C   C4530     1.0  0.67563  0.37054  0.68370  1.0000
  H   H3618     1.0  0.57015  0.34708  0.71074  1.0000
  C   C4531     1.0  0.80148  0.64797  0.51201  1.0000
  H   H3619     1.0  0.78153  0.56737  0.49795  1.0000
  H   H3620     1.0  0.65497  0.54109  0.64422  1.0000
  C   C4532     1.0  0.69305  0.38587  0.67861  1.0000
  C   C4533     1.0  0.88249  0.33562  0.55947  1.0000
  C   C4534     1.0  0.65444  0.62306  0.70453  1.0000
  C   C4535     1.0  0.90644  0.31989  0.60911  1.0000
  H   H3621     1.0  0.62508  0.43540  0.69084  1.0000
  H   H3622     1.0  0.66946  0.39430  0.65604  1.0000
  H   H3623     1.0  0.65667  0.42155  0.63428  1.0000
  H   H3624     1.0  0.49653  0.56916  0.71939  1.0000
  H   H3625     1.0  0.59749  0.41815  0.68095  1.0000
  C   C4536     1.0  0.97483  0.40990  0.52818  1.0000
  C   C4537     1.0  0.61337  0.62030  0.64538  1.0000
  H   H3626     1.0  0.65128  0.48740  0.54481  1.0000
  H   H3627     1.0  0.92172  0.35887  0.66238  1.0000
  H   H3628     1.0  0.68705  0.40561  0.67615  1.0000
  S   S613      1.0  0.55563  0.46866  0.68264  1.0000
  H   H3629     1.0  0.74449  0.48431  0.69205  1.0000
  P   P150      1.0  0.57129  0.56806  0.55260  1.0000
  C   C4538     1.0  0.96593  0.47209  0.70354  1.0000
  P   P151      1.0  0.98545  0.34643  0.55810  1.0000
  H   H3630     1.0  0.62287  0.50614  0.67963  1.0000
  C   C4539     1.0  0.73963  0.48094  0.68269  1.0000
  C   C4540     1.0  0.87070  0.41492  0.49003  1.0000
  C   C4541     1.0  0.96352  0.42214  0.70065  1.0000
  H   H3631     1.0  0.98719  0.39858  0.54835  1.0000
  C   C4542     1.0  0.65355  0.49446  0.69069  1.0000
  C   C4543     1.0  0.51387  0.55340  0.53090  1.0000
  H   H3632     1.0  0.51422  0.60410  0.59236  1.0000
  H   H3633     1.0  0.57396  0.54684  0.60471  1.0000
  S   S614      1.0  0.57360  0.60509  0.49660  1.0000
  H   H3634     1.0  0.60180  0.62974  0.63758  1.0000
  H   H3635     1.0  0.86689  0.32467  0.61371  1.0000
  H   H3636     1.0  0.79969  0.36863  0.55462  1.0000
  H   H3637     1.0  0.50305  0.47874  0.68624  1.0000
  Fe  Fe306     1.0  0.54529  0.50978  0.67625  1.0000
  C   C4544     1.0  0.55971  0.57000  0.57133  1.0000
  P   P152      1.0  0.66298  0.57530  0.67762  1.0000
  C   C4545     1.0  0.59431  0.49355  0.49319  1.0000
  C   C4546     1.0  0.55384  0.58928  0.70913  1.0000
  C   C4547     1.0  0.69566  0.63598  0.55198  1.0000
  H   H3638     1.0  0.60553  0.55882  0.49035  1.0000
  C   C4548     1.0  0.53128  0.60471  0.70717  1.0000
  H   H3639     1.0  0.82414  0.60489  0.53906  1.0000
  H   H3640     1.0  0.62438  0.56489  0.54004  1.0000
  C   C4549     1.0  0.58667  0.34614  0.70242  1.0000
  C   C4550     1.0  0.81229  0.33757  0.64935  1.0000
  C   C4551     1.0  0.92443  0.33909  0.66601  1.0000
  C   C4552     1.0  0.80626  0.62532  0.52142  1.0000
  H   H3641     1.0  0.49330  0.47759  0.50858  1.0000
  C   C4553     1.0  0.86502  0.35893  0.48602  1.0000
  H   H3642     1.0  0.65977  0.64028  0.70397  1.0000
  H   H3643     1.0  0.74591  0.34245  0.67814  1.0000
  H   H3644     1.0  0.51795  0.53718  0.59749  1.0000
  C   C4554     1.0  0.52472  0.55993  0.55209  1.0000
  C   C4555     1.0  0.56573  0.59185  0.71958  1.0000
  H   H3645     1.0  0.97282  0.48235  0.72204  1.0000
  C   C4556     1.0  0.78621  0.33534  0.52932  1.0000
  H   H3646     1.0  0.51925  0.61118  0.62692  1.0000
  C   C4557     1.0  0.92900  0.44506  0.72349  1.0000
  Fe  Fe307     1.0  0.66494  0.61635  0.47596  1.0000
  H   H3647     1.0  0.74045  0.63208  0.66224  1.0000
  S   S615      1.0  0.69280  0.63904  0.60217  1.0000
  Fe  Fe308     1.0  0.72530  0.64542  0.60926  1.0000
  H   H3648     1.0  0.80344  0.32233  0.50111  1.0000
  C   C4558     1.0  0.59699  0.64093  0.53044  1.0000
  H   H3649     1.0  0.64783  0.36356  0.71598  1.0000
  C   C4559     1.0  0.82901  0.31923  0.53096  1.0000
  H   H3650     1.0  0.49648  0.38871  0.66955  1.0000
  H   H3651     1.0  0.64445  0.50370  0.72321  1.0000
  C   C4560     1.0  0.56253  0.42423  0.72127  1.0000
  C   C4561     1.0  0.88546  0.36333  0.47521  1.0000
  H   H3652     1.0  0.99212  0.33494  0.50567  1.0000
  Fe  Fe309     1.0  0.64736  0.34735  0.86872  1.0000
  S   S616      1.0  0.61036  0.34652  0.88291  1.0000
  S   S617      1.0  0.56760  0.42941  0.74784  1.0000
  Fe  Fe310     1.0  0.64363  0.40170  0.87089  1.0000
  S   S618      1.0  0.60638  0.40303  0.88532  1.0000
  S   S619      1.0  0.66028  0.43604  0.86337  1.0000
  Fe  Fe311     1.0  0.62360  0.36551  0.89646  1.0000
  S   S620      1.0  0.62358  0.34945  0.92019  1.0000
  Fe  Fe312     1.0  0.59860  0.38361  0.86970  1.0000
  S   S621      1.0  0.56580  0.39421  0.85841  1.0000
  S   S622      1.0  0.66113  0.36511  0.88264  1.0000
  S   S623      1.0  0.63518  0.38395  0.85480  1.0000
  C   C4562     1.0  0.91657  0.46716  0.72796  1.0000
  H   H3653     1.0  0.54330  0.38112  0.81526  1.0000
  C   C4563     1.0  0.58444  0.47257  0.86388  1.0000
  Fe  Fe313     1.0  0.55725  0.33999  0.75952  1.0000
  H   H3654     1.0  0.62207  0.58228  0.72787  1.0000
  H   H3655     1.0  0.96021  0.36200  0.96883  1.0000
  Fe  Fe314     1.0  0.64793  0.60948  0.88495  1.0000
  S   S624      1.0  0.61354  0.59595  0.89761  1.0000
  S   S625      1.0  0.67092  0.61601  0.89939  1.0000
  Fe  Fe315     1.0  0.63360  0.61089  0.85635  1.0000
  S   S626      1.0  0.59822  0.59816  0.86710  1.0000
  C   C4564     1.0  0.56846  0.46255  0.84132  1.0000
  Fe  Fe316     1.0  0.59421  0.62436  0.88170  1.0000
  H   H3656     1.0  0.75651  0.56425  0.87197  1.0000
  Fe  Fe317     1.0  0.62104  0.57067  0.88185  1.0000
  S   S627      1.0  0.61317  0.53199  0.89048  1.0000
  S   S628      1.0  0.65708  0.58187  0.87031  1.0000
  C   C4565     1.0  0.63824  0.47837  0.81876  1.0000
  H   H3657     1.0  0.56300  0.47787  0.73031  1.0000
  H   H3658     1.0  0.52608  0.34211  0.95657  1.0000
  Fe  Fe318     1.0  0.61176  0.34084  0.75498  1.0000
  C   C4566     1.0  0.71206  0.56847  0.93764  1.0000
  Fe  Fe319     1.0  0.57796  0.34960  0.78344  1.0000
  S   S629      1.0  0.57995  0.33832  0.80719  1.0000
  H   H3659     1.0  0.90502  0.56368  0.93870  1.0000
  S   S630      1.0  0.60489  0.37050  0.76772  1.0000
  H   H3660     1.0  0.56521  0.47419  0.95516  1.0000
  C   C4567     1.0  0.84994  0.54236  0.96742  1.0000
  C   C4568     1.0  0.54153  0.32451  0.86940  1.0000
  H   H3661     1.0  0.69269  0.34321  0.96731  1.0000
  S   S631      1.0  0.54587  0.36965  0.77278  1.0000
  H   H3662     1.0  0.64298  0.64358  0.80238  1.0000
  H   H3663     1.0  0.61825  0.31668  0.73010  1.0000
  C   C4569     1.0  0.98654  0.35956  0.91148  1.0000
  H   H3664     1.0  0.58260  0.54901  0.76322  1.0000
  H   H3665     1.0  0.88356  0.41177  0.73786  1.0000
  C   C4570     1.0  0.53328  0.62616  0.72557  1.0000
  H   H3666     1.0  0.51199  0.53533  0.92848  1.0000
  H   H3667     1.0  0.78044  0.56387  0.93770  1.0000
  C   C4571     1.0  0.54373  0.47697  0.92648  1.0000
  C   C4572     1.0  0.74311  0.56196  0.88193  1.0000
  H   H3668     1.0  0.60641  0.48590  0.78924  1.0000
  C   C4573     1.0  0.60021  0.61565  0.82719  1.0000
  C   C4574     1.0  0.62201  0.62465  0.82142  1.0000
  C   C4575     1.0  0.55360  0.48068  0.91164  1.0000
  C   C4576     1.0  0.78127  0.49094  0.92828  1.0000
  S   S632      1.0  0.52797  0.32653  0.75296  1.0000
  H   H3669     1.0  0.69395  0.55566  0.91711  1.0000
  Fe  Fe320     1.0  0.57369  0.38821  0.75591  1.0000
  C   C4577     1.0  0.58480  0.43763  0.93455  1.0000
  C   C4578     1.0  0.52511  0.52801  0.74491  1.0000
  H   H3670     1.0  0.98650  0.36445  0.88883  1.0000
  H   H3671     1.0  0.59345  0.57054  0.81469  1.0000
  S   S633      1.0  0.58715  0.31823  0.77150  1.0000
  C   C4579     1.0  0.65119  0.49429  0.80796  1.0000
  C   C4580     1.0  0.93732  0.34960  0.94721  1.0000
  H   H3672     1.0  0.86105  0.50908  0.95854  1.0000
  H   H3673     1.0  0.56647  0.55650  0.88141  1.0000
  C   C4581     1.0  0.49936  0.50926  0.73583  1.0000
  P   P153      1.0  0.55149  0.44708  0.93757  1.0000
  H   H3674     1.0  0.51615  0.63611  0.95307  1.0000
  H   H3675     1.0  0.73148  0.58446  0.96763  1.0000
  C   C4582     1.0  0.98427  0.40159  0.93977  1.0000
  C   C4583     1.0  0.67312  0.34986  0.91727  1.0000
  H   H3676     1.0  0.71189  0.34954  0.91475  1.0000
  H   H3677     1.0  0.66982  0.36705  0.90980  1.0000
  C   C4584     1.0  0.64737  0.46259  0.87106  1.0000
  C   C4585     1.0  0.63111  0.46154  0.88437  1.0000
  C   C4586     1.0  0.62087  0.48302  0.89007  1.0000
  C   C4587     1.0  0.62699  0.50568  0.88270  1.0000
  C   C4588     1.0  0.64336  0.50677  0.86942  1.0000
  C   C4589     1.0  0.65353  0.48528  0.86365  1.0000
  H   H3678     1.0  0.62642  0.44420  0.89029  1.0000
  H   H3679     1.0  0.60814  0.48210  0.90027  1.0000
  H   H3680     1.0  0.64823  0.52412  0.86362  1.0000
  H   H3681     1.0  0.66620  0.48626  0.85338  1.0000
  C   C4590     1.0  0.57104  0.38144  0.84279  1.0000
  C   C4591     1.0  0.55378  0.38825  0.83364  1.0000
  C   C4592     1.0  0.55723  0.37659  0.82184  1.0000
  C   C4593     1.0  0.57782  0.35784  0.81927  1.0000
  C   C4594     1.0  0.59524  0.35166  0.82822  1.0000
  C   C4595     1.0  0.59205  0.36361  0.83974  1.0000
  H   H3682     1.0  0.53737  0.40198  0.83594  1.0000
  H   H3683     1.0  0.59208  0.47461  0.92713  1.0000
  H   H3684     1.0  0.60537  0.35827  0.84667  1.0000
  H   H3685     1.0  0.52491  0.38465  0.95814  1.0000
  H   H3686     1.0  0.76614  0.64182  0.97443  1.0000
  H   H3687     1.0  0.56705  0.52641  0.84495  1.0000
  C   C4596     1.0  0.96511  0.37887  0.96226  1.0000
  C   C4597     1.0  0.69692  0.34011  0.92029  1.0000
  C   C4598     1.0  0.55891  0.53993  0.85170  1.0000
  H   H3688     1.0  0.79850  0.63315  0.91491  1.0000
  C   C4599     1.0  0.58228  0.52364  0.73049  1.0000
  H   H3689     1.0  0.72856  0.63472  0.97125  1.0000
  C   C4600     1.0  0.78588  0.63866  0.97344  1.0000
  C   C4601     1.0  0.91728  0.33835  0.94891  1.0000
  H   H3690     1.0  0.53171  0.44792  0.80421  1.0000
  C   C4602     1.0  0.58267  0.61870  0.81862  1.0000
  C   C4603     1.0  0.75644  0.52382  0.94653  1.0000
  C   C4604     1.0  0.56379  0.46181  0.86678  1.0000
  C   C4605     1.0  0.74919  0.56248  0.89493  1.0000
  H   H3691     1.0  0.54736  0.61976  0.96775  1.0000
  H   H3692     1.0  0.86183  0.45099  0.74561  1.0000
  H   H3693     1.0  0.66395  0.36151  0.95035  1.0000
  H   H3694     1.0  0.53054  0.54181  0.90246  1.0000
  C   C4606     1.0  0.52839  0.49676  0.93246  1.0000
  H   H3695     1.0  0.54280  0.54541  0.79795  1.0000
  H   H3696     1.0  0.61359  0.48604  0.84778  1.0000
  H   H3697     1.0  0.55786  0.57958  0.80249  1.0000
  H   H3698     1.0  0.76934  0.51914  0.91112  1.0000
  H   H3699     1.0  0.63051  0.61638  0.92778  1.0000
  C   C4607     1.0  0.55574  0.45691  0.85549  1.0000
  C   C4608     1.0  0.57828  0.33244  0.97024  1.0000
  C   C4609     1.0  0.57036  0.51704  0.80732  1.0000
  C   C4610     1.0  0.60533  0.46711  0.79438  1.0000
  H   H3700     1.0  0.88294  0.48639  0.73927  1.0000
  H   H3701     1.0  0.51382  0.49115  0.80674  1.0000
  C   C4611     1.0  0.59084  0.51190  0.81399  1.0000
  C   C4612     1.0  0.53978  0.37025  0.96159  1.0000
  S   S634      1.0  0.78802  0.64741  0.94433  1.0000
  C   C4613     1.0  0.96297  0.42245  0.95953  1.0000
  C   C4614     1.0  0.59995  0.45518  0.92920  1.0000
  H   H3702     1.0  0.71469  0.60643  0.93530  1.0000
  C   C4615     1.0  0.60855  0.63969  0.79832  1.0000
  C   C4616     1.0  0.67652  0.49232  0.80689  1.0000
  S   S635      1.0  0.58286  0.36012  0.74187  1.0000
  C   C4617     1.0  0.53293  0.63160  0.85314  1.0000
  C   C4618     1.0  0.52489  0.48717  0.79654  1.0000
  H   H3703     1.0  0.60536  0.41267  0.78586  1.0000
  C   C4619     1.0  0.50158  0.55202  0.72666  1.0000
  H   H3704     1.0  0.70353  0.53212  0.94253  1.0000
  H   H3705     1.0  0.56183  0.45863  0.83275  1.0000
  C   C4620     1.0  0.60585  0.45024  0.78595  1.0000
  H   H3706     1.0  0.87974  0.59064  0.95550  1.0000
  C   C4621     1.0  0.60282  0.63168  0.96039  1.0000
  H   H3707     1.0  0.60678  0.45605  0.77443  1.0000
  H   H3708     1.0  0.56723  0.53200  0.72483  1.0000
  C   C4622     1.0  0.68918  0.47407  0.81636  1.0000
  C   C4623     1.0  0.62739  0.41870  0.72640  1.0000
  C   C4624     1.0  0.60517  0.42573  0.79235  1.0000
  C   C4625     1.0  0.52356  0.52001  0.92377  1.0000
  C   C4626     1.0  0.53488  0.46281  0.79513  1.0000
  C   C4627     1.0  0.56461  0.56081  0.76448  1.0000
  P   P154      1.0  0.51766  0.32018  0.89816  1.0000
  C   C4628     1.0  0.52159  0.31698  0.87972  1.0000
  H   H3709     1.0  0.89555  0.52282  0.94041  1.0000
  H   H3710     1.0  0.53764  0.36482  0.88818  1.0000
  H   H3711     1.0  0.70875  0.47263  0.81567  1.0000
  P   P155      1.0  0.60566  0.48061  0.82003  1.0000
  C   C4629     1.0  0.53787  0.57471  0.86924  1.0000
  H   H3712     1.0  0.80537  0.59562  0.93348  1.0000
  C   C4630     1.0  0.53712  0.42713  0.93168  1.0000
  C   C4631     1.0  0.60448  0.41795  0.80714  1.0000
  C   C4632     1.0  0.76997  0.58538  0.96478  1.0000
  H   H3713     1.0  0.53016  0.58819  0.87610  1.0000
  C   C4633     1.0  0.70812  0.55698  0.90752  1.0000
  C   C4634     1.0  0.68112  0.34714  0.80151  1.0000
  C   C4635     1.0  0.67015  0.35672  0.81398  1.0000
  C   C4636     1.0  0.66077  0.34144  0.82654  1.0000
  C   C4637     1.0  0.96161  0.33695  0.94320  1.0000
  H   H3714     1.0  0.55575  0.43867  0.78062  1.0000
  C   C4638     1.0  0.67521  0.33738  0.96925  1.0000
  H   H3715     1.0  0.54000  0.44811  0.85775  1.0000
  S   S636      1.0  0.58203  0.64200  0.75114  1.0000
  H   H3716     1.0  0.69362  0.63338  0.91699  1.0000
  C   C4639     1.0  0.54857  0.45758  0.78190  1.0000
  C   C4640     1.0  0.97648  0.42308  0.94547  1.0000
  H   H3717     1.0  0.63731  0.49323  0.74991  1.0000
  H   H3718     1.0  0.64180  0.50830  0.80038  1.0000
  H   H3719     1.0  0.76750  0.56491  0.89487  1.0000
  H   H3720     1.0  0.57085  0.40840  0.91960  1.0000
  C   C4641     1.0  0.83714  0.62815  0.97125  1.0000
  C   C4642     1.0  0.50954  0.61757  0.82290  1.0000
  H   H3721     1.0  0.56604  0.61141  0.82316  1.0000
  S   S637      1.0  0.62794  0.63935  0.86989  1.0000
  H   H3722     1.0  0.56553  0.46569  0.90682  1.0000
  H   H3723     1.0  0.68824  0.35901  0.79173  1.0000
  H   H3724     1.0  0.66885  0.37594  0.81394  1.0000
  H   H3725     1.0  0.65234  0.34862  0.83627  1.0000
  C   C4643     1.0  0.57191  0.32181  0.91869  1.0000
  C   C4644     1.0  0.56690  0.56067  0.80575  1.0000
  C   C4645     1.0  0.79295  0.57273  0.96795  1.0000
  C   C4646     1.0  0.66847  0.58004  0.95761  1.0000
  H   H3726     1.0  0.59050  0.47654  0.87262  1.0000
  C   C4647     1.0  0.52512  0.31686  0.85047  1.0000
  H   H3727     1.0  0.83875  0.63831  0.94825  1.0000
  C   C4648     1.0  0.60412  0.43467  0.81559  1.0000
  C   C4649     1.0  0.89244  0.46924  0.73591  1.0000
  H   H3728     1.0  0.59424  0.64893  0.90375  1.0000
  C   C4650     1.0  0.55121  0.40965  0.92340  1.0000
  C   C4651     1.0  0.65893  0.34781  0.95974  1.0000
  C   C4652     1.0  0.58697  0.55563  0.81263  1.0000
  H   H3729     1.0  0.53131  0.55826  0.83911  1.0000
  H   H3730     1.0  0.55902  0.32952  0.84702  1.0000
  P   P156      1.0  0.73980  0.56086  0.92459  1.0000
  H   H3731     1.0  0.60425  0.42801  0.82699  1.0000
  C   C4653     1.0  0.59749  0.47788  0.84975  1.0000
  C   C4654     1.0  0.67658  0.45761  0.82676  1.0000
  H   H3732     1.0  0.61381  0.52788  0.82257  1.0000
  C   C4655     1.0  0.53392  0.52366  0.90908  1.0000
  H   H3733     1.0  0.62989  0.38602  0.93633  1.0000
  H   H3734     1.0  0.57796  0.58831  0.77067  1.0000
  H   H3735     1.0  0.52141  0.48980  0.75147  1.0000
  C   C4656     1.0  0.79149  0.59795  0.92708  1.0000
  H   H3736     1.0  0.59995  0.60388  0.94964  1.0000
  H   H3737     1.0  0.54848  0.61675  0.85129  1.0000
  H   H3738     1.0  0.63534  0.62112  0.72657  1.0000
  C   C4657     1.0  0.95744  0.40032  0.96793  1.0000
  H   H3739     1.0  0.68382  0.55418  0.89437  1.0000
  C   C4658     1.0  0.81993  0.49114  0.97252  1.0000
  H   H3740     1.0  0.51859  0.40857  0.88604  1.0000
  H   H3741     1.0  0.63716  0.46136  0.92150  1.0000
  H   H3742     1.0  0.52008  0.49450  0.94380  1.0000
  H   H3743     1.0  0.58534  0.52593  0.86581  1.0000
  C   C4659     1.0  0.53849  0.55802  0.84848  1.0000
  H   H3744     1.0  0.61088  0.33693  0.82660  1.0000
  C   C4660     1.0  0.65121  0.45966  0.82794  1.0000
  C   C4661     1.0  0.55851  0.54138  0.80317  1.0000
  C   C4662     1.0  0.60382  0.45956  0.80934  1.0000
  C   C4663     1.0  0.52794  0.57575  0.85715  1.0000
  C   C4664     1.0  0.54888  0.50399  0.90301  1.0000
  H   H3745     1.0  0.52034  0.52500  0.78591  1.0000
  C   C4665     1.0  0.98863  0.61229  0.96539  1.0000
  C   C4666     1.0  0.65368  0.33759  0.92405  1.0000
  H   H3746     1.0  0.50580  0.38162  0.92179  1.0000
  C   C4667     1.0  0.59870  0.53137  0.81690  1.0000
  H   H3747     1.0  0.89868  0.34778  0.95265  1.0000
  H   H3748     1.0  0.55729  0.50691  0.89168  1.0000
  H   H3749     1.0  0.55420  0.45702  0.87778  1.0000
  C   C4668     1.0  0.62563  0.44776  0.92612  1.0000
  H   H3750     1.0  0.59701  0.60598  0.83818  1.0000
  H   H3751     1.0  0.79025  0.46575  0.94745  1.0000
  C   C4669     1.0  0.62193  0.50173  0.74449  1.0000
  C   C4670     1.0  0.50871  0.62916  0.85370  1.0000
  C   C4671     1.0  0.76899  0.51427  0.92259  1.0000
  C   C4672     1.0  0.59589  0.41273  0.93784  1.0000
  H   H3752     1.0  0.62505  0.34697  0.95401  1.0000
  H   H3753     1.0  0.63911  0.38179  0.73755  1.0000
  H   H3754     1.0  0.76830  0.60367  0.95820  1.0000
  H   H3755     1.0  0.81351  0.50381  0.96336  1.0000
  C   C4673     1.0  0.62597  0.50757  0.72944  1.0000
  H   H3756     1.0  0.65143  0.58467  0.96512  1.0000
  C   C4674     1.0  0.54310  0.50120  0.77152  1.0000
  C   C4675     1.0  0.55281  0.47666  0.77017  1.0000
  P   P157      1.0  0.54732  0.52555  0.75599  1.0000
  H   H3757     1.0  0.68634  0.50501  0.79878  1.0000
  C   C4676     1.0  0.54412  0.55418  0.76182  1.0000
  C   C4677     1.0  0.69796  0.55051  0.94482  1.0000
  H   H3758     1.0  0.85696  0.62387  0.97038  1.0000
  H   H3759     1.0  0.98817  0.38670  0.75622  1.0000
  C   C4678     1.0  0.57805  0.51811  0.74559  1.0000
  H   H3760     1.0  0.51365  0.63198  0.80007  1.0000
  C   C4679     1.0  0.59806  0.50699  0.75255  1.0000
  H   H3761     1.0  0.93362  0.36807  0.94917  1.0000
  C   C4680     1.0  0.52263  0.43732  0.96550  1.0000
  C   C4681     1.0  0.75513  0.60486  0.91085  1.0000
  C   C4682     1.0  0.55844  0.55676  0.87231  1.0000
  H   H3762     1.0  0.56322  0.47220  0.75995  1.0000
  C   C4683     1.0  0.56909  0.53949  0.86350  1.0000
  C   C4684     1.0  0.68878  0.63915  0.89514  1.0000
  H   H3763     1.0  0.60443  0.39886  0.81207  1.0000
  C   C4685     1.0  0.54105  0.44943  0.95640  1.0000
  H   H3764     1.0  0.59520  0.50264  0.76419  1.0000
  C   C4686     1.0  0.63687  0.33955  0.96188  1.0000
  H   H3765     1.0  0.62274  0.42649  0.73604  1.0000
  S   S638      1.0  0.65135  0.32559  0.74600  1.0000
  H   H3766     1.0  0.74102  0.60796  0.90451  1.0000
  H   H3767     1.0  0.65627  0.41703  0.92585  1.0000
  H   H3768     1.0  0.57394  0.33142  0.92654  1.0000
  H   H3769     1.0  0.68639  0.44339  0.83409  1.0000
  H   H3770     1.0  0.64178  0.44670  0.83611  1.0000
  C   C4687     1.0  0.58974  0.47261  0.83838  1.0000
  C   C4688     1.0  0.86443  0.52713  0.95788  1.0000
  C   C4689     1.0  0.88419  0.53484  0.94755  1.0000
  C   C4690     1.0  0.88957  0.55779  0.94661  1.0000
  C   C4691     1.0  0.87534  0.57298  0.95608  1.0000
  C   C4692     1.0  0.97584  0.41103  0.73758  1.0000
  C   C4693     1.0  0.56211  0.58314  0.76872  1.0000
  H   H3771     1.0  0.56343  0.50226  0.80548  1.0000
  C   C4694     1.0  0.51876  0.59267  0.76764  1.0000
  H   H3772     1.0  0.98297  0.59541  0.97139  1.0000
  H   H3773     1.0  0.53357  0.33799  0.91951  1.0000
  C   C4695     1.0  0.68250  0.59793  0.95064  1.0000
  C   C4696     1.0  0.70220  0.55620  0.89453  1.0000
  C   C4697     1.0  0.51578  0.50744  0.74484  1.0000
  H   H3774     1.0  0.74695  0.53636  0.95372  1.0000
  H   H3775     1.0  0.67622  0.61634  0.95279  1.0000
  H   H3776     1.0  0.66523  0.54249  0.96004  1.0000
  H   H3777     1.0  0.50484  0.56541  0.76195  1.0000
  C   C4698     1.0  0.55904  0.32718  0.96548  1.0000
  C   C4699     1.0  0.67624  0.55631  0.95474  1.0000
  C   C4700     1.0  0.54340  0.32408  0.85488  1.0000
  H   H3778     1.0  0.76647  0.63919  0.90036  1.0000
  C   C4701     1.0  0.76869  0.50046  0.95220  1.0000
  H   H3779     1.0  0.95648  0.43910  0.96393  1.0000
  H   H3780     1.0  0.84556  0.57679  0.97419  1.0000
  C   C4702     1.0  0.97131  0.63201  0.95990  1.0000
  C   C4703     1.0  0.49865  0.60146  0.83462  1.0000
  S   S639      1.0  0.56468  0.63324  0.79368  1.0000
  C   C4704     1.0  0.70425  0.59222  0.94070  1.0000
  S   S640      1.0  0.64423  0.62145  0.83205  1.0000
  H   H3781     1.0  0.98071  0.44029  0.93896  1.0000
  C   C4705     1.0  0.49944  0.64550  0.94919  1.0000
  C   C4706     1.0  0.69813  0.64354  0.90617  1.0000
  C   C4707     1.0  0.51810  0.55023  0.73559  1.0000
  C   C4708     1.0  0.53997  0.39329  0.91985  1.0000
  C   C4709     1.0  0.89280  0.42722  0.73511  1.0000
  H   H3782     1.0  0.76847  0.49504  0.96367  1.0000
  H   H3783     1.0  0.61643  0.31969  0.85815  1.0000
  C   C4710     1.0  0.78762  0.61919  0.91660  1.0000
  C   C4711     1.0  0.77722  0.58007  0.92946  1.0000
  H   H3784     1.0  0.53754  0.61671  0.77310  1.0000
  C   C4712     1.0  0.62614  0.63662  0.80693  1.0000
  C   C4713     1.0  0.52104  0.57011  0.76374  1.0000
  C   C4714     1.0  0.85587  0.56515  0.96659  1.0000
  C   C4715     1.0  0.75617  0.53079  0.93171  1.0000
  C   C4716     1.0  0.82678  0.63663  0.95875  1.0000
  C   C4717     1.0  0.62155  0.40536  0.93459  1.0000
  C   C4718     1.0  0.50336  0.35205  0.89784  1.0000
  C   C4719     1.0  0.60862  0.61913  0.94896  1.0000
  C   C4720     1.0  0.58681  0.63065  0.80416  1.0000
  H   H3785     1.0  0.50121  0.60545  0.76837  1.0000
  H   H3786     1.0  0.71472  0.55875  0.87165  1.0000
  H   H3787     1.0  0.58479  0.39881  0.94231  1.0000
  H   H3788     1.0  0.95809  0.40566  0.74030  1.0000
  C   C4721     1.0  0.56363  0.44026  0.72981  1.0000
  C   C4722     1.0  0.71961  0.55883  0.88173  1.0000
  C   C4723     1.0  0.73169  0.56011  0.90784  1.0000
  C   C4724     1.0  0.54036  0.34613  0.96075  1.0000
  H   H3789     1.0  0.49986  0.44387  0.94046  1.0000
  C   C4725     1.0  0.50713  0.39493  0.89070  1.0000
  H   H3790     1.0  0.81816  0.45905  0.96510  1.0000
  H   H3791     1.0  0.52570  0.56612  0.73503  1.0000
  C   C4726     1.0  0.51793  0.37001  0.89201  1.0000
  C   C4727     1.0  0.71449  0.64732  0.95157  1.0000
  H   H3792     1.0  0.80854  0.58178  0.96382  1.0000
  H   H3793     1.0  0.79085  0.47815  0.92122  1.0000
  C   C4728     1.0  0.76950  0.62262  0.90846  1.0000
  C   C4729     1.0  0.63641  0.42284  0.92862  1.0000
  H   H3794     1.0  0.55110  0.37943  0.91383  1.0000
  H   H3795     1.0  0.56488  0.61221  0.73575  1.0000
  H   H3796     1.0  0.55562  0.33089  0.87248  1.0000
  C   C4730     1.0  0.78100  0.48398  0.94308  1.0000
  H   H3797     1.0  0.94193  0.64197  0.92743  1.0000
  C   C4731     1.0  0.75892  0.58340  0.92134  1.0000
  C   C4732     1.0  0.62575  0.62618  0.93665  1.0000
  H   H3798     1.0  0.52099  0.62903  0.82438  1.0000
  C   C4733     1.0  0.55783  0.37543  0.96730  1.0000
  P   P158      1.0  0.50241  0.60016  0.85269  1.0000
  S   S641      1.0  0.94033  0.62975  0.96225  1.0000
  H   H3799     1.0  0.81607  0.33834  0.96738  1.0000
  C   C4734     1.0  0.70151  0.31830  0.93038  1.0000
  C   C4735     1.0  0.88055  0.44930  0.73948  1.0000
  C   C4736     1.0  0.53925  0.59914  0.77018  1.0000
  C   C4737     1.0  0.55107  0.46456  0.96194  1.0000
  H   H3800     1.0  0.58987  0.62596  0.97004  1.0000
  H   H3801     1.0  0.51453  0.42534  0.96183  1.0000
  C   C4738     1.0  0.51134  0.42965  0.93488  1.0000
  C   C4739     1.0  0.54920  0.32580  0.91450  1.0000
  C   C4740     1.0  0.82251  0.46588  0.97344  1.0000
  C   C4741     1.0  0.52875  0.50632  0.78474  1.0000
  C   C4742     1.0  0.80106  0.64214  0.95981  1.0000
  C   C4743     1.0  0.71273  0.64424  0.96641  1.0000
  H   H3802     1.0  0.73175  0.64030  0.94487  1.0000
  C   C4744     1.0  0.50565  0.61912  0.80903  1.0000
  C   C4745     1.0  0.55545  0.61018  0.72783  1.0000
  C   C4746     1.0  0.68278  0.32227  0.80166  1.0000
  H   H3803     1.0  0.89935  0.48620  0.97258  1.0000
  C   C4747     1.0  0.63636  0.39351  0.72729  1.0000
  C   C4748     1.0  0.50014  0.41329  0.93130  1.0000
  H   H3804     1.0  0.56332  0.40501  0.72580  1.0000
  H   H3805     1.0  0.52664  0.31685  0.83916  1.0000
  C   C4749     1.0  0.63675  0.64603  0.93564  1.0000
  C   C4750     1.0  0.51450  0.39472  0.92413  1.0000
  C   C4751     1.0  0.97850  0.37927  0.94812  1.0000
  C   C4752     1.0  0.57701  0.35665  0.97158  1.0000
  H   H3806     1.0  0.55713  0.39398  0.96836  1.0000
  P   P159      1.0  0.98777  0.35133  0.94087  1.0000
  C   C4753     1.0  0.91693  0.42507  0.72716  1.0000
  H   H3807     1.0  0.96766  0.35691  0.91469  1.0000
  C   C4754     1.0  0.63089  0.32085  0.97360  1.0000
  C   C4755     1.0  0.74924  0.57458  0.97012  1.0000
  H   H3808     1.0  0.61195  0.64873  0.78713  1.0000
  H   H3809     1.0  0.49259  0.49319  0.73567  1.0000
  H   H3810     1.0  0.68783  0.64903  0.87250  1.0000
  C   C4756     1.0  0.66207  0.31674  0.82665  1.0000
  C   C4757     1.0  0.98184  0.42853  0.72514  1.0000
  H   H3811     1.0  0.92532  0.48289  0.72530  1.0000
  H   H3812     1.0  0.50201  0.66883  0.11688  1.0000
  C   C4758     1.0  0.98870  0.88493  0.19130  1.0000
  Fe  Fe321     1.0  0.63243  0.89762  0.98964  1.0000
  S   S642      1.0  0.65586  0.86907  0.00357  1.0000
  H   H3813     1.0  0.85936  0.68395  0.04480  1.0000
  Fe  Fe322     1.0  0.60399  0.85993  0.98707  1.0000
  S   S643      1.0  0.62497  0.82879  0.00103  1.0000
  H   H3814     1.0  0.67921  0.77450  0.99355  1.0000
  Fe  Fe323     1.0  0.62054  0.85658  0.01482  1.0000
  S   S644      1.0  0.61049  0.84920  0.03911  1.0000
  Fe  Fe324     1.0  0.65840  0.84407  0.98849  1.0000
  C   C4759     1.0  0.84572  0.67600  0.11948  1.0000
  S   S645      1.0  0.59664  0.88687  0.00186  1.0000
  H   H3815     1.0  0.97258  0.68068  0.19052  1.0000
  H   H3816     1.0  0.98661  0.68361  0.97951  1.0000
  C   C4760     1.0  0.50882  0.71846  0.13457  1.0000
  C   C4761     1.0  0.64426  0.72825  0.17874  1.0000
  Fe  Fe325     1.0  0.67407  0.70718  0.11803  1.0000
  S   S646      1.0  0.63681  0.71155  0.13247  1.0000
  S   S647      1.0  0.70936  0.68597  0.12536  1.0000
  Fe  Fe326     1.0  0.65289  0.73215  0.09111  1.0000
  S   S648      1.0  0.61384  0.73809  0.10331  1.0000
  S   S649      1.0  0.66379  0.74393  0.06704  1.0000
  Fe  Fe327     1.0  0.63012  0.74946  0.11900  1.0000
  S   S650      1.0  0.60908  0.78336  0.12767  1.0000
  H   H3817     1.0  0.91354  0.72386  0.13399  1.0000
  C   C4762     1.0  0.58462  0.75685  0.04307  1.0000
  S   S651      1.0  0.66852  0.74616  0.10589  1.0000
  S   S652      1.0  0.66180  0.69261  0.10202  1.0000
  Fe  Fe328     1.0  0.61512  0.90731  0.18192  1.0000
  S   S653      1.0  0.65344  0.88482  0.18165  1.0000
  S   S654      1.0  0.60783  0.94880  0.17667  1.0000
  Fe  Fe329     1.0  0.59064  0.86260  0.19195  1.0000
  S   S655      1.0  0.62721  0.83698  0.19243  1.0000
  S   S656      1.0  0.55889  0.84273  0.19665  1.0000
  Fe  Fe330     1.0  0.63632  0.86388  0.20275  1.0000
  H   H3818     1.0  0.97165  0.87840  0.19333  1.0000
  Fe  Fe331     1.0  0.64048  0.86017  0.17136  1.0000
  S   S657      1.0  0.66479  0.84153  0.15343  1.0000
  S   S658      1.0  0.59869  0.88788  0.20390  1.0000
  S   S659      1.0  0.60333  0.88434  0.16998  1.0000
  Fe  Fe332     1.0  0.82134  0.72832  0.18434  1.0000
  S   S660      1.0  0.82951  0.76421  0.18588  1.0000
  C   C4763     1.0  0.68161  0.78100  0.18042  1.0000
  S   S661      1.0  0.81479  0.72192  0.16372  1.0000
  C   C4764     1.0  0.71842  0.69506  0.13903  1.0000
  C   C4765     1.0  0.70314  0.71320  0.14630  1.0000
  C   C4766     1.0  0.89673  0.92340  0.19365  1.0000
  C   C4767     1.0  0.52362  0.65966  0.05033  1.0000
  H   H3819     1.0  0.78594  0.69739  0.10366  1.0000
  H   H3820     1.0  0.60520  0.76229  0.00462  1.0000
  H   H3821     1.0  0.68546  0.72221  0.14343  1.0000
  Fe  Fe333     1.0  0.83716  0.68411  0.17000  1.0000
  C   C4768     1.0  0.70281  0.97030  0.00467  1.0000
  H   H3822     1.0  0.91142  0.65137  0.20519  1.0000
  C   C4769     1.0  0.62528  0.79963  0.13426  1.0000
  C   C4770     1.0  0.65062  0.79210  0.13415  1.0000
  C   C4771     1.0  0.66275  0.80521  0.13987  1.0000
  C   C4772     1.0  0.64947  0.82540  0.14613  1.0000
  C   C4773     1.0  0.62412  0.83270  0.14633  1.0000
  C   C4774     1.0  0.61220  0.82020  0.14016  1.0000
  H   H3823     1.0  0.66083  0.77609  0.12979  1.0000
  H   H3824     1.0  0.68233  0.79931  0.13978  1.0000
  H   H3825     1.0  0.61368  0.84810  0.15118  1.0000
  H   H3826     1.0  0.59259  0.82606  0.14035  1.0000
  H   H3827     1.0  0.73792  0.78445  0.98809  1.0000
  C   C4775     1.0  0.62819  0.96346  0.16248  1.0000
  C   C4776     1.0  0.96029  0.68454  0.17069  1.0000
  H   H3828     1.0  0.87474  0.65613  0.22434  1.0000
  C   C4777     1.0  0.58449  0.72369  0.02375  1.0000
  H   H3829     1.0  0.67906  0.95186  0.13648  1.0000
  S   S662      1.0  0.86424  0.66003  0.15553  1.0000
  C   C4778     1.0  0.81994  0.77074  0.20338  1.0000
  C   C4779     1.0  0.56625  0.81142  0.99157  1.0000
  H   H3830     1.0  0.82831  0.80703  0.19701  1.0000
  C   C4780     1.0  0.56306  0.82956  0.97927  1.0000
  H   H3831     1.0  0.56096  0.93921  0.98299  1.0000
  C   C4781     1.0  0.71078  0.71968  0.15734  1.0000
  C   C4782     1.0  0.58589  0.78159  0.03728  1.0000
  H   H3832     1.0  0.51575  0.77440  0.13781  1.0000
  H   H3833     1.0  0.63593  0.90020  0.14034  1.0000
  C   C4783     1.0  0.52025  0.75676  0.13456  1.0000
  C   C4784     1.0  0.52410  0.95252  0.97811  1.0000
  H   H3834     1.0  0.89600  0.75067  0.98527  1.0000
  C   C4785     1.0  0.55483  0.79096  0.99469  1.0000
  H   H3835     1.0  0.75315  0.66956  0.13717  1.0000
  C   C4786     1.0  0.59639  0.71084  0.01257  1.0000
  C   C4787     1.0  0.87130  0.65542  0.07815  1.0000
  H   H3836     1.0  0.60725  0.74617  0.15384  1.0000
  S   S663      1.0  0.78733  0.71582  0.19790  1.0000
  C   C4788     1.0  0.71200  0.96374  0.98001  1.0000
  C   C4789     1.0  0.53123  0.84999  0.20897  1.0000
  H   H3837     1.0  0.54029  0.88107  0.21390  1.0000
  P   P160      1.0  0.77017  0.73609  0.98666  1.0000
  C   C4790     1.0  0.91291  0.68581  0.07598  1.0000
  C   C4791     1.0  0.66519  0.76542  0.00091  1.0000
  C   C4792     1.0  0.89552  0.68508  0.08899  1.0000
  C   C4793     1.0  0.72285  0.78161  0.18276  1.0000
  H   H3838     1.0  0.70506  0.80393  0.16548  1.0000
  C   C4794     1.0  0.62333  0.75855  0.00730  1.0000
  P   P161      1.0  0.87589  0.66252  0.09432  1.0000
  H   H3839     1.0  0.55707  0.77714  0.00429  1.0000
  C   C4795     1.0  0.55687  0.76909  0.06448  1.0000
  H   H3840     1.0  0.54590  0.76420  0.07509  1.0000
  C   C4796     1.0  0.81859  0.71518  0.99042  1.0000
  H   H3841     1.0  0.98438  0.73573  0.99562  1.0000
  H   H3842     1.0  0.53339  0.67655  0.15099  1.0000
  C   C4797     1.0  0.62490  0.81980  0.04691  1.0000
  C   C4798     1.0  0.61824  0.81087  0.06174  1.0000
  C   C4799     1.0  0.62996  0.78754  0.06807  1.0000
  C   C4800     1.0  0.64835  0.77309  0.05956  1.0000
  C   C4801     1.0  0.65490  0.78205  0.04477  1.0000
  C   C4802     1.0  0.64324  0.80531  0.03844  1.0000
  H   H3843     1.0  0.60411  0.82202  0.06836  1.0000
  H   H3844     1.0  0.62497  0.78089  0.07952  1.0000
  H   H3845     1.0  0.66916  0.77100  0.03821  1.0000
  H   H3846     1.0  0.64865  0.81208  0.02703  1.0000
  H   H3847     1.0  0.57709  0.81338  0.99881  1.0000
  C   C4803     1.0  0.63042  0.96248  0.98886  1.0000
  C   C4804     1.0  0.60951  0.96504  0.99984  1.0000
  H   H3848     1.0  0.86215  0.67006  0.12412  1.0000
  C   C4805     1.0  0.55842  0.79362  0.05868  1.0000
  C   C4806     1.0  0.62777  0.74434  0.02070  1.0000
  H   H3849     1.0  0.92398  0.94605  0.18663  1.0000
  C   C4807     1.0  0.79424  0.71161  0.99280  1.0000
  C   C4808     1.0  0.80213  0.69376  0.12207  1.0000
  C   C4809     1.0  0.74982  0.65208  0.19549  1.0000
  H   H3850     1.0  0.58508  0.96220  0.09453  1.0000
  C   C4810     1.0  0.82121  0.79352  0.20587  1.0000
  H   H3851     1.0  0.67344  0.93496  0.10393  1.0000
  C   C4811     1.0  0.54371  0.74899  0.12668  1.0000
  C   C4812     1.0  0.61095  0.76879  0.16763  1.0000
  C   C4813     1.0  0.62266  0.77038  0.17834  1.0000
  C   C4814     1.0  0.88958  0.67191  0.14438  1.0000
  H   H3852     1.0  0.61635  0.70625  0.00995  1.0000
  H   H3853     1.0  0.82489  0.68029  0.08874  1.0000
  H   H3854     1.0  0.61878  0.78760  0.18204  1.0000
  H   H3855     1.0  0.59104  0.93923  0.15402  1.0000
  H   H3856     1.0  0.86248  0.69349  0.06769  1.0000
  H   H3857     1.0  0.76587  0.97762  0.17040  1.0000
  C   C4815     1.0  0.74132  0.68353  0.14282  1.0000
  H   H3858     1.0  0.59183  0.69524  0.99553  1.0000
  C   C4816     1.0  0.69867  0.75509  0.20075  1.0000
  C   C4817     1.0  0.91905  0.92954  0.19373  1.0000
  C   C4818     1.0  0.92781  0.71832  0.08119  1.0000
  C   C4819     1.0  0.92884  0.70246  0.07209  1.0000
  H   H3859     1.0  0.71111  0.65835  0.18371  1.0000
  H   H3860     1.0  0.94071  0.73066  0.07841  1.0000
  H   H3861     1.0  0.94238  0.70268  0.06216  1.0000
  C   C4820     1.0  0.75270  0.75074  0.00159  1.0000
  H   H3862     1.0  0.84541  0.65853  0.00654  1.0000
  C   C4821     1.0  0.86525  0.67451  0.06669  1.0000
  H   H3863     1.0  0.65885  0.89961  0.21451  1.0000
  C   C4822     1.0  0.66556  0.95440  0.10239  1.0000
  H   H3864     1.0  0.91026  0.72970  0.10131  1.0000
  H   H3865     1.0  0.51662  0.67630  0.99256  1.0000
  H   H3866     1.0  0.57417  0.81885  0.04061  1.0000
  C   C4823     1.0  0.74971  0.72357  0.97997  1.0000
  C   C4824     1.0  0.84670  0.67404  0.10524  1.0000
  H   H3867     1.0  0.71988  0.95370  0.22009  1.0000
  H   H3868     1.0  0.55750  0.76041  0.12396  1.0000
  C   C4825     1.0  0.65137  0.74027  0.02392  1.0000
  H   H3869     1.0  0.91357  0.70932  0.99801  1.0000
  C   C4826     1.0  0.51326  0.83559  0.21163  1.0000
  C   C4827     1.0  0.68981  0.65836  0.16849  1.0000
  H   H3870     1.0  0.69071  0.80924  0.21027  1.0000
  C   C4828     1.0  0.50729  0.66256  0.04109  1.0000
  H   H3871     1.0  0.76994  0.68567  0.00233  1.0000
  C   C4829     1.0  0.75177  0.73789  0.01591  1.0000
  C   C4830     1.0  0.97228  0.96494  0.18343  1.0000
  H   H3872     1.0  0.54624  0.70630  0.00092  1.0000
  S   S664      1.0  0.60036  0.67034  0.12393  1.0000
  C   C4831     1.0  0.80693  0.67004  0.00544  1.0000
  H   H3873     1.0  0.60018  0.67991  0.04037  1.0000
  H   H3874     1.0  0.63144  0.65409  0.07849  1.0000
  C   C4832     1.0  0.57276  0.79985  0.04505  1.0000
  C   C4833     1.0  0.61613  0.74715  0.16231  1.0000
  H   H3875     1.0  0.56521  0.68162  0.08064  1.0000
  H   H3876     1.0  0.68926  0.65116  0.98651  1.0000
  H   H3877     1.0  0.75153  0.66234  0.18451  1.0000
  C   C4834     1.0  0.88955  0.90257  0.20299  1.0000
  C   C4835     1.0  0.95920  0.95656  0.19724  1.0000
  H   H3878     1.0  0.63740  0.71038  0.16339  1.0000
  H   H3879     1.0  0.63904  0.69567  0.07687  1.0000
  H   H3880     1.0  0.51937  0.67092  0.05844  1.0000
  C   C4836     1.0  0.67002  0.75074  0.01400  1.0000
  C   C4837     1.0  0.54045  0.78838  0.98544  1.0000
  H   H3881     1.0  0.91468  0.67317  0.06894  1.0000
  C   C4838     1.0  0.58090  0.67704  0.09945  1.0000
  H   H3882     1.0  0.67161  0.88834  0.12150  1.0000
  C   C4839     1.0  0.55688  0.71041  0.00759  1.0000
  H   H3883     1.0  0.76686  0.68134  0.15655  1.0000
  Fe  Fe334     1.0  0.78240  0.70652  0.17785  1.0000
  C   C4840     1.0  0.53199  0.71134  0.12609  1.0000
  C   C4841     1.0  0.49906  0.95945  0.98414  1.0000
  H   H3884     1.0  0.96518  0.70234  0.16608  1.0000
  H   H3885     1.0  0.94613  0.68347  0.15233  1.0000
  H   H3886     1.0  0.63704  0.95204  0.06353  1.0000
  C   C4842     1.0  0.57815  0.98109  0.07358  1.0000
  H   H3887     1.0  0.79080  0.93917  0.03885  1.0000
  P   P162      1.0  0.65138  0.75076  0.19954  1.0000
  H   H3888     1.0  0.82346  0.73259  0.98474  1.0000
  C   C4843     1.0  0.73386  0.70837  0.16098  1.0000
  H   H3889     1.0  0.77705  0.90699  0.03134  1.0000
  H   H3890     1.0  0.81047  0.73553  0.21323  1.0000
  H   H3891     1.0  0.67915  0.67659  0.16929  1.0000
  H   H3892     1.0  0.87785  0.70753  0.15018  1.0000
  C   C4844     1.0  0.73697  0.74871  0.02734  1.0000
  C   C4845     1.0  0.64772  0.95004  0.15402  1.0000
  C   C4846     1.0  0.51884  0.65749  0.99158  1.0000
  C   C4847     1.0  0.54805  0.86753  0.09882  1.0000
  C   C4848     1.0  0.54831  0.84238  0.10334  1.0000
  C   C4849     1.0  0.57068  0.82588  0.10419  1.0000
  C   C4850     1.0  0.59280  0.83445  0.10050  1.0000
  C   C4851     1.0  0.59276  0.85965  0.09584  1.0000
  C   C4852     1.0  0.57017  0.87618  0.09514  1.0000
  P   P163      1.0  0.62126  0.87085  0.09153  1.0000
  C   C4853     1.0  0.62001  0.89635  0.07640  1.0000
  C   C4854     1.0  0.62573  0.88063  0.10691  1.0000
  C   C4855     1.0  0.64955  0.88162  0.10818  1.0000
  C   C4856     1.0  0.65314  0.88874  0.12018  1.0000
  C   C4857     1.0  0.63300  0.89535  0.13086  1.0000
  C   C4858     1.0  0.60923  0.89470  0.12960  1.0000
  C   C4859     1.0  0.60558  0.88730  0.11772  1.0000
  C   C4860     1.0  0.60838  0.89616  0.06523  1.0000
  C   C4861     1.0  0.60686  0.91605  0.05368  1.0000
  C   C4862     1.0  0.61722  0.93617  0.05305  1.0000
  C   C4863     1.0  0.62896  0.93647  0.06406  1.0000
  C   C4864     1.0  0.63032  0.91669  0.07571  1.0000
  C   C4865     1.0  0.64611  0.84603  0.08670  1.0000
  C   C4866     1.0  0.65252  0.84171  0.07255  1.0000
  C   C4867     1.0  0.67039  0.82130  0.06916  1.0000
  C   C4868     1.0  0.68178  0.80490  0.07989  1.0000
  C   C4869     1.0  0.67552  0.80907  0.09399  1.0000
  C   C4870     1.0  0.65765  0.82941  0.09742  1.0000
  H   H3893     1.0  0.53067  0.88032  0.09829  1.0000
  H   H3894     1.0  0.53120  0.83565  0.10632  1.0000
  H   H3895     1.0  0.57103  0.80638  0.10792  1.0000
  H   H3896     1.0  0.60979  0.82123  0.10143  1.0000
  H   H3897     1.0  0.56965  0.89572  0.09185  1.0000
  H   H3898     1.0  0.66542  0.87632  0.10007  1.0000
  C   C4871     1.0  0.74912  0.69022  0.15373  1.0000
  H   H3899     1.0  0.50366  0.95486  0.01895  1.0000
  H   H3900     1.0  0.59374  0.89903  0.13814  1.0000
  H   H3901     1.0  0.58708  0.88629  0.11724  1.0000
  H   H3902     1.0  0.60070  0.88048  0.06534  1.0000
  H   H3903     1.0  0.59821  0.91548  0.04500  1.0000
  C   C4872     1.0  0.61324  0.70716  0.04717  1.0000
  H   H3904     1.0  0.63947  0.91735  0.08410  1.0000
  H   H3905     1.0  0.64312  0.85339  0.06420  1.0000
  H   H3906     1.0  0.67462  0.81758  0.05834  1.0000
  H   H3907     1.0  0.69490  0.78857  0.07737  1.0000
  H   H3908     1.0  0.68393  0.79609  0.10240  1.0000
  H   H3909     1.0  0.65226  0.83159  0.10856  1.0000
  C   C4873     1.0  0.91841  0.69220  0.97985  1.0000
  C   C4874     1.0  0.75066  0.94311  0.20360  1.0000
  C   C4875     1.0  0.89458  0.70123  0.09802  1.0000
  C   C4876     1.0  0.86348  0.66920  0.05372  1.0000
  C   C4877     1.0  0.72988  0.95914  0.20925  1.0000
  H   H3910     1.0  0.59992  0.94994  0.00432  1.0000
  C   C4878     1.0  0.72324  0.92060  0.15961  1.0000
  C   C4879     1.0  0.70335  0.92930  0.16987  1.0000
  C   C4880     1.0  0.69906  0.91546  0.18381  1.0000
  C   C4881     1.0  0.71440  0.89273  0.18747  1.0000
  C   C4882     1.0  0.73402  0.88355  0.17713  1.0000
  C   C4883     1.0  0.73870  0.89791  0.16326  1.0000
  P   P164      1.0  0.75495  0.85512  0.18205  1.0000
  C   C4884     1.0  0.76196  0.83572  0.16888  1.0000
  C   C4885     1.0  0.78165  0.86377  0.18488  1.0000
  C   C4886     1.0  0.80484  0.85874  0.17590  1.0000
  C   C4887     1.0  0.82520  0.86578  0.17826  1.0000
  C   C4888     1.0  0.82246  0.87842  0.18935  1.0000
  C   C4889     1.0  0.79930  0.88418  0.19802  1.0000
  C   C4890     1.0  0.77896  0.87681  0.19586  1.0000
  C   C4891     1.0  0.74667  0.83932  0.15886  1.0000
  C   C4892     1.0  0.75105  0.82288  0.14954  1.0000
  C   C4893     1.0  0.77048  0.80256  0.15029  1.0000
  C   C4894     1.0  0.78539  0.79855  0.16046  1.0000
  C   C4895     1.0  0.78095  0.81484  0.16985  1.0000
  C   C4896     1.0  0.74090  0.83629  0.19806  1.0000
  C   C4897     1.0  0.75362  0.82509  0.20939  1.0000
  H   H3911     1.0  0.51672  0.82027  0.20625  1.0000
  C   C4898     1.0  0.74917  0.65068  0.22061  1.0000
  H   H3912     1.0  0.73979  0.78848  0.17875  1.0000
  C   C4899     1.0  0.71812  0.83048  0.19850  1.0000
  H   H3913     1.0  0.72665  0.93150  0.14884  1.0000
  H   H3914     1.0  0.69126  0.94677  0.16702  1.0000
  H   H3915     1.0  0.68368  0.92224  0.19178  1.0000
  H   H3916     1.0  0.71100  0.88237  0.19836  1.0000
  H   H3917     1.0  0.75429  0.89154  0.15529  1.0000
  H   H3918     1.0  0.80737  0.84945  0.16706  1.0000
  H   H3919     1.0  0.84316  0.86136  0.17151  1.0000
  H   H3920     1.0  0.83826  0.88371  0.19127  1.0000
  H   H3921     1.0  0.79722  0.89410  0.20656  1.0000
  H   H3922     1.0  0.76117  0.88111  0.20283  1.0000
  H   H3923     1.0  0.73082  0.85426  0.15853  1.0000
  H   H3924     1.0  0.73891  0.82553  0.14202  1.0000
  H   H3925     1.0  0.77357  0.78954  0.14328  1.0000
  H   H3926     1.0  0.80004  0.78242  0.16138  1.0000
  H   H3927     1.0  0.79201  0.81077  0.17810  1.0000
  H   H3928     1.0  0.77142  0.82884  0.20923  1.0000
  P   P165      1.0  0.60270  0.73273  0.03366  1.0000
  H   H3929     1.0  0.78507  0.70181  0.12846  1.0000
  C   C4900     1.0  0.78858  0.68886  0.00032  1.0000
  H   H3930     1.0  0.70807  0.83869  0.18981  1.0000
  C   C4901     1.0  0.81335  0.79883  0.21983  1.0000
  C   C4902     1.0  0.96222  0.91923  0.22375  1.0000
  S   S665      1.0  0.65323  0.84844  0.22255  1.0000
  C   C4903     1.0  0.70530  0.95507  0.99482  1.0000
  C   C4904     1.0  0.62389  0.71133  0.05773  1.0000
  C   C4905     1.0  0.82492  0.68171  0.09960  1.0000
  P   P166      1.0  0.69621  0.95886  0.02385  1.0000
  C   C4906     1.0  0.68137  0.93279  0.02814  1.0000
  C   C4907     1.0  0.72578  0.95223  0.02915  1.0000
  C   C4908     1.0  0.74165  0.92944  0.02828  1.0000
  C   C4909     1.0  0.82358  0.68587  0.12783  1.0000
  H   H3931     1.0  0.63821  0.78050  0.98735  1.0000
  H   H3932     1.0  0.67251  0.65476  0.15191  1.0000
  H   H3933     1.0  0.54899  0.73908  0.03560  1.0000
  C   C4910     1.0  0.68690  0.91300  0.03935  1.0000
  C   C4911     1.0  0.67555  0.89273  0.04234  1.0000
  C   C4912     1.0  0.65822  0.89237  0.03440  1.0000
  C   C4913     1.0  0.65174  0.91257  0.02373  1.0000
  C   C4914     1.0  0.66308  0.93279  0.02069  1.0000
  C   C4915     1.0  0.67930  0.70339  0.20543  1.0000
  H   H3934     1.0  0.52497  0.72784  0.02111  1.0000
  C   C4916     1.0  0.63750  0.78324  0.21873  1.0000
  C   C4917     1.0  0.91059  0.71781  0.09409  1.0000
  C   C4918     1.0  0.54491  0.72261  0.01895  1.0000
  C   C4919     1.0  0.67204  0.88939  0.22120  1.0000
  C   C4920     1.0  0.52660  0.86982  0.21594  1.0000
  H   H3935     1.0  0.54968  0.93279  0.15393  1.0000
  H   H3936     1.0  0.88469  0.93515  0.18660  1.0000
  H   H3937     1.0  0.70223  0.93644  0.99845  1.0000
  C   C4921     1.0  0.70833  0.81356  0.21003  1.0000
  H   H3938     1.0  0.73619  0.91542  0.02466  1.0000
  H   H3939     1.0  0.53676  0.69390  0.12259  1.0000
  C   C4922     1.0  0.50272  0.74169  0.13836  1.0000
  S   S666      1.0  0.69586  0.82240  0.98023  1.0000
  C   C4923     1.0  0.62667  0.66875  0.06964  1.0000
  H   H3940     1.0  0.69994  0.91312  0.04578  1.0000
  H   H3941     1.0  0.68017  0.87727  0.05081  1.0000
  H   H3942     1.0  0.64952  0.87660  0.03664  1.0000
  H   H3943     1.0  0.63796  0.91255  0.01773  1.0000
  H   H3944     1.0  0.65776  0.94828  0.01240  1.0000
  C   C4924     1.0  0.63082  0.69216  0.06880  1.0000
  C   C4925     1.0  0.55863  0.72920  0.02705  1.0000
  H   H3945     1.0  0.93866  0.88204  0.21975  1.0000
  C   C4926     1.0  0.58258  0.66357  0.11331  1.0000
  C   C4927     1.0  0.59367  0.96450  0.13365  1.0000
  C   C4928     1.0  0.91144  0.71205  0.98694  1.0000
  S   S667      1.0  0.80408  0.66830  0.18243  1.0000
  C   C4929     1.0  0.90489  0.88757  0.21221  1.0000
  H   H3946     1.0  0.82314  0.68756  0.13876  1.0000
  C   C4930     1.0  0.58261  0.70440  0.00445  1.0000
  H   H3947     1.0  0.61148  0.96757  0.13415  1.0000
  H   H3948     1.0  0.54790  0.94147  0.00858  1.0000
  H   H3949     1.0  0.97118  0.67055  0.02140  1.0000
  C   C4931     1.0  0.77273  0.94285  0.03608  1.0000
  H   H3950     1.0  0.71128  0.78064  0.03345  1.0000
  C   C4932     1.0  0.63874  0.74979  0.18437  1.0000
  C   C4933     1.0  0.64200  0.76894  0.99745  1.0000
  C   C4934     1.0  0.91189  0.70521  0.13447  1.0000
  H   H3951     1.0  0.69894  0.73378  0.16293  1.0000
  H   H3952     1.0  0.77970  0.93745  0.18526  1.0000
  S   S668      1.0  0.95548  0.70233  0.11503  1.0000
  H   H3953     1.0  0.88206  0.70086  0.10829  1.0000
  C   C4935     1.0  0.58211  0.97665  0.12196  1.0000
  H   H3954     1.0  0.59729  0.78699  0.02693  1.0000
  C   C4936     1.0  0.89173  0.69598  0.14367  1.0000
  C   C4937     1.0  0.70336  0.79021  0.17530  1.0000
  H   H3955     1.0  0.56751  0.72029  0.11615  1.0000
  H   H3956     1.0  0.71702  0.74983  0.98657  1.0000
  C   C4938     1.0  0.96325  0.65765  0.03030  1.0000
  S   S669      1.0  0.52630  0.76261  0.98948  1.0000
  C   C4939     1.0  0.67924  0.76309  0.19309  1.0000
  H   H3957     1.0  0.59797  0.78448  0.16335  1.0000
  H   H3958     1.0  0.66680  0.78792  0.17442  1.0000
  C   C4940     1.0  0.56981  0.75078  0.05670  1.0000
  S   S670      1.0  0.74272  0.71688  0.17490  1.0000
  H   H3959     1.0  0.73617  0.73866  0.03835  1.0000
  C   C4941     1.0  0.72287  0.77236  0.02460  1.0000
  C   C4942     1.0  0.75016  0.66377  0.20649  1.0000
  H   H3960     1.0  0.65718  0.71238  0.18277  1.0000
  H   H3961     1.0  0.59701  0.76252  0.20601  1.0000
  C   C4943     1.0  0.90761  0.65710  0.13586  1.0000
  C   C4944     1.0  0.96723  0.65595  0.04425  1.0000
  C   C4945     1.0  0.93001  0.69040  0.12600  1.0000
  H   H3962     1.0  0.71213  0.80334  0.00823  1.0000
  S   S671      1.0  0.97094  0.65245  0.09020  1.0000
  H   H3963     1.0  0.78390  0.78380  0.98462  1.0000
  C   C4946     1.0  0.64093  0.71218  0.22233  1.0000
  C   C4947     1.0  0.55869  0.94495  0.14496  1.0000
  C   C4948     1.0  0.58206  0.94855  0.14501  1.0000
  C   C4949     1.0  0.53427  0.94692  0.00172  1.0000
  Fe  Fe335     1.0  0.98159  0.67924  0.09982  1.0000
  C   C4950     1.0  0.72191  0.98198  0.20092  1.0000
  C   C4951     1.0  0.66398  0.96229  0.14301  1.0000
  C   C4952     1.0  0.72343  0.78515  0.01042  1.0000
  C   C4953     1.0  0.73819  0.77439  0.99899  1.0000
  H   H3964     1.0  0.54874  0.80780  0.06478  1.0000
  H   H3965     1.0  0.56858  0.73184  0.06144  1.0000
  C   C4954     1.0  0.94940  0.67393  0.16294  1.0000
  H   H3966     1.0  0.73569  0.75755  0.20122  1.0000
  H   H3967     1.0  0.68775  0.92061  0.22042  1.0000
  C   C4955     1.0  0.92780  0.66631  0.12668  1.0000
  H   H3968     1.0  0.65538  0.72961  0.03416  1.0000
  C   C4956     1.0  0.83703  0.69607  0.99533  1.0000
  C   C4957     1.0  0.60389  0.77271  0.21170  1.0000
  P   P167      1.0  0.96166  0.92411  0.20474  1.0000
  H   H3969     1.0  0.62826  0.94885  0.10923  1.0000
  C   C4958     1.0  0.72047  0.76417  0.19551  1.0000
  C   C4959     1.0  0.76493  0.92469  0.03191  1.0000
  C   C4960     1.0  0.56627  0.67127  0.09141  1.0000
  H   H3970     1.0  0.98414  0.95219  0.17691  1.0000
  H   H3971     1.0  0.59083  0.69189  0.09493  1.0000
  C   C4961     1.0  0.74363  0.80833  0.22099  1.0000
  H   H3972     1.0  0.85589  0.69866  0.99332  1.0000
  C   C4962     1.0  0.92727  0.89355  0.21227  1.0000
  C   C4963     1.0  0.54942  0.72640  0.12231  1.0000
  H   H3973     1.0  0.61649  0.95134  0.04392  1.0000
  H   H3974     1.0  0.62650  0.72956  0.05753  1.0000
  Fe  Fe336     1.0  0.62389  0.69964  0.11559  1.0000
  H   H3975     1.0  0.68803  0.74804  0.01666  1.0000
  C   C4964     1.0  0.63304  0.72699  0.16772  1.0000
  C   C4965     1.0  0.52458  0.66185  0.15087  1.0000
  H   H3976     1.0  0.76226  0.71948  0.01837  1.0000
  C   C4966     1.0  0.65791  0.72009  0.21002  1.0000
  H   H3977     1.0  0.65697  0.78162  0.21835  1.0000
  H   H3978     1.0  0.75666  0.92539  0.21012  1.0000
  H   H3979     1.0  0.65035  0.93024  0.15601  1.0000
  S   S672      1.0  0.84643  0.69175  0.18946  1.0000
  H   H3980     1.0  0.69250  0.70894  0.19580  1.0000
  C   C4967     1.0  0.75739  0.96589  0.03645  1.0000
  Fe  Fe337     1.0  0.81167  0.67866  0.20145  1.0000
  C   C4968     1.0  0.80273  0.69144  0.10803  1.0000
  C   C4969     1.0  0.68103  0.97152  0.09756  1.0000
  C   C4970     1.0  0.93433  0.91484  0.20321  1.0000
  C   C4971     1.0  0.83118  0.67350  0.00282  1.0000
  C   C4972     1.0  0.62938  0.77029  0.21080  1.0000
  H   H3981     1.0  0.68888  0.96947  0.05279  1.0000
  H   H3982     1.0  0.92560  0.67403  0.98542  1.0000
  C   C4973     1.0  0.60906  0.68357  0.04807  1.0000
  H   H3983     1.0  0.81464  0.81630  0.22168  1.0000
  H   H3984     1.0  0.70002  0.66645  0.20951  1.0000
  C   C4974     1.0  0.50211  0.66683  0.14611  1.0000
  H   H3985     1.0  0.75171  0.68289  0.20396  1.0000
  H   H3986     1.0  0.87183  0.89829  0.20338  1.0000
  H   H3987     1.0  0.94168  0.65474  0.12021  1.0000
  C   C4975     1.0  0.70900  0.72590  0.97531  1.0000
  C   C4976     1.0  0.63997  0.96237  0.10555  1.0000
  C   C4977     1.0  0.54164  0.94583  0.98709  1.0000
  C   C4978     1.0  0.75566  0.97278  0.18123  1.0000
  H   H3988     1.0  0.93228  0.96779  0.21543  1.0000
  C   C4979     1.0  0.50937  0.95437  0.00756  1.0000
  C   C4980     1.0  0.98928  0.90659  0.19550  1.0000
  H   H3989     1.0  0.50651  0.69713  0.01403  1.0000
  C   C4981     1.0  0.55300  0.65224  0.09725  1.0000
  H   H3990     1.0  0.69718  0.74167  0.21068  1.0000
  H   H3991     1.0  0.99201  0.70524  0.01777  1.0000
  C   C4982     1.0  0.72455  0.73431  0.98136  1.0000
  C   C4983     1.0  0.68366  0.67928  0.21314  1.0000
  S   S673      1.0  0.64159  0.93574  0.98130  1.0000
  C   C4984     1.0  0.72114  0.80235  0.22122  1.0000
  H   H3992     1.0  0.53305  0.89894  0.97545  1.0000
  C   C4985     1.0  0.76358  0.94993  0.18962  1.0000
  H   H3993     1.0  0.56742  0.79215  0.21945  1.0000
  C   C4986     1.0  0.81090  0.75334  0.21491  1.0000
  S   S674      1.0  0.98524  0.67490  0.04724  1.0000
  C   C4987     1.0  0.90156  0.73529  0.97975  1.0000
  C   C4988     1.0  0.58695  0.78914  0.21956  1.0000
  C   C4989     1.0  0.61571  0.66447  0.05931  1.0000
  C   C4990     1.0  0.96458  0.67229  0.18437  1.0000
  C   C4991     1.0  0.94326  0.97375  0.20505  1.0000
  C   C4992     1.0  0.73411  0.97069  0.03285  1.0000
  H   H3994     1.0  0.70089  0.96540  0.09554  1.0000
  H   H3995     1.0  0.57481  0.96502  0.07090  1.0000
  C   C4993     1.0  0.55837  0.97338  0.12210  1.0000
  H   H3996     1.0  0.52844  0.95499  0.13367  1.0000
  C   C4994     1.0  0.54680  0.95741  0.13352  1.0000
  H   H3997     1.0  0.68983  0.73502  0.97591  1.0000
  H   H3998     1.0  0.89891  0.87180  0.21970  1.0000
  S   S675      1.0  0.80841  0.65536  0.22387  1.0000
  H   H3999     1.0  0.65313  0.67296  0.97552  1.0000
  C   C4995     1.0  0.58375  0.97962  0.08703  1.0000
  H   H4000     1.0  0.69264  0.98110  0.18027  1.0000
  C   C4996     1.0  0.67447  0.98142  0.03302  1.0000
  H   H4001     1.0  0.76358  0.98015  0.03943  1.0000
  C   C4997     1.0  0.94257  0.65118  0.16885  1.0000
  H   H4002     1.0  0.80244  0.65252  0.01129  1.0000
  C   C4998     1.0  0.64268  0.98221  0.98316  1.0000
  C   C4999     1.0  0.69059  0.65355  0.97499  1.0000
  H   H4003     1.0  0.58737  0.75985  0.97546  1.0000
  C   C5000     1.0  0.67527  0.98230  0.04720  1.0000
  H   H4004     1.0  0.97621  0.65037  0.13706  1.0000
  C   C5001     1.0  0.53288  0.65005  0.97891  1.0000
  S   S676      1.0  0.57570  0.85636  0.97517  1.0000
  C   C5002     1.0  0.68836  0.90121  0.22457  1.0000
  H   H4005     1.0  0.51071  0.86737  0.97510  1.0000
  H   H4006     1.0  0.97812  0.98258  0.22332  1.0000
  H   H4007     1.0  0.65893  0.98032  0.97477  1.0000
  H   H4008     1.0  0.71345  0.78933  0.23017  1.0000
  H   H4009     1.0  0.80099  0.90784  0.45206  1.0000
  H   H4010     1.0  0.50792  0.77745  0.35090  1.0000
  H   H4011     1.0  0.71932  0.85246  0.24519  1.0000
  C   C5003     1.0  0.82804  0.71455  0.27599  1.0000
  C   C5004     1.0  0.53153  0.88574  0.25203  1.0000
  H   H4012     1.0  0.83080  0.76308  0.35078  1.0000
  H   H4013     1.0  0.63240  0.68220  0.23961  1.0000
  H   H4014     1.0  0.60949  0.94695  0.42092  1.0000
  C   C5005     1.0  0.77279  0.96014  0.27056  1.0000
  C   C5006     1.0  0.82233  0.66288  0.45204  1.0000
  H   H4015     1.0  0.83994  0.96471  0.41305  1.0000
  H   H4016     1.0  0.92550  0.65772  0.34385  1.0000
  C   C5007     1.0  0.70569  0.88787  0.23312  1.0000
  Fe  Fe338     1.0  0.96174  0.86260  0.46806  1.0000
  Fe  Fe339     1.0  0.81119  0.87158  0.24777  1.0000
  S   S677      1.0  0.81231  0.83651  0.26428  1.0000
  S   S678      1.0  0.84352  0.89006  0.23675  1.0000
  Fe  Fe340     1.0  0.75678  0.87719  0.24766  1.0000
  S   S679      1.0  0.75305  0.84287  0.26421  1.0000
  C   C5008     1.0  0.87654  0.68288  0.32131  1.0000
  Fe  Fe341     1.0  0.77609  0.85568  0.27546  1.0000
  S   S680      1.0  0.76767  0.85140  0.29964  1.0000
  Fe  Fe342     1.0  0.78925  0.82636  0.25167  1.0000
  S   S681      1.0  0.79329  0.78746  0.24890  1.0000
  S   S682      1.0  0.77691  0.89162  0.26004  1.0000
  H   H4017     1.0  0.75346  0.79986  0.22974  1.0000
  C   C5009     1.0  0.59522  0.80255  0.22703  1.0000
  H   H4018     1.0  0.90963  0.76644  0.44339  1.0000
  H   H4019     1.0  0.52973  0.92303  0.24043  1.0000
  C   C5010     1.0  0.50276  0.92060  0.26023  1.0000
  H   H4020     1.0  0.89123  0.92533  0.36796  1.0000
  C   C5011     1.0  0.88889  0.97154  0.32547  1.0000
  C   C5012     1.0  0.50175  0.87956  0.27447  1.0000
  C   C5013     1.0  0.78127  0.97344  0.30045  1.0000
  C   C5014     1.0  0.99070  0.94078  0.30358  1.0000
  C   C5015     1.0  0.66720  0.93918  0.39990  1.0000
  C   C5016     1.0  0.71696  0.68401  0.46847  1.0000
  H   H4021     1.0  0.92170  0.95027  0.31474  1.0000
  C   C5017     1.0  0.97718  0.95005  0.40699  1.0000
  C   C5018     1.0  0.86768  0.94846  0.42601  1.0000
  S   S683      1.0  0.94644  0.86439  0.44847  1.0000
  Fe  Fe343     1.0  0.64708  0.84463  0.37498  1.0000
  S   S684      1.0  0.61364  0.86496  0.38758  1.0000
  S   S685      1.0  0.66347  0.80784  0.38727  1.0000
  Fe  Fe344     1.0  0.64310  0.88434  0.34829  1.0000
  S   S686      1.0  0.60934  0.90793  0.35916  1.0000
  S   S687      1.0  0.65717  0.89634  0.32452  1.0000
  Fe  Fe345     1.0  0.62987  0.89840  0.37753  1.0000
  Fe  Fe346     1.0  0.59616  0.87230  0.36823  1.0000
  S   S688      1.0  0.55825  0.86234  0.37317  1.0000
  S   S689      1.0  0.66462  0.87763  0.36592  1.0000
  S   S690      1.0  0.62863  0.84927  0.35630  1.0000
  H   H4022     1.0  0.86804  0.74340  0.33544  1.0000
  H   H4023     1.0  0.75852  0.90872  0.32651  1.0000
  C   C5019     1.0  0.87795  0.69605  0.47005  1.0000
  C   C5020     1.0  0.53292  0.84668  0.32608  1.0000
  H   H4024     1.0  0.78760  0.66218  0.44710  1.0000
  H   H4025     1.0  0.82853  0.75702  0.37704  1.0000
  H   H4026     1.0  0.79743  0.68961  0.37940  1.0000
  Fe  Fe347     1.0  0.77735  0.72941  0.43679  1.0000
  S   S691      1.0  0.79025  0.71917  0.41490  1.0000
  S   S692      1.0  0.74824  0.71612  0.45555  1.0000
  Fe  Fe348     1.0  0.81367  0.76448  0.43080  1.0000
  S   S693      1.0  0.82937  0.75702  0.40857  1.0000
  S   S694      1.0  0.82188  0.79444  0.43946  1.0000
  Fe  Fe349     1.0  0.79023  0.75952  0.40673  1.0000
  S   S695      1.0  0.77846  0.78303  0.38640  1.0000
  Fe  Fe350     1.0  0.82830  0.71745  0.41848  1.0000
  C   C5021     1.0  0.73349  0.93871  0.27061  1.0000
  S   S696      1.0  0.77436  0.76996  0.42825  1.0000
  S   S697      1.0  0.81549  0.72480  0.44108  1.0000
  H   H4027     1.0  0.50008  0.89109  0.23043  1.0000
  H   H4028     1.0  0.87607  0.94767  0.46961  1.0000
  C   C5022     1.0  0.68957  0.85130  0.23548  1.0000
  C   C5023     1.0  0.73187  0.69347  0.45557  1.0000
  C   C5024     1.0  0.70257  0.89397  0.42795  1.0000
  C   C5025     1.0  0.50994  0.83994  0.32923  1.0000
  C   C5026     1.0  0.50251  0.74288  0.41844  1.0000
  H   H4029     1.0  0.74458  0.69206  0.43307  1.0000
  C   C5027     1.0  0.92312  0.75942  0.33056  1.0000
  H   H4030     1.0  0.59054  0.74983  0.41879  1.0000
  C   C5028     1.0  0.69538  0.80153  0.38706  1.0000
  C   C5029     1.0  0.71121  0.81478  0.37653  1.0000
  C   C5030     1.0  0.73672  0.80869  0.37625  1.0000
  C   C5031     1.0  0.74645  0.78993  0.38678  1.0000
  C   C5032     1.0  0.73063  0.77674  0.39735  1.0000
  C   C5033     1.0  0.70519  0.78231  0.39734  1.0000
  H   H4031     1.0  0.70383  0.82943  0.36845  1.0000
  H   H4032     1.0  0.74879  0.81890  0.36801  1.0000
  H   H4033     1.0  0.73800  0.76209  0.40544  1.0000
  H   H4034     1.0  0.69303  0.77186  0.40543  1.0000
  C   C5034     1.0  0.93996  0.92212  0.23383  1.0000
  H   H4035     1.0  0.91841  0.94654  0.40654  1.0000
  C   C5035     1.0  0.84908  0.68190  0.38939  1.0000
  H   H4036     1.0  0.71868  0.92987  0.27059  1.0000
  Fe  Fe351     1.0  0.91524  0.89236  0.45727  1.0000
  S   S698      1.0  0.63124  0.92194  0.39293  1.0000
  H   H4037     1.0  0.83308  0.69617  0.39150  1.0000
  C   C5036     1.0  0.66688  0.67168  0.22549  1.0000
  H   H4038     1.0  0.96267  0.91129  0.26452  1.0000
  C   C5037     1.0  0.89438  0.80153  0.44964  1.0000
  C   C5038     1.0  0.67289  0.86429  0.22654  1.0000
  C   C5039     1.0  0.87134  0.77829  0.44139  1.0000
  C   C5040     1.0  0.85017  0.79661  0.44313  1.0000
  C   C5041     1.0  0.85122  0.81737  0.44809  1.0000
  C   C5042     1.0  0.87321  0.81988  0.45128  1.0000
  H   H4039     1.0  0.65303  0.90870  0.46140  1.0000
  H   H4040     1.0  0.87077  0.76230  0.43750  1.0000
  H   H4041     1.0  0.83496  0.83167  0.44942  1.0000
  S   S699      1.0  0.78643  0.97701  0.38341  1.0000
  C   C5043     1.0  0.87319  0.90452  0.43439  1.0000
  H   H4042     1.0  0.85028  0.88646  0.42737  1.0000
  H   H4043     1.0  0.88241  0.88771  0.44032  1.0000
  C   C5044     1.0  0.93808  0.77662  0.32372  1.0000
  H   H4044     1.0  0.92713  0.68746  0.29467  1.0000
  H   H4045     1.0  0.89909  0.97836  0.33121  1.0000
  H   H4046     1.0  0.71639  0.89055  0.41848  1.0000
  C   C5045     1.0  0.70410  0.65824  0.45624  1.0000
  C   C5046     1.0  0.51129  0.89396  0.34480  1.0000
  C   C5047     1.0  0.53227  0.88816  0.35127  1.0000
  C   C5048     1.0  0.53272  0.87126  0.36432  1.0000
  C   C5049     1.0  0.51203  0.86062  0.37083  1.0000
  H   H4047     1.0  0.69003  0.83201  0.23978  1.0000
  H   H4048     1.0  0.51105  0.90687  0.33468  1.0000
  H   H4049     1.0  0.54790  0.89685  0.34624  1.0000
  H   H4050     1.0  0.51204  0.84792  0.38099  1.0000
  H   H4051     1.0  0.85388  0.94891  0.30319  1.0000
  C   C5050     1.0  0.73745  0.86539  0.30644  1.0000
  C   C5051     1.0  0.72120  0.87785  0.29715  1.0000
  C   C5052     1.0  0.69673  0.88790  0.30281  1.0000
  C   C5053     1.0  0.68831  0.88505  0.31776  1.0000
  C   C5054     1.0  0.70467  0.87285  0.32702  1.0000
  C   C5055     1.0  0.72930  0.86333  0.32136  1.0000
  H   H4052     1.0  0.72740  0.87964  0.28562  1.0000
  H   H4053     1.0  0.68415  0.89746  0.29561  1.0000
  H   H4054     1.0  0.69830  0.87051  0.33854  1.0000
  H   H4055     1.0  0.74177  0.85372  0.32859  1.0000
  H   H4056     1.0  0.82744  0.73079  0.28005  1.0000
  H   H4057     1.0  0.86348  0.73068  0.38808  1.0000
  C   C5056     1.0  0.88661  0.65565  0.39581  1.0000
  C   C5057     1.0  0.72004  0.96064  0.31342  1.0000
  C   C5058     1.0  0.60379  0.93407  0.45741  1.0000
  H   H4058     1.0  0.90359  0.76597  0.33394  1.0000
  C   C5059     1.0  0.68527  0.87870  0.43421  1.0000
  C   C5060     1.0  0.80507  0.97979  0.34528  1.0000
  H   H4059     1.0  0.89999  0.71044  0.37328  1.0000
  H   H4060     1.0  0.88743  0.67595  0.27000  1.0000
  C   C5061     1.0  0.79649  0.90014  0.29740  1.0000
  H   H4061     1.0  0.84114  0.67849  0.36946  1.0000
  H   H4062     1.0  0.65349  0.87305  0.45110  1.0000
  H   H4063     1.0  0.92284  0.92174  0.25615  1.0000
  H   H4064     1.0  0.93885  0.70460  0.31240  1.0000
  C   C5062     1.0  0.86297  0.93713  0.26284  1.0000
  C   C5063     1.0  0.84660  0.92114  0.26944  1.0000
  C   C5064     1.0  0.84021  0.90701  0.26145  1.0000
  C   C5065     1.0  0.85044  0.90857  0.24678  1.0000
  C   C5066     1.0  0.86668  0.92476  0.24011  1.0000
  C   C5067     1.0  0.87276  0.93919  0.24810  1.0000
  H   H4065     1.0  0.83902  0.91957  0.28082  1.0000
  H   H4066     1.0  0.82768  0.89462  0.26666  1.0000
  H   H4067     1.0  0.96744  0.70723  0.33005  1.0000
  H   H4068     1.0  0.88499  0.95187  0.24287  1.0000
  C   C5068     1.0  0.74216  0.94354  0.31458  1.0000
  C   C5069     1.0  0.85506  0.90382  0.42702  1.0000
  S   S700      1.0  0.90136  0.92842  0.44358  1.0000
  H   H4069     1.0  0.54263  0.84491  0.33471  1.0000
  S   S701      1.0  0.79113  0.85970  0.23416  1.0000
  C   C5070     1.0  0.84880  0.97584  0.36650  1.0000
  H   H4070     1.0  0.62683  0.80954  0.23272  1.0000
  C   C5071     1.0  0.84271  0.92556  0.41950  1.0000
  C   C5072     1.0  0.81856  0.71696  0.26366  1.0000
  H   H4071     1.0  0.94501  0.71018  0.36238  1.0000
  C   C5073     1.0  0.96944  0.96136  0.38262  1.0000
  C   C5074     1.0  0.52989  0.85971  0.30088  1.0000
  C   C5075     1.0  0.89867  0.65787  0.27237  1.0000
  S   S702      1.0  0.72812  0.96640  0.37738  1.0000
  C   C5076     1.0  0.87383  0.90329  0.35985  1.0000
  C   C5077     1.0  0.65845  0.93375  0.38893  1.0000
  C   C5078     1.0  0.92433  0.65508  0.26809  1.0000
  C   C5079     1.0  0.85548  0.88516  0.38879  1.0000
  C   C5080     1.0  0.84889  0.87715  0.37796  1.0000
  C   C5081     1.0  0.85884  0.88575  0.36345  1.0000
  P   P168      1.0  0.83018  0.85396  0.38271  1.0000
  C   C5082     1.0  0.85152  0.82499  0.38535  1.0000
  C   C5083     1.0  0.80708  0.85786  0.39873  1.0000
  C   C5084     1.0  0.79976  0.83741  0.40862  1.0000
  C   C5085     1.0  0.78173  0.84064  0.42096  1.0000
  C   C5086     1.0  0.77047  0.86424  0.42335  1.0000
  C   C5087     1.0  0.77714  0.88466  0.41334  1.0000
  C   C5088     1.0  0.79527  0.88151  0.40104  1.0000
  C   C5089     1.0  0.86211  0.81244  0.37391  1.0000
  C   C5090     1.0  0.87901  0.79025  0.37598  1.0000
  C   C5091     1.0  0.88590  0.78074  0.38937  1.0000
  C   C5092     1.0  0.87613  0.79358  0.40065  1.0000
  C   C5093     1.0  0.85911  0.81567  0.39865  1.0000
  C   C5094     1.0  0.81275  0.85707  0.36892  1.0000
  C   C5095     1.0  0.80377  0.88045  0.36132  1.0000
  C   C5096     1.0  0.79033  0.88295  0.35060  1.0000
  C   C5097     1.0  0.78524  0.86217  0.34761  1.0000
  C   C5098     1.0  0.79327  0.83894  0.35554  1.0000
  C   C5099     1.0  0.80670  0.83641  0.36628  1.0000
  H   H4072     1.0  0.88103  0.91031  0.34865  1.0000
  H   H4073     1.0  0.94663  0.93871  0.42338  1.0000
  H   H4074     1.0  0.84869  0.87825  0.40007  1.0000
  H   H4075     1.0  0.85503  0.87896  0.35492  1.0000
  H   H4076     1.0  0.80799  0.81892  0.40692  1.0000
  H   H4077     1.0  0.77675  0.82475  0.42873  1.0000
  H   H4078     1.0  0.75672  0.86673  0.43298  1.0000
  H   H4079     1.0  0.76865  0.90300  0.41520  1.0000
  H   H4080     1.0  0.80029  0.89762  0.39348  1.0000
  H   H4081     1.0  0.85743  0.81980  0.36338  1.0000
  H   H4082     1.0  0.88680  0.78041  0.36720  1.0000
  H   H4083     1.0  0.89888  0.76349  0.39104  1.0000
  H   H4084     1.0  0.88167  0.78644  0.41099  1.0000
  H   H4085     1.0  0.85190  0.82539  0.40754  1.0000
  H   H4086     1.0  0.80693  0.89680  0.36379  1.0000
  H   H4087     1.0  0.78347  0.90106  0.34482  1.0000
  H   H4088     1.0  0.77451  0.86413  0.33944  1.0000
  H   H4089     1.0  0.78870  0.82282  0.35364  1.0000
  H   H4090     1.0  0.81197  0.81836  0.37266  1.0000
  C   C5100     1.0  0.62170  0.83315  0.42419  1.0000
  C   C5101     1.0  0.60493  0.85549  0.42308  1.0000
  C   C5102     1.0  0.61273  0.87715  0.42238  1.0000
  C   C5103     1.0  0.63709  0.87643  0.42323  1.0000
  C   C5104     1.0  0.65384  0.85393  0.42491  1.0000
  C   C5105     1.0  0.64609  0.83236  0.42497  1.0000
  P   P169      1.0  0.68518  0.85299  0.42640  1.0000
  C   C5106     1.0  0.69577  0.82402  0.43771  1.0000
  C   C5107     1.0  0.70450  0.85620  0.40870  1.0000
  C   C5108     1.0  0.72936  0.84415  0.40666  1.0000
  C   C5109     1.0  0.74491  0.84885  0.39327  1.0000
  C   C5110     1.0  0.73595  0.86597  0.38194  1.0000
  C   C5111     1.0  0.71134  0.87809  0.38389  1.0000
  C   C5112     1.0  0.69557  0.87308  0.39718  1.0000
  C   C5113     1.0  0.85078  0.97136  0.31860  1.0000
  H   H4091     1.0  0.59740  0.91548  0.44223  1.0000
  Fe  Fe352     1.0  0.92433  0.83676  0.46248  1.0000
  C   C5114     1.0  0.71025  0.77977  0.44071  1.0000
  C   C5115     1.0  0.70377  0.80255  0.43191  1.0000
  H   H4092     1.0  0.78821  0.96832  0.27013  1.0000
  H   H4093     1.0  0.60019  0.89467  0.42055  1.0000
  H   H4094     1.0  0.64289  0.89355  0.42219  1.0000
  H   H4095     1.0  0.65877  0.81491  0.42542  1.0000
  H   H4096     1.0  0.73692  0.83136  0.41539  1.0000
  H   H4097     1.0  0.76389  0.83910  0.39166  1.0000
  H   H4098     1.0  0.74799  0.86979  0.37163  1.0000
  H   H4099     1.0  0.70449  0.89153  0.37514  1.0000
  H   H4100     1.0  0.67658  0.88279  0.39850  1.0000
  H   H4101     1.0  0.58209  0.81592  0.23262  1.0000
  H   H4102     1.0  0.67041  0.65301  0.23146  1.0000
  H   H4103     1.0  0.71998  0.66131  0.43361  1.0000
  H   H4104     1.0  0.71622  0.76324  0.43618  1.0000
  H   H4105     1.0  0.70456  0.80339  0.42058  1.0000
  H   H4106     1.0  0.72018  0.90293  0.34396  1.0000
  H   H4107     1.0  0.68123  0.93273  0.34134  1.0000
  H   H4108     1.0  0.75268  0.80089  0.45582  1.0000
  H   H4109     1.0  0.65734  0.93580  0.41091  1.0000
  H   H4110     1.0  0.71511  0.92616  0.42873  1.0000
  H   H4111     1.0  0.81818  0.86472  0.29438  1.0000
  C   C5116     1.0  0.88913  0.94715  0.30824  1.0000
  H   H4112     1.0  0.77263  0.96361  0.35069  1.0000
  C   C5117     1.0  0.73322  0.68490  0.44306  1.0000
  H   H4113     1.0  0.93004  0.79604  0.32190  1.0000
  C   C5118     1.0  0.93552  0.66220  0.35070  1.0000
  H   H4114     1.0  0.97237  0.67641  0.37547  1.0000
  H   H4115     1.0  0.78427  0.89990  0.29047  1.0000
  C   C5119     1.0  0.93704  0.94981  0.40249  1.0000
  C   C5120     1.0  0.96344  0.76883  0.31924  1.0000
  H   H4116     1.0  0.70026  0.79817  0.47266  1.0000
  H   H4117     1.0  0.83801  0.74976  0.46220  1.0000
  C   C5121     1.0  0.52140  0.87009  0.26422  1.0000
  H   H4118     1.0  0.68357  0.93550  0.45016  1.0000
  H   H4119     1.0  0.56051  0.86220  0.30956  1.0000
  C   C5122     1.0  0.95306  0.94566  0.41207  1.0000
  H   H4120     1.0  0.95600  0.97790  0.43023  1.0000
  C   C5123     1.0  0.96250  0.91285  0.25324  1.0000
  C   C5124     1.0  0.50386  0.87544  0.22529  1.0000
  H   H4121     1.0  0.98729  0.89510  0.43427  1.0000
  H   H4122     1.0  0.89973  0.64969  0.40294  1.0000
  C   C5125     1.0  0.79748  0.66115  0.45553  1.0000
  H   H4123     1.0  0.93252  0.67086  0.26255  1.0000
  H   H4124     1.0  0.88750  0.67314  0.30036  1.0000
  C   C5126     1.0  0.94957  0.96700  0.45328  1.0000
  C   C5127     1.0  0.85352  0.67183  0.37698  1.0000
  C   C5128     1.0  0.54293  0.85650  0.31191  1.0000
  H   H4125     1.0  0.49535  0.94015  0.25859  1.0000
  H   H4126     1.0  0.80977  0.65811  0.30561  1.0000
  H   H4127     1.0  0.79947  0.65531  0.33201  1.0000
  H   H4128     1.0  0.79018  0.94978  0.43809  1.0000
  C   C5129     1.0  0.69293  0.94760  0.37150  1.0000
  C   C5130     1.0  0.85785  0.96930  0.37930  1.0000
  C   C5131     1.0  0.76488  0.79228  0.46338  1.0000
  C   C5132     1.0  0.60335  0.93123  0.44362  1.0000
  H   H4129     1.0  0.82521  0.90038  0.47131  1.0000
  H   H4130     1.0  0.81526  0.96313  0.28553  1.0000
  C   C5133     1.0  0.98471  0.90977  0.24333  1.0000
  C   C5134     1.0  0.70126  0.79945  0.46126  1.0000
  C   C5135     1.0  0.66685  0.90455  0.45207  1.0000
  H   H4131     1.0  0.49387  0.80704  0.30519  1.0000
  S   S703      1.0  0.72646  0.90264  0.23697  1.0000
  C   C5136     1.0  0.70617  0.86291  0.23858  1.0000
  H   H4132     1.0  0.83184  0.66505  0.44088  1.0000
  H   H4133     1.0  0.71368  0.76045  0.46220  1.0000
  C   C5137     1.0  0.80674  0.92293  0.45442  1.0000
  H   H4134     1.0  0.80470  0.67826  0.35547  1.0000
  C   C5138     1.0  0.81575  0.88006  0.29965  1.0000
  C   C5139     1.0  0.66733  0.91937  0.25957  1.0000
  C   C5140     1.0  0.64810  0.93639  0.25406  1.0000
  C   C5141     1.0  0.62461  0.93079  0.25698  1.0000
  C   C5142     1.0  0.62040  0.90811  0.26534  1.0000
  C   C5143     1.0  0.63978  0.89069  0.27069  1.0000
  C   C5144     1.0  0.66328  0.89658  0.26782  1.0000
  P   P170      1.0  0.63408  0.86133  0.28133  1.0000
  C   C5145     1.0  0.61990  0.86401  0.29975  1.0000
  C   C5146     1.0  0.61393  0.85080  0.27331  1.0000
  C   C5147     1.0  0.59586  0.83778  0.28191  1.0000
  C   C5148     1.0  0.58034  0.82987  0.27556  1.0000
  C   C5149     1.0  0.58276  0.83486  0.26058  1.0000
  C   C5150     1.0  0.60062  0.84784  0.25194  1.0000
  C   C5151     1.0  0.61624  0.85567  0.25825  1.0000
  C   C5152     1.0  0.61997  0.84285  0.31064  1.0000
  C   C5153     1.0  0.60804  0.84457  0.32479  1.0000
  C   C5154     1.0  0.59622  0.86743  0.32823  1.0000
  C   C5155     1.0  0.59651  0.88861  0.31754  1.0000
  C   C5156     1.0  0.60826  0.88696  0.30334  1.0000
  C   C5157     1.0  0.66303  0.83961  0.28119  1.0000
  C   C5158     1.0  0.67846  0.83939  0.29055  1.0000
  C   C5159     1.0  0.70158  0.82371  0.28988  1.0000
  C   C5160     1.0  0.70929  0.80784  0.28007  1.0000
  C   C5161     1.0  0.69399  0.80785  0.27079  1.0000
  C   C5162     1.0  0.67097  0.82370  0.27130  1.0000
  H   H4135     1.0  0.68558  0.92363  0.25722  1.0000
  H   H4136     1.0  0.65148  0.95384  0.24746  1.0000
  H   H4137     1.0  0.60971  0.94398  0.25267  1.0000
  H   H4138     1.0  0.60208  0.90407  0.26752  1.0000
  H   H4139     1.0  0.67868  0.88363  0.27169  1.0000
  H   H4140     1.0  0.59364  0.83361  0.29351  1.0000
  H   H4141     1.0  0.56643  0.81983  0.28226  1.0000
  H   H4142     1.0  0.57077  0.82868  0.25567  1.0000
  H   H4143     1.0  0.60258  0.85175  0.24030  1.0000
  H   H4144     1.0  0.63025  0.86537  0.25132  1.0000
  H   H4145     1.0  0.62911  0.82501  0.30816  1.0000
  H   H4146     1.0  0.60818  0.82826  0.33319  1.0000
  H   H4147     1.0  0.58724  0.86878  0.33924  1.0000
  H   H4148     1.0  0.58797  0.90638  0.32033  1.0000
  H   H4149     1.0  0.60840  0.90366  0.29530  1.0000
  H   H4150     1.0  0.67293  0.85187  0.29806  1.0000
  H   H4151     1.0  0.71389  0.82438  0.29665  1.0000
  H   H4152     1.0  0.72742  0.79605  0.27937  1.0000
  H   H4153     1.0  0.70027  0.79604  0.26291  1.0000
  H   H4154     1.0  0.65976  0.82384  0.26373  1.0000
  H   H4155     1.0  0.76252  0.75559  0.46281  1.0000
  C   C5163     1.0  0.98463  0.91306  0.22865  1.0000
  C   C5164     1.0  0.94524  0.95771  0.38774  1.0000
  S   S704      1.0  0.99137  0.96216  0.25147  1.0000
  S   S705      1.0  0.92825  0.97576  0.27627  1.0000
  H   H4156     1.0  0.84714  0.86465  0.30991  1.0000
  C   C5165     1.0  0.80079  0.94657  0.44646  1.0000
  C   C5166     1.0  0.57928  0.76685  0.41437  1.0000
  C   C5167     1.0  0.58978  0.78763  0.40840  1.0000
  C   C5168     1.0  0.57530  0.80956  0.40269  1.0000
  C   C5169     1.0  0.55046  0.81071  0.40280  1.0000
  C   C5170     1.0  0.53980  0.78985  0.40851  1.0000
  C   C5171     1.0  0.55442  0.76789  0.41439  1.0000
  P   P171      1.0  0.50838  0.79120  0.40696  1.0000
  Fe  Fe353     1.0  0.74631  0.97736  0.39245  1.0000
  C   C5172     1.0  0.52217  0.91098  0.25002  1.0000
  H   H4157     1.0  0.50756  0.82192  0.42727  1.0000
  C   C5173     1.0  0.96199  0.67247  0.36860  1.0000
  H   H4158     1.0  0.97762  0.94890  0.28360  1.0000
  H   H4159     1.0  0.61143  0.95639  0.46999  1.0000
  C   C5174     1.0  0.94011  0.91889  0.24850  1.0000
  C   C5175     1.0  0.74591  0.95057  0.25764  1.0000
  H   H4160     1.0  0.97502  0.78218  0.31396  1.0000
  C   C5176     1.0  0.84773  0.73404  0.46874  1.0000
  S   S706      1.0  0.86123  0.68684  0.41422  1.0000
  C   C5177     1.0  0.83478  0.66233  0.46290  1.0000
  C   C5178     1.0  0.50826  0.78706  0.38912  1.0000
  C   C5179     1.0  0.52590  0.79508  0.37720  1.0000
  C   C5180     1.0  0.52583  0.79155  0.36349  1.0000
  H   H4161     1.0  0.75055  0.65954  0.22899  1.0000
  C   C5181     1.0  0.50829  0.77985  0.36156  1.0000
  H   H4162     1.0  0.87126  0.69223  0.34200  1.0000
  H   H4163     1.0  0.60919  0.78673  0.40802  1.0000
  H   H4164     1.0  0.58342  0.82564  0.39786  1.0000
  H   H4165     1.0  0.53975  0.82783  0.39807  1.0000
  H   H4166     1.0  0.54689  0.75149  0.41891  1.0000
  H   H4167     1.0  0.68107  0.96975  0.32202  1.0000
  C   C5182     1.0  0.89334  0.78072  0.44468  1.0000
  H   H4168     1.0  0.80720  0.93528  0.31816  1.0000
  H   H4169     1.0  0.76586  0.65716  0.47239  1.0000
  H   H4170     1.0  0.77220  0.82644  0.46525  1.0000
  Fe  Fe354     1.0  0.95194  0.98288  0.25426  1.0000
  C   C5183     1.0  0.68893  0.94871  0.39666  1.0000
  H   H4171     1.0  0.95797  0.97492  0.32578  1.0000
  H   H4172     1.0  0.89912  0.93532  0.30068  1.0000
  H   H4173     1.0  0.93347  0.98136  0.45483  1.0000
  H   H4174     1.0  0.53955  0.80439  0.37836  1.0000
  H   H4175     1.0  0.53924  0.79814  0.35433  1.0000
  C   C5184     1.0  0.64552  0.68812  0.23008  1.0000
  C   C5185     1.0  0.49459  0.76750  0.42002  1.0000
  C   C5186     1.0  0.70191  0.91433  0.43372  1.0000
  C   C5187     1.0  0.83003  0.67292  0.26510  1.0000
  C   C5188     1.0  0.79672  0.69705  0.35668  1.0000
  C   C5189     1.0  0.79290  0.70344  0.37014  1.0000
  C   C5190     1.0  0.78369  0.72779  0.37165  1.0000
  C   C5191     1.0  0.77751  0.74565  0.35983  1.0000
  C   C5192     1.0  0.77975  0.73914  0.34649  1.0000
  C   C5193     1.0  0.79037  0.71488  0.34482  1.0000
  P   P172      1.0  0.77099  0.76263  0.33153  1.0000
  C   C5194     1.0  0.74025  0.78020  0.33634  1.0000
  C   C5195     1.0  0.79479  0.78060  0.32617  1.0000
  C   C5196     1.0  0.78957  0.80545  0.32708  1.0000
  C   C5197     1.0  0.80822  0.81921  0.32216  1.0000
  C   C5198     1.0  0.83219  0.80819  0.31654  1.0000
  C   C5199     1.0  0.83764  0.78328  0.31591  1.0000
  C   C5200     1.0  0.81902  0.76949  0.32075  1.0000
  C   C5201     1.0  0.73092  0.80026  0.32628  1.0000
  C   C5202     1.0  0.70660  0.81298  0.32943  1.0000
  C   C5203     1.0  0.69151  0.80601  0.34265  1.0000
  C   C5204     1.0  0.70046  0.78589  0.35262  1.0000
  C   C5205     1.0  0.72460  0.77282  0.34945  1.0000
  C   C5206     1.0  0.76956  0.75089  0.31618  1.0000
  C   C5207     1.0  0.75807  0.73090  0.31810  1.0000
  C   C5208     1.0  0.75585  0.72263  0.30614  1.0000
  C   C5209     1.0  0.76447  0.73467  0.29220  1.0000
  C   C5210     1.0  0.77516  0.75508  0.29020  1.0000
  C   C5211     1.0  0.77766  0.76323  0.30211  1.0000
  S   S707      1.0  0.89190  0.86508  0.47000  1.0000
  H   H4176     1.0  0.97603  0.96696  0.37120  1.0000
  H   H4177     1.0  0.78122  0.73289  0.38201  1.0000
  H   H4178     1.0  0.77048  0.76451  0.36120  1.0000
  H   H4179     1.0  0.79382  0.70966  0.33446  1.0000
  H   H4180     1.0  0.77109  0.81445  0.33123  1.0000
  H   H4181     1.0  0.80377  0.83866  0.32226  1.0000
  H   H4182     1.0  0.84642  0.81906  0.31243  1.0000
  H   H4183     1.0  0.85616  0.77481  0.31138  1.0000
  H   H4184     1.0  0.82337  0.75027  0.32001  1.0000
  H   H4185     1.0  0.74243  0.80610  0.31600  1.0000
  H   H4186     1.0  0.69942  0.82851  0.32172  1.0000
  H   H4187     1.0  0.67286  0.81619  0.34518  1.0000
  H   H4188     1.0  0.68863  0.78051  0.36288  1.0000
  H   H4189     1.0  0.73063  0.75695  0.35727  1.0000
  H   H4190     1.0  0.75048  0.72199  0.32883  1.0000
  H   H4191     1.0  0.74699  0.70719  0.30766  1.0000
  H   H4192     1.0  0.76253  0.72849  0.28291  1.0000
  H   H4193     1.0  0.78126  0.76484  0.27938  1.0000
  H   H4194     1.0  0.78534  0.77956  0.30025  1.0000
  C   C5212     1.0  0.91468  0.68919  0.30486  1.0000
  C   C5213     1.0  0.89233  0.68117  0.30804  1.0000
  C   C5214     1.0  0.97829  0.93185  0.46295  1.0000
  C   C5215     1.0  0.88320  0.69224  0.33150  1.0000
  C   C5216     1.0  0.90541  0.70076  0.32832  1.0000
  C   C5217     1.0  0.92125  0.69894  0.31496  1.0000
  P   P173      1.0  0.91449  0.71163  0.34184  1.0000
  C   C5218     1.0  0.88717  0.72579  0.35310  1.0000
  C   C5219     1.0  0.93295  0.68654  0.35224  1.0000
  C   C5220     1.0  0.94640  0.69152  0.36121  1.0000
  H   H4195     1.0  0.81763  0.96231  0.34499  1.0000
  C   C5221     1.0  0.87933  0.92691  0.43403  1.0000
  C   C5222     1.0  0.68418  0.97905  0.47212  1.0000
  H   H4196     1.0  0.98285  0.92445  0.30782  1.0000
  C   C5223     1.0  0.88553  0.72235  0.36803  1.0000
  C   C5224     1.0  0.86460  0.73385  0.37655  1.0000
  C   C5225     1.0  0.84491  0.74850  0.37034  1.0000
  C   C5226     1.0  0.84623  0.75187  0.35552  1.0000
  C   C5227     1.0  0.86728  0.74061  0.34691  1.0000
  C   C5228     1.0  0.93346  0.73421  0.33299  1.0000
  C   C5229     1.0  0.95898  0.72656  0.32839  1.0000
  C   C5230     1.0  0.76564  0.96113  0.25761  1.0000
  C   C5231     1.0  0.83969  0.67037  0.27749  1.0000
  C   C5232     1.0  0.72031  0.91919  0.33553  1.0000
  C   C5233     1.0  0.69832  0.93605  0.33412  1.0000
  C   C5234     1.0  0.70888  0.77820  0.45540  1.0000
  S   S708      1.0  0.81959  0.92432  0.41073  1.0000
  C   C5235     1.0  0.70327  0.66631  0.46885  1.0000
  C   C5236     1.0  0.84916  0.94788  0.41893  1.0000
  H   H4197     1.0  0.53783  0.86778  0.29005  1.0000
  C   C5237     1.0  0.98263  0.94580  0.43708  1.0000
  C   C5238     1.0  0.74210  0.92272  0.32570  1.0000
  C   C5239     1.0  0.76028  0.94843  0.28369  1.0000
  C   C5240     1.0  0.83853  0.69137  0.28291  1.0000
  C   C5241     1.0  0.81948  0.69618  0.25823  1.0000
  H   H4198     1.0  0.84609  0.68991  0.29234  1.0000
  H   H4199     1.0  0.84927  0.95709  0.38839  1.0000
  C   C5242     1.0  0.80385  0.78150  0.23128  1.0000
  H   H4200     1.0  0.84126  0.89988  0.32191  1.0000
  C   C5243     1.0  0.70161  0.95327  0.38238  1.0000
  C   C5244     1.0  0.87069  0.90247  0.38516  1.0000
  C   C5245     1.0  0.67152  0.93775  0.37478  1.0000
  H   H4201     1.0  0.74072  0.95087  0.24757  1.0000
  H   H4202     1.0  0.92240  0.92733  0.23037  1.0000
  H   H4203     1.0  0.70269  0.95110  0.36046  1.0000
  C   C5246     1.0  0.77057  0.76673  0.46725  1.0000
  C   C5247     1.0  0.69480  0.82229  0.45247  1.0000
  H   H4204     1.0  0.58622  0.85618  0.42204  1.0000
  C   C5248     1.0  0.87968  0.91171  0.37071  1.0000
  Fe  Fe355     1.0  0.79240  0.95934  0.40571  1.0000
  C   C5249     1.0  0.86320  0.97930  0.32693  1.0000
  H   H4205     1.0  0.87524  0.90890  0.39363  1.0000
  C   C5250     1.0  0.95738  0.95029  0.46511  1.0000
  H   H4206     1.0  0.83131  0.97815  0.31879  1.0000
  H   H4207     1.0  0.61599  0.81649  0.42403  1.0000
  H   H4208     1.0  0.69576  0.95262  0.40513  1.0000
  H   H4209     1.0  0.83367  0.96816  0.36586  1.0000
  C   C5251     1.0  0.97387  0.74381  0.32157  1.0000
  Fe  Fe356     1.0  0.89784  0.97942  0.26434  1.0000
  H   H4210     1.0  0.73130  0.92744  0.29338  1.0000
  H   H4211     1.0  0.87373  0.83602  0.45502  1.0000
  C   C5252     1.0  0.74078  0.93739  0.28354  1.0000
  H   H4212     1.0  0.52859  0.85055  0.26552  1.0000
  H   H4213     1.0  0.93306  0.96072  0.38022  1.0000
  H   H4214     1.0  0.68882  0.83839  0.45730  1.0000
  H   H4215     1.0  0.49762  0.70555  0.42687  1.0000
  C   C5253     1.0  0.69823  0.95687  0.32315  1.0000
  H   H4216     1.0  0.79476  0.74551  0.23739  1.0000
  C   C5254     1.0  0.80940  0.91994  0.31295  1.0000
  C   C5255     1.0  0.82866  0.89985  0.31517  1.0000
  C   C5256     1.0  0.61882  0.97212  0.44720  1.0000
  C   C5257     1.0  0.86573  0.67397  0.39880  1.0000
  C   C5258     1.0  0.87393  0.65307  0.37421  1.0000
  H   H4217     1.0  0.66475  0.93369  0.36632  1.0000
  P   P174      1.0  0.76924  0.94677  0.30062  1.0000
  C   C5259     1.0  0.79342  0.92037  0.30386  1.0000
  C   C5260     1.0  0.83193  0.87998  0.30844  1.0000
  C   C5261     1.0  0.71926  0.66747  0.44340  1.0000
  C   C5262     1.0  0.66729  0.88428  0.44627  1.0000
  C   C5263     1.0  0.90180  0.95554  0.31614  1.0000
  H   H4218     1.0  0.54625  0.87827  0.24396  1.0000
  S   S709      1.0  0.75276  0.95690  0.41428  1.0000
  S   S710      1.0  0.92221  0.80374  0.45397  1.0000
  C   C5264     1.0  0.80252  0.75884  0.22873  1.0000
  C   C5265     1.0  0.61151  0.95439  0.45921  1.0000
  H   H4219     1.0  0.87282  0.96567  0.42529  1.0000
  C   C5266     1.0  0.62042  0.79916  0.22691  1.0000
  H   H4220     1.0  0.51717  0.73792  0.40962  1.0000
  C   C5267     1.0  0.50662  0.85320  0.30398  1.0000
  H   H4221     1.0  0.59796  0.92058  0.46673  1.0000
  C   C5268     1.0  0.96224  0.96486  0.43932  1.0000
  C   C5269     1.0  0.80934  0.96588  0.44888  1.0000
  C   C5270     1.0  0.82360  0.96184  0.45948  1.0000
  H   H4222     1.0  0.71951  0.97646  0.30468  1.0000
  S   S711      1.0  0.87094  0.95370  0.27356  1.0000
  C   C5271     1.0  0.98535  0.95761  0.39217  1.0000
  C   C5272     1.0  0.68408  0.91963  0.44576  1.0000
  C   C5273     1.0  0.86361  0.95492  0.30958  1.0000
  H   H4223     1.0  0.87442  0.92630  0.22873  1.0000
  H   H4224     1.0  0.81227  0.69812  0.24856  1.0000
  H   H4225     1.0  0.62410  0.72450  0.22597  1.0000
  C   C5274     1.0  0.49679  0.84322  0.31826  1.0000
  H   H4226     1.0  0.81070  0.73502  0.25829  1.0000
  C   C5275     1.0  0.99121  0.92992  0.44901  1.0000
  C   C5276     1.0  0.77964  0.98041  0.34847  1.0000
  C   C5277     1.0  0.61012  0.94899  0.43163  1.0000
  C   C5278     1.0  0.80449  0.97650  0.29199  1.0000
  C   C5279     1.0  0.86471  0.71621  0.46194  1.0000
  H   H4227     1.0  0.85942  0.67630  0.32393  1.0000
  C   C5280     1.0  0.82047  0.91876  0.46519  1.0000
  C   C5281     1.0  0.77590  0.80668  0.46869  1.0000
  H   H4228     1.0  0.86777  0.71821  0.45033  1.0000
  C   C5282     1.0  0.78514  0.65853  0.46989  1.0000
  H   H4229     1.0  0.88477  0.97346  0.39031  1.0000
  H   H4230     1.0  0.88880  0.97915  0.45150  1.0000
  H   H4231     1.0  0.50184  0.83304  0.34027  1.0000
  H   H4232     1.0  0.85399  0.66392  0.46007  1.0000
  H   H4233     1.0  0.66808  0.97767  0.42850  1.0000
  H   H4234     1.0  0.98419  0.91849  0.47197  1.0000
  H   H4235     1.0  0.89137  0.68247  0.46470  1.0000
  H   H4236     1.0  0.70417  0.97596  0.46961  1.0000
  C   C5283     1.0  0.82851  0.93818  0.46791  1.0000
  H   H4237     1.0  0.83074  0.65715  0.26060  1.0000
  C   C5284     1.0  0.87792  0.97836  0.38032  1.0000
  C   C5285     1.0  0.61741  0.96956  0.43342  1.0000
  C   C5286     1.0  0.98760  0.95461  0.29000  1.0000
  H   H4238     1.0  0.77568  0.96981  0.24751  1.0000
  C   C5287     1.0  0.49259  0.90498  0.27243  1.0000
  C   C5288     1.0  0.49376  0.83125  0.42080  1.0000
  S   S712      1.0  0.92247  0.98299  0.24251  1.0000
  S   S713      1.0  0.82933  0.86534  0.59868  1.0000
  H   H4239     1.0  0.61836  0.72716  0.61184  1.0000
  C   C5289     1.0  0.77140  0.67911  0.63949  1.0000
  H   H4240     1.0  0.75416  0.88321  0.60922  1.0000
  C   C5290     1.0  0.94461  0.94561  0.57125  1.0000
  C   C5291     1.0  0.68209  0.65637  0.65642  1.0000
  C   C5292     1.0  0.76802  0.91680  0.60174  1.0000
  H   H4241     1.0  0.89838  0.93698  0.48965  1.0000
  Fe  Fe357     1.0  0.78452  0.75553  0.69097  1.0000
  S   S714      1.0  0.75215  0.78684  0.69283  1.0000
  H   H4242     1.0  0.96370  0.88531  0.52230  1.0000
  Fe  Fe358     1.0  0.76710  0.73934  0.66783  1.0000
  S   S715      1.0  0.73368  0.76993  0.66751  1.0000
  S   S716      1.0  0.78139  0.70920  0.65462  1.0000
  Fe  Fe359     1.0  0.75878  0.79412  0.66863  1.0000
  S   S717      1.0  0.75773  0.83404  0.65764  1.0000
  Fe  Fe360     1.0  0.72925  0.76039  0.69170  1.0000
  S   S718      1.0  0.69058  0.76275  0.70541  1.0000
  S   S719      1.0  0.79245  0.76459  0.66683  1.0000
  S   S720      1.0  0.76115  0.72821  0.69199  1.0000
  C   C5293     1.0  0.84368  0.73174  0.48377  1.0000
  H   H4243     1.0  0.50011  0.70127  0.71880  1.0000
  S   S721      1.0  0.88932  0.86190  0.51036  1.0000
  C   C5294     1.0  0.52377  0.93773  0.66323  1.0000
  C   C5295     1.0  0.62330  0.72085  0.62237  1.0000
  C   C5296     1.0  0.85106  0.97935  0.47694  1.0000
  C   C5297     1.0  0.87827  0.94523  0.69615  1.0000
  S   S722      1.0  0.90059  0.92033  0.61669  1.0000
  H   H4244     1.0  0.54172  0.94099  0.66327  1.0000
  C   C5298     1.0  0.91544  0.70282  0.70224  1.0000
  S   S723      1.0  0.93214  0.89306  0.47567  1.0000
  H   H4245     1.0  0.98059  0.93755  0.53880  1.0000
  H   H4246     1.0  0.69514  0.66275  0.53221  1.0000
  C   C5299     1.0  0.92053  0.88971  0.72223  1.0000
  C   C5300     1.0  0.73403  0.68622  0.62990  1.0000
  H   H4247     1.0  0.87068  0.76784  0.47811  1.0000
  H   H4248     1.0  0.96396  0.73060  0.66916  1.0000
  C   C5301     1.0  0.76250  0.70030  0.64556  1.0000
  C   C5302     1.0  0.73920  0.71428  0.64390  1.0000
  C   C5303     1.0  0.72517  0.70739  0.63599  1.0000
  C   C5304     1.0  0.75817  0.67977  0.50315  1.0000
  C   C5305     1.0  0.75697  0.97353  0.66314  1.0000
  H   H4249     1.0  0.73227  0.73072  0.64841  1.0000
  H   H4250     1.0  0.70756  0.71883  0.63439  1.0000
  C   C5306     1.0  0.73684  0.92963  0.53195  1.0000
  H   H4251     1.0  0.71584  0.69052  0.47820  1.0000
  C   C5307     1.0  0.70467  0.88017  0.66871  1.0000
  H   H4252     1.0  0.71388  0.69910  0.53076  1.0000
  H   H4253     1.0  0.72100  0.91276  0.51972  1.0000
  C   C5308     1.0  0.89215  0.88275  0.52026  1.0000
  C   C5309     1.0  0.87611  0.88464  0.53351  1.0000
  C   C5310     1.0  0.87813  0.90081  0.54176  1.0000
  H   H4254     1.0  0.86218  0.87341  0.53744  1.0000
  H   H4255     1.0  0.86584  0.90189  0.55203  1.0000
  C   C5311     1.0  0.81130  0.85620  0.61574  1.0000
  C   C5312     1.0  0.80789  0.83183  0.62016  1.0000
  C   C5313     1.0  0.79221  0.82451  0.63327  1.0000
  C   C5314     1.0  0.77933  0.84174  0.64183  1.0000
  C   C5315     1.0  0.78297  0.86603  0.63748  1.0000
  C   C5316     1.0  0.79926  0.87311  0.62461  1.0000
  H   H4256     1.0  0.81708  0.81867  0.61332  1.0000
  H   H4257     1.0  0.78947  0.80575  0.63651  1.0000
  H   H4258     1.0  0.77286  0.87948  0.64397  1.0000
  H   H4259     1.0  0.80150  0.89194  0.62117  1.0000
  C   C5317     1.0  0.95214  0.91291  0.69911  1.0000
  C   C5318     1.0  0.93529  0.92673  0.70854  1.0000
  H   H4260     1.0  0.93533  0.91966  0.63369  1.0000
  H   H4261     1.0  0.96460  0.92163  0.69028  1.0000
  H   H4262     1.0  0.94756  0.95275  0.64121  1.0000
  C   C5319     1.0  0.66845  0.89274  0.65786  1.0000
  C   C5320     1.0  0.60037  0.66353  0.70340  1.0000
  Fe  Fe361     1.0  0.91167  0.86313  0.48776  1.0000
  C   C5321     1.0  0.91691  0.83344  0.61910  1.0000
  C   C5322     1.0  0.90127  0.85644  0.61812  1.0000
  C   C5323     1.0  0.87773  0.85928  0.62676  1.0000
  C   C5324     1.0  0.87002  0.83921  0.63670  1.0000
  C   C5325     1.0  0.88609  0.81628  0.63823  1.0000
  C   C5326     1.0  0.90932  0.81337  0.62906  1.0000
  P   P175      1.0  0.87659  0.79011  0.65100  1.0000
  C   C5327     1.0  0.90406  0.77084  0.65693  1.0000
  C   C5328     1.0  0.85431  0.80049  0.66609  1.0000
  C   C5329     1.0  0.86128  0.79997  0.67910  1.0000
  C   C5330     1.0  0.84382  0.80851  0.69048  1.0000
  C   C5331     1.0  0.81925  0.81740  0.68909  1.0000
  C   C5332     1.0  0.81210  0.81781  0.67629  1.0000
  C   C5333     1.0  0.82949  0.80938  0.66484  1.0000
  C   C5334     1.0  0.91061  0.74581  0.65617  1.0000
  C   C5335     1.0  0.93215  0.73139  0.66056  1.0000
  C   C5336     1.0  0.94742  0.74184  0.66561  1.0000
  C   C5337     1.0  0.94137  0.76683  0.66606  1.0000
  C   C5338     1.0  0.91989  0.78130  0.66166  1.0000
  C   C5339     1.0  0.86214  0.77405  0.64248  1.0000
  C   C5340     1.0  0.86089  0.78149  0.62778  1.0000
  C   C5341     1.0  0.84936  0.76899  0.62142  1.0000
  C   C5342     1.0  0.83908  0.74900  0.62964  1.0000
  C   C5343     1.0  0.84032  0.74147  0.64422  1.0000
  C   C5344     1.0  0.85146  0.75416  0.65068  1.0000
  H   H4263     1.0  0.93489  0.83122  0.61210  1.0000
  H   H4264     1.0  0.90732  0.87204  0.61056  1.0000
  H   H4265     1.0  0.86542  0.87707  0.62567  1.0000
  H   H4266     1.0  0.85155  0.84170  0.64304  1.0000
  H   H4267     1.0  0.92157  0.79560  0.62955  1.0000
  H   H4268     1.0  0.87989  0.79257  0.68076  1.0000
  H   H4269     1.0  0.84909  0.80740  0.70062  1.0000
  H   H4270     1.0  0.80562  0.82328  0.69810  1.0000
  H   H4271     1.0  0.79291  0.82414  0.67537  1.0000
  H   H4272     1.0  0.82344  0.80961  0.65506  1.0000
  H   H4273     1.0  0.89925  0.73725  0.65223  1.0000
  C   C5345     1.0  0.95896  0.69073  0.71570  1.0000
  H   H4274     1.0  0.52769  0.90371  0.67857  1.0000
  H   H4275     1.0  0.95330  0.77500  0.66985  1.0000
  H   H4276     1.0  0.91549  0.80066  0.66206  1.0000
  H   H4277     1.0  0.86829  0.79717  0.62121  1.0000
  H   H4278     1.0  0.84799  0.77510  0.61017  1.0000
  H   H4279     1.0  0.82966  0.73958  0.62483  1.0000
  H   H4280     1.0  0.83168  0.72637  0.65066  1.0000
  H   H4281     1.0  0.85122  0.74878  0.66215  1.0000
  H   H4282     1.0  0.87214  0.95021  0.70666  1.0000
  H   H4283     1.0  0.68332  0.67653  0.71149  1.0000
  H   H4284     1.0  0.70630  0.73570  0.51140  1.0000
  C   C5346     1.0  0.88559  0.68679  0.68860  1.0000
  C   C5347     1.0  0.67690  0.91394  0.64987  1.0000
  C   C5348     1.0  0.61812  0.67595  0.69406  1.0000
  H   H4285     1.0  0.80165  0.87441  0.71419  1.0000
  H   H4286     1.0  0.75717  0.71883  0.52949  1.0000
  H   H4287     1.0  0.90756  0.85654  0.55530  1.0000
  C   C5349     1.0  0.97037  0.90802  0.55617  1.0000
  P   P176      1.0  0.93065  0.71270  0.71357  1.0000
  H   H4288     1.0  0.79842  0.91113  0.55576  1.0000
  P   P177      1.0  0.71146  0.94446  0.63980  1.0000
  C   C5350     1.0  0.96804  0.86113  0.54916  1.0000
  H   H4289     1.0  0.60391  0.65747  0.52494  1.0000
  S   S724      1.0  0.94250  0.83232  0.48144  1.0000
  C   C5351     1.0  0.64989  0.69816  0.72146  1.0000
  H   H4290     1.0  0.61046  0.76169  0.69344  1.0000
  H   H4291     1.0  0.74664  0.66363  0.52561  1.0000
  H   H4292     1.0  0.92699  0.81440  0.55140  1.0000
  C   C5352     1.0  0.88358  0.95297  0.48905  1.0000
  S   S725      1.0  0.93365  0.95854  0.70602  1.0000
  C   C5353     1.0  0.97458  0.68247  0.70355  1.0000
  H   H4293     1.0  0.93242  0.96422  0.52314  1.0000
  H   H4294     1.0  0.76779  0.98053  0.66842  1.0000
  P   P178      1.0  0.75766  0.95196  0.54760  1.0000
  H   H4295     1.0  0.88463  0.67815  0.49126  1.0000
  C   C5354     1.0  0.69910  0.91870  0.65148  1.0000
  H   H4296     1.0  0.70435  0.97783  0.61206  1.0000
  P   P179      1.0  0.98701  0.88359  0.54663  1.0000
  S   S726      1.0  0.88263  0.90021  0.58740  1.0000
  H   H4297     1.0  0.88702  0.96228  0.50849  1.0000
  H   H4298     1.0  0.87161  0.72512  0.68136  1.0000
  H   H4299     1.0  0.90965  0.80317  0.70025  1.0000
  H   H4300     1.0  0.65135  0.88915  0.65657  1.0000
  Fe  Fe362     1.0  0.87492  0.92889  0.60093  1.0000
  C   C5355     1.0  0.72899  0.92815  0.51966  1.0000
  C   C5356     1.0  0.88471  0.71182  0.68715  1.0000
  C   C5357     1.0  0.67523  0.73763  0.71116  1.0000
  H   H4301     1.0  0.69164  0.65936  0.47879  1.0000
  H   H4302     1.0  0.59671  0.66356  0.71483  1.0000
  C   C5358     1.0  0.72515  0.69964  0.52002  1.0000
  H   H4303     1.0  0.73221  0.73660  0.48684  1.0000
  C   C5359     1.0  0.95717  0.90238  0.57032  1.0000
  S   S727      1.0  0.96916  0.95984  0.66461  1.0000
  C   C5360     1.0  0.79732  0.97183  0.54888  1.0000
  H   H4304     1.0  0.72272  0.89810  0.62888  1.0000
  H   H4305     1.0  0.86919  0.82453  0.72115  1.0000
  C   C5361     1.0  0.71388  0.65757  0.67403  1.0000
  P   P180      1.0  0.82202  0.75507  0.49249  1.0000
  C   C5362     1.0  0.80838  0.74117  0.51046  1.0000
  H   H4306     1.0  0.76423  0.65572  0.62710  1.0000
  C   C5363     1.0  0.73775  0.97645  0.55616  1.0000
  C   C5364     1.0  0.82119  0.73668  0.52180  1.0000
  C   C5365     1.0  0.81103  0.72578  0.53573  1.0000
  C   C5366     1.0  0.77511  0.72371  0.52727  1.0000
  C   C5367     1.0  0.78518  0.73463  0.51332  1.0000
  C   C5368     1.0  0.83823  0.77742  0.49428  1.0000
  C   C5369     1.0  0.82719  0.79313  0.50414  1.0000
  C   C5370     1.0  0.83974  0.81013  0.50588  1.0000
  C   C5371     1.0  0.86338  0.81155  0.49782  1.0000
  C   C5372     1.0  0.87440  0.79609  0.48796  1.0000
  C   C5373     1.0  0.86185  0.77923  0.48606  1.0000
  C   C5374     1.0  0.93713  0.87599  0.71260  1.0000
  S   S728      1.0  0.87081  0.96026  0.58218  1.0000
  C   C5375     1.0  0.82997  0.94822  0.52768  1.0000
  H   H4307     1.0  0.85486  0.70946  0.50336  1.0000
  H   H4308     1.0  0.83909  0.74161  0.51991  1.0000
  H   H4309     1.0  0.97690  0.89689  0.49619  1.0000
  H   H4310     1.0  0.77472  0.73796  0.50490  1.0000
  H   H4311     1.0  0.80887  0.79227  0.51046  1.0000
  H   H4312     1.0  0.83124  0.82226  0.51347  1.0000
  H   H4313     1.0  0.87315  0.82471  0.49916  1.0000
  C   C5376     1.0  0.87714  0.96724  0.49966  1.0000
  C   C5377     1.0  0.90140  0.95247  0.67177  1.0000
  H   H4314     1.0  0.89993  0.76188  0.70854  1.0000
  C   C5378     1.0  0.94892  0.79021  0.69714  1.0000
  H   H4315     1.0  0.67016  0.65580  0.64941  1.0000
  H   H4316     1.0  0.68455  0.68386  0.68337  1.0000
  H   H4317     1.0  0.95647  0.88350  0.57550  1.0000
  H   H4318     1.0  0.64176  0.75925  0.72108  1.0000
  P   P181      1.0  0.64487  0.69308  0.66706  1.0000
  C   C5379     1.0  0.63636  0.70391  0.64959  1.0000
  C   C5380     1.0  0.62292  0.67603  0.67924  1.0000
  C   C5381     1.0  0.85946  0.84038  0.71470  1.0000
  H   H4319     1.0  0.89270  0.79733  0.48170  1.0000
  C   C5382     1.0  0.61143  0.71168  0.64842  1.0000
  C   C5383     1.0  0.60494  0.71997  0.63483  1.0000
  H   H4320     1.0  0.78946  0.66825  0.64070  1.0000
  C   C5384     1.0  0.64814  0.71380  0.62351  1.0000
  C   C5385     1.0  0.65460  0.70569  0.63707  1.0000
  C   C5386     1.0  0.64574  0.72052  0.67286  1.0000
  C   C5387     1.0  0.66718  0.73055  0.66848  1.0000
  C   C5388     1.0  0.66831  0.75120  0.67339  1.0000
  C   C5389     1.0  0.64794  0.76234  0.68243  1.0000
  C   C5390     1.0  0.62618  0.75311  0.68635  1.0000
  C   C5391     1.0  0.62494  0.73248  0.68143  1.0000
  C   C5392     1.0  0.75287  0.94304  0.65084  1.0000
  H   H4321     1.0  0.97783  0.73058  0.70343  1.0000
  H   H4322     1.0  0.95303  0.80849  0.69431  1.0000
  C   C5393     1.0  0.65083  0.74122  0.71892  1.0000
  H   H4323     1.0  0.93685  0.71201  0.66017  1.0000
  H   H4324     1.0  0.94710  0.95144  0.47591  1.0000
  H   H4325     1.0  0.93319  0.88654  0.55336  1.0000
  H   H4326     1.0  0.59705  0.71137  0.65799  1.0000
  H   H4327     1.0  0.66256  0.71453  0.61393  1.0000
  H   H4328     1.0  0.80771  0.68524  0.50604  1.0000
  H   H4329     1.0  0.68324  0.72220  0.66149  1.0000
  H   H4330     1.0  0.68518  0.75831  0.67046  1.0000
  C   C5394     1.0  0.67462  0.67262  0.66611  1.0000
  H   H4331     1.0  0.73069  0.90388  0.66194  1.0000
  H   H4332     1.0  0.60786  0.72575  0.68452  1.0000
  H   H4333     1.0  0.79904  0.93508  0.52561  1.0000
  C   C5395     1.0  0.73683  0.89470  0.57882  1.0000
  C   C5396     1.0  0.75919  0.87830  0.58003  1.0000
  C   C5397     1.0  0.78126  0.88450  0.57173  1.0000
  C   C5398     1.0  0.78100  0.90691  0.56203  1.0000
  C   C5399     1.0  0.75857  0.92346  0.56064  1.0000
  C   C5400     1.0  0.73651  0.91723  0.56919  1.0000
  C   C5401     1.0  0.73556  0.72080  0.49536  1.0000
  C   C5402     1.0  0.79748  0.65792  0.48089  1.0000
  H   H4334     1.0  0.80190  0.80713  0.48118  1.0000
  H   H4335     1.0  0.58569  0.72577  0.63396  1.0000
  C   C5403     1.0  0.82602  0.66443  0.52331  1.0000
  C   C5404     1.0  0.61086  0.66223  0.67403  1.0000
  C   C5405     1.0  0.74857  0.94890  0.61541  1.0000
  Fe  Fe363     1.0  0.84181  0.90170  0.59331  1.0000
  H   H4336     1.0  0.96829  0.83339  0.65586  1.0000
  C   C5406     1.0  0.96416  0.82036  0.54785  1.0000
  S   S729      1.0  0.81950  0.74613  0.70031  1.0000
  C   C5407     1.0  0.91022  0.89721  0.51530  1.0000
  Fe  Fe364     1.0  0.83074  0.95765  0.58780  1.0000
  C   C5408     1.0  0.93385  0.95732  0.63451  1.0000
  S   S730      1.0  0.71555  0.67843  0.62007  1.0000
  H   H4337     1.0  0.72512  0.94552  0.49785  1.0000
  C   C5409     1.0  0.68237  0.87583  0.66725  1.0000
  C   C5410     1.0  0.91902  0.76369  0.70515  1.0000
  C   C5411     1.0  0.66524  0.97519  0.64469  1.0000
  H   H4338     1.0  0.71976  0.88997  0.58540  1.0000
  H   H4339     1.0  0.75953  0.86091  0.58757  1.0000
  H   H4340     1.0  0.79867  0.87201  0.57296  1.0000
  C   C5412     1.0  0.80512  0.94637  0.53102  1.0000
  H   H4341     1.0  0.76529  0.70153  0.48165  1.0000
  C   C5413     1.0  0.89614  0.91528  0.53678  1.0000
  H   H4342     1.0  0.97384  0.97435  0.51271  1.0000
  P   P182      1.0  0.78126  0.65311  0.49938  1.0000
  H   H4343     1.0  0.71588  0.86660  0.67562  1.0000
  C   C5414     1.0  0.91211  0.91356  0.52350  1.0000
  H   H4344     1.0  0.92624  0.92451  0.51966  1.0000
  C   C5415     1.0  0.72095  0.72024  0.50915  1.0000
  C   C5416     1.0  0.71303  0.90146  0.66088  1.0000
  H   H4345     1.0  0.78235  0.90982  0.59333  1.0000
  C   C5417     1.0  0.73253  0.93398  0.62443  1.0000
  C   C5418     1.0  0.83405  0.84810  0.71901  1.0000
  C   C5419     1.0  0.87413  0.69363  0.48500  1.0000
  C   C5420     1.0  0.95306  0.88763  0.70114  1.0000
  H   H4346     1.0  0.73486  0.91514  0.54133  1.0000
  C   C5421     1.0  0.67169  0.97794  0.48641  1.0000
  H   H4347     1.0  0.78008  0.71083  0.54926  1.0000
  H   H4348     1.0  0.92726  0.66411  0.71063  1.0000
  C   C5422     1.0  0.58759  0.65088  0.69803  1.0000
  H   H4349     1.0  0.61509  0.66108  0.66273  1.0000
  C   C5423     1.0  0.92445  0.78720  0.70051  1.0000
  H   H4350     1.0  0.64924  0.77785  0.68659  1.0000
  H   H4351     1.0  0.67387  0.70073  0.63776  1.0000
  C   C5424     1.0  0.95783  0.95140  0.55722  1.0000
  Fe  Fe365     1.0  0.95487  0.97570  0.68474  1.0000
  H   H4352     1.0  0.70548  0.71137  0.70228  1.0000
  C   C5425     1.0  0.68674  0.71430  0.70830  1.0000
  C   C5426     1.0  0.69024  0.67225  0.67539  1.0000
  C   C5427     1.0  0.93846  0.82729  0.55093  1.0000
  C   C5428     1.0  0.67412  0.69463  0.71348  1.0000
  C   C5429     1.0  0.94217  0.86798  0.55214  1.0000
  C   C5430     1.0  0.76618  0.94033  0.60409  1.0000
  H   H4353     1.0  0.96234  0.85117  0.67765  1.0000
  C   C5431     1.0  0.78749  0.75552  0.47631  1.0000
  C   C5432     1.0  0.84732  0.75582  0.71685  1.0000
  H   H4354     1.0  0.89851  0.73930  0.69241  1.0000
  H   H4355     1.0  0.51429  0.97131  0.64834  1.0000
  H   H4356     1.0  0.96616  0.87710  0.69377  1.0000
  H   H4357     1.0  0.74762  0.96704  0.61727  1.0000
  H   H4358     1.0  0.83468  0.94121  0.63717  1.0000
  H   H4359     1.0  0.82095  0.72250  0.54444  1.0000
  C   C5433     1.0  0.75205  0.90186  0.61063  1.0000
  H   H4360     1.0  0.86208  0.74339  0.71156  1.0000
  H   H4361     1.0  0.67620  0.85909  0.67320  1.0000
  C   C5434     1.0  0.75424  0.70072  0.49239  1.0000
  C   C5435     1.0  0.79887  0.76984  0.48160  1.0000
  Fe  Fe366     1.0  0.87489  0.93143  0.56925  1.0000
  C   C5436     1.0  0.74718  0.94958  0.53195  1.0000
  S   S731      1.0  0.93770  0.84458  0.71412  1.0000
  H   H4362     1.0  0.62809  0.68541  0.69845  1.0000
  C   C5437     1.0  0.68823  0.98205  0.62018  1.0000
  H   H4363     1.0  0.72639  0.65847  0.68064  1.0000
  S   S732      1.0  0.71106  0.65175  0.55938  1.0000
  H   H4364     1.0  0.66630  0.92630  0.64225  1.0000
  C   C5438     1.0  0.73433  0.91037  0.62193  1.0000
  H   H4365     1.0  0.75032  0.96249  0.57644  1.0000
  C   C5439     1.0  0.68648  0.96883  0.63442  1.0000
  C   C5440     1.0  0.92750  0.85105  0.55312  1.0000
  C   C5441     1.0  0.71962  0.97795  0.65418  1.0000
  C   C5442     1.0  0.74379  0.67953  0.51707  1.0000
  C   C5443     1.0  0.78802  0.71924  0.53845  1.0000
  C   C5444     1.0  0.89986  0.71982  0.69370  1.0000
  C   C5445     1.0  0.90920  0.94434  0.62148  1.0000
  H   H4366     1.0  0.93426  0.96006  0.57703  1.0000
  C   C5446     1.0  0.96801  0.76965  0.69802  1.0000
  C   C5447     1.0  0.93804  0.74284  0.70605  1.0000
  C   C5448     1.0  0.76663  0.95171  0.65798  1.0000
  C   C5449     1.0  0.89639  0.93114  0.66944  1.0000
  C   C5450     1.0  0.88163  0.91704  0.68032  1.0000
  C   C5451     1.0  0.87286  0.92409  0.69380  1.0000
  P   P183      1.0  0.87515  0.88963  0.67706  1.0000
  C   C5452     1.0  0.85496  0.89650  0.66423  1.0000
  C   C5453     1.0  0.90435  0.87127  0.67038  1.0000
  C   C5454     1.0  0.90778  0.86127  0.65805  1.0000
  C   C5455     1.0  0.93080  0.84767  0.65283  1.0000
  C   C5456     1.0  0.95044  0.84384  0.65992  1.0000
  C   C5457     1.0  0.94716  0.85390  0.67214  1.0000
  C   C5458     1.0  0.92427  0.86772  0.67726  1.0000
  C   C5459     1.0  0.84108  0.87921  0.66426  1.0000
  C   C5460     1.0  0.82443  0.88460  0.65496  1.0000
  C   C5461     1.0  0.82195  0.90702  0.64530  1.0000
  C   C5462     1.0  0.83622  0.92400  0.64487  1.0000
  C   C5463     1.0  0.85264  0.91883  0.65431  1.0000
  C   C5464     1.0  0.85953  0.87333  0.69368  1.0000
  C   C5465     1.0  0.83402  0.88112  0.69821  1.0000
  C   C5466     1.0  0.74980  0.96774  0.51943  1.0000
  H   H4367     1.0  0.77878  0.95173  0.59730  1.0000
  C   C5467     1.0  0.94433  0.92111  0.57779  1.0000
  C   C5468     1.0  0.87226  0.85304  0.70213  1.0000
  S   S733      1.0  0.83425  0.92876  0.60787  1.0000
  H   H4368     1.0  0.78624  0.77978  0.71824  1.0000
  C   C5469     1.0  0.82377  0.76046  0.71349  1.0000
  H   H4369     1.0  0.90406  0.92560  0.65915  1.0000
  H   H4370     1.0  0.86232  0.91314  0.70263  1.0000
  H   H4371     1.0  0.89295  0.86430  0.65227  1.0000
  H   H4372     1.0  0.93344  0.84038  0.64318  1.0000
  C   C5470     1.0  0.85712  0.71144  0.49184  1.0000
  C   C5471     1.0  0.50823  0.95488  0.65487  1.0000
  H   H4373     1.0  0.92203  0.87566  0.68664  1.0000
  H   H4374     1.0  0.84295  0.86160  0.67157  1.0000
  H   H4375     1.0  0.81353  0.87131  0.65521  1.0000
  H   H4376     1.0  0.80901  0.91124  0.63811  1.0000
  H   H4377     1.0  0.93381  0.91670  0.58862  1.0000
  H   H4378     1.0  0.86340  0.93233  0.65371  1.0000
  H   H4379     1.0  0.82389  0.89697  0.69198  1.0000
  H   H4380     1.0  0.87348  0.68072  0.68369  1.0000
  H   H4381     1.0  0.88478  0.97339  0.61023  1.0000
  C   C5472     1.0  0.92698  0.93863  0.63018  1.0000
  H   H4382     1.0  0.89197  0.84698  0.69920  1.0000
  H   H4383     1.0  0.92299  0.89550  0.50529  1.0000
  H   H4384     1.0  0.76084  0.92636  0.64664  1.0000
  S   S734      1.0  0.83462  0.93043  0.57379  1.0000
  S   S735      1.0  0.89928  0.93526  0.54712  1.0000
  C   C5473     1.0  0.97075  0.93269  0.54970  1.0000
  C   C5474     1.0  0.72905  0.95590  0.64907  1.0000
  C   C5475     1.0  0.90149  0.66967  0.69675  1.0000
  C   C5476     1.0  0.97892  0.83720  0.54694  1.0000
  C   C5477     1.0  0.75718  0.67199  0.63176  1.0000
  C   C5478     1.0  0.78864  0.95791  0.54179  1.0000
  H   H4385     1.0  0.97263  0.80204  0.54590  1.0000
  H   H4386     1.0  0.95764  0.97044  0.55211  1.0000
  C   C5479     1.0  0.51585  0.91672  0.67184  1.0000
  C   C5480     1.0  0.89850  0.96886  0.61694  1.0000
  H   H4387     1.0  0.79231  0.73568  0.47877  1.0000
  C   C5481     1.0  0.96266  0.74606  0.70239  1.0000
  H   H4388     1.0  0.78487  0.94167  0.65942  1.0000
  H   H4389     1.0  0.71904  0.92971  0.56830  1.0000
  H   H4390     1.0  0.84278  0.93845  0.51978  1.0000
  C   C5482     1.0  0.83850  0.96180  0.53494  1.0000
  C   C5483     1.0  0.79287  0.79555  0.47774  1.0000
  C   C5484     1.0  0.87071  0.95902  0.47773  1.0000
  C   C5485     1.0  0.82134  0.86847  0.71078  1.0000
  H   H4391     1.0  0.66361  0.96551  0.65579  1.0000
  C   C5486     1.0  0.91959  0.91508  0.72017  1.0000
  C   C5487     1.0  0.73133  0.94656  0.50734  1.0000
  C   C5488     1.0  0.80451  0.77617  0.72068  1.0000
  H   H4392     1.0  0.83342  0.67962  0.52418  1.0000
  C   C5489     1.0  0.91610  0.67763  0.70370  1.0000
  C   C5490     1.0  0.89231  0.95954  0.68510  1.0000
  C   C5491     1.0  0.82216  0.97370  0.54544  1.0000
  C   C5492     1.0  0.98015  0.89310  0.51818  1.0000
  C   C5493     1.0  0.74164  0.96640  0.50726  1.0000
  H   H4393     1.0  0.83256  0.65926  0.48550  1.0000
  H   H4394     1.0  0.68191  0.97414  0.49501  1.0000
  C   C5494     1.0  0.98749  0.89989  0.50327  1.0000
  H   H4395     1.0  0.96944  0.68869  0.69308  1.0000
  C   C5495     1.0  0.81144  0.66752  0.51306  1.0000
  C   C5496     1.0  0.82245  0.65985  0.47730  1.0000
  H   H4396     1.0  0.85788  0.96259  0.53274  1.0000
  H   H4397     1.0  0.83853  0.93435  0.47653  1.0000
  H   H4398     1.0  0.91263  0.96342  0.66331  1.0000
  H   H4399     1.0  0.99136  0.91450  0.58845  1.0000
  C   C5497     1.0  0.63815  0.72160  0.72400  1.0000
  C   C5498     1.0  0.73832  0.97688  0.57045  1.0000
  H   H4400     1.0  0.98697  0.77202  0.69580  1.0000
  H   H4401     1.0  0.89674  0.97576  0.68696  1.0000
  H   H4402     1.0  0.74303  0.98096  0.49783  1.0000
  C   C5499     1.0  0.92288  0.98185  0.63019  1.0000
  H   H4403     1.0  0.78538  0.98051  0.55744  1.0000
  C   C5500     1.0  0.59296  0.65001  0.68341  1.0000
  C   C5501     1.0  0.93414  0.98261  0.51726  1.0000
  H   H4404     1.0  0.63613  0.98244  0.50059  1.0000
  C   C5502     1.0  0.49235  0.91288  0.67217  1.0000
  C   C5503     1.0  0.64593  0.98262  0.48955  1.0000
  H   H4405     1.0  0.90182  0.65024  0.69810  1.0000
  H   H4406     1.0  0.93172  0.80047  0.92556  1.0000
  Fe  Fe367     1.0  0.89822  0.91270  0.86481  1.0000
  S   S736      1.0  0.93536  0.88909  0.85892  1.0000
  S   S737      1.0  0.89818  0.95363  0.85679  1.0000
  Fe  Fe368     1.0  0.87471  0.86741  0.87788  1.0000
  S   S738      1.0  0.91023  0.84066  0.87309  1.0000
  S   S739      1.0  0.83852  0.85580  0.88958  1.0000
  Fe  Fe369     1.0  0.92707  0.86563  0.88076  1.0000
  S   S740      1.0  0.55803  0.65033  0.88701  1.0000
  Fe  Fe370     1.0  0.91568  0.86615  0.85162  1.0000
  S   S741      1.0  0.93526  0.85059  0.83169  1.0000
  S   S742      1.0  0.89109  0.89080  0.88732  1.0000
  S   S743      1.0  0.87892  0.89142  0.85569  1.0000
  C   C5504     1.0  0.55722  0.66588  0.90073  1.0000
  Fe  Fe371     1.0  0.79004  0.73044  0.90956  1.0000
  S   S744      1.0  0.77512  0.72293  0.93347  1.0000
  S   S745      1.0  0.82523  0.74534  0.89956  1.0000
  Fe  Fe372     1.0  0.75447  0.70339  0.90297  1.0000
  S   S746      1.0  0.73780  0.69379  0.92626  1.0000
  S   S747      1.0  0.74136  0.69349  0.88513  1.0000
  Fe  Fe373     1.0  0.73800  0.73257  0.92705  1.0000
  Fe  Fe374     1.0  0.77621  0.68480  0.93062  1.0000
  H   H4407     1.0  0.73980  0.76788  0.94642  1.0000
  S   S748      1.0  0.75272  0.74298  0.90329  1.0000
  S   S749      1.0  0.79318  0.69155  0.90708  1.0000
  H   H4408     1.0  0.85318  0.70466  0.74923  1.0000
  C   C5505     1.0  0.92129  0.92119  0.78342  1.0000
  Fe  Fe375     1.0  0.87525  0.79940  0.74941  1.0000
  S   S750      1.0  0.91265  0.78730  0.73632  1.0000
  S   S751      1.0  0.83725  0.79505  0.74818  1.0000
  Fe  Fe376     1.0  0.89548  0.82515  0.76682  1.0000
  S   S752      1.0  0.93471  0.81536  0.75531  1.0000
  S   S753      1.0  0.87865  0.84908  0.78346  1.0000
  Fe  Fe377     1.0  0.91861  0.82517  0.73528  1.0000
  H   H4409     1.0  0.93322  0.73180  0.73835  1.0000
  Fe  Fe378     1.0  0.92632  0.77817  0.75716  1.0000
  S   S754      1.0  0.95252  0.74309  0.76467  1.0000
  S   S755      1.0  0.88015  0.83814  0.74653  1.0000
  S   S756      1.0  0.88820  0.78714  0.77050  1.0000
  H   H4410     1.0  0.87151  0.95642  0.88629  1.0000
  H   H4411     1.0  0.52213  0.85144  0.86063  1.0000
  Fe  Fe379     1.0  0.59659  0.67704  0.74205  1.0000
  C   C5506     1.0  0.83251  0.78221  0.73451  1.0000
  H   H4412     1.0  0.95298  0.94371  0.85101  1.0000
  H   H4413     1.0  0.75079  0.68139  0.96017  1.0000
  C   C5507     1.0  0.92556  0.70224  0.93050  1.0000
  C   C5508     1.0  0.80884  0.78682  0.73125  1.0000
  H   H4414     1.0  0.82416  0.83837  0.72877  1.0000
  C   C5509     1.0  0.92370  0.67765  0.93200  1.0000
  C   C5510     1.0  0.59769  0.67311  0.83582  1.0000
  C   C5511     1.0  0.53733  0.65314  0.85551  1.0000
  S   S757      1.0  0.52650  0.76655  0.94901  1.0000
  C   C5512     1.0  0.74341  0.69576  0.96640  1.0000
  C   C5513     1.0  0.90999  0.71477  0.73070  1.0000
  C   C5514     1.0  0.88734  0.70693  0.73400  1.0000
  C   C5515     1.0  0.67445  0.71121  0.92330  1.0000
  C   C5516     1.0  0.55536  0.69062  0.92285  1.0000
  C   C5517     1.0  0.86634  0.71090  0.92841  1.0000
  C   C5518     1.0  0.50587  0.75591  0.73666  1.0000
  C   C5519     1.0  0.93372  0.94098  0.90628  1.0000
  C   C5520     1.0  0.89874  0.73870  0.96547  1.0000
  H   H4415     1.0  0.96550  0.66912  0.94790  1.0000
  H   H4416     1.0  0.51571  0.82863  0.90318  1.0000
  C   C5521     1.0  0.98445  0.83644  0.85118  1.0000
  C   C5522     1.0  0.49694  0.73013  0.79615  1.0000
  H   H4417     1.0  0.53478  0.67847  0.80997  1.0000
  C   C5523     1.0  0.52098  0.89121  0.91737  1.0000
  H   H4418     1.0  0.88190  0.93577  0.78645  1.0000
  C   C5524     1.0  0.50252  0.97390  0.82159  1.0000
  C   C5525     1.0  0.61783  0.92736  0.94920  1.0000
  S   S758      1.0  0.56246  0.69766  0.73342  1.0000
  C   C5526     1.0  0.62674  0.70236  0.78207  1.0000
  H   H4419     1.0  0.95496  0.68879  0.73870  1.0000
  H   H4420     1.0  0.95431  0.90513  0.90234  1.0000
  H   H4421     1.0  0.95264  0.89717  0.81106  1.0000
  C   C5527     1.0  0.52632  0.81055  0.90194  1.0000
  C   C5528     1.0  0.61626  0.68633  0.83385  1.0000
  H   H4422     1.0  0.93829  0.94371  0.82790  1.0000
  C   C5529     1.0  0.72036  0.67323  0.88922  1.0000
  H   H4423     1.0  0.90823  0.88086  0.73113  1.0000
  H   H4424     1.0  0.62980  0.68024  0.84075  1.0000
  H   H4425     1.0  0.49449  0.67029  0.82479  1.0000
  H   H4426     1.0  0.86349  0.80294  0.91327  1.0000
  H   H4427     1.0  0.90856  0.78015  0.88556  1.0000
  H   H4428     1.0  0.63778  0.92198  0.94752  1.0000
  P   P184      1.0  0.92625  0.92681  0.76396  1.0000
  C   C5530     1.0  0.53758  0.80635  0.97308  1.0000
  C   C5531     1.0  0.65401  0.69976  0.92730  1.0000
  C   C5532     1.0  0.53500  0.69511  0.91625  1.0000
  C   C5533     1.0  0.98252  0.74132  0.73780  1.0000
  C   C5534     1.0  0.69745  0.80495  0.96726  1.0000
  C   C5535     1.0  0.67197  0.66957  0.95375  1.0000
  C   C5536     1.0  0.67743  0.78588  0.95472  1.0000
  H   H4429     1.0  0.67633  0.72832  0.88719  1.0000
  C   C5537     1.0  0.53589  0.68258  0.90527  1.0000
  S   S759      1.0  0.52094  0.65060  0.73485  1.0000
  H   H4430     1.0  0.97015  0.75776  0.73376  1.0000
  C   C5538     1.0  0.83463  0.82523  0.89189  1.0000
  C   C5539     1.0  0.81247  0.81846  0.89999  1.0000
  C   C5540     1.0  0.80907  0.79413  0.90228  1.0000
  C   C5541     1.0  0.82797  0.77635  0.89659  1.0000
  C   C5542     1.0  0.85013  0.78310  0.88854  1.0000
  C   C5543     1.0  0.85337  0.80746  0.88608  1.0000
  H   H4431     1.0  0.79787  0.83211  0.90453  1.0000
  H   H4432     1.0  0.79195  0.78912  0.90854  1.0000
  H   H4433     1.0  0.86482  0.76941  0.88413  1.0000
  H   H4434     1.0  0.87041  0.81247  0.87979  1.0000
  C   C5544     1.0  0.91897  0.84954  0.81868  1.0000
  C   C5545     1.0  0.93157  0.83804  0.80704  1.0000
  C   C5546     1.0  0.91917  0.83708  0.79639  1.0000
  C   C5547     1.0  0.89433  0.84831  0.79711  1.0000
  C   C5548     1.0  0.88177  0.85988  0.80870  1.0000
  C   C5549     1.0  0.89396  0.86020  0.81959  1.0000
  H   H4435     1.0  0.95091  0.82970  0.80633  1.0000
  H   H4436     1.0  0.92889  0.82807  0.78749  1.0000
  H   H4437     1.0  0.86256  0.86864  0.80925  1.0000
  H   H4438     1.0  0.88414  0.86906  0.82852  1.0000
  C   C5550     1.0  0.65089  0.70974  0.75789  1.0000
  C   C5551     1.0  0.95893  0.80525  0.89628  1.0000
  H   H4439     1.0  0.53989  0.78462  0.76966  1.0000
  C   C5552     1.0  0.96480  0.66885  0.91777  1.0000
  C   C5553     1.0  0.91722  0.79137  0.92531  1.0000
  H   H4440     1.0  0.53622  0.71711  0.79170  1.0000
  H   H4441     1.0  0.94285  0.81073  0.89140  1.0000
  H   H4442     1.0  0.49682  0.94814  0.94220  1.0000
  H   H4443     1.0  0.54845  0.83569  0.93466  1.0000
  C   C5554     1.0  0.97818  0.73058  0.75244  1.0000
  S   S760      1.0  0.53137  0.67628  0.76525  1.0000
  C   C5555     1.0  0.94774  0.90128  0.75714  1.0000
  H   H4444     1.0  0.69865  0.72974  0.90581  1.0000
  H   H4445     1.0  0.63830  0.71059  0.89437  1.0000
  H   H4446     1.0  0.86507  0.75942  0.92424  1.0000
  C   C5556     1.0  0.72201  0.77732  0.95126  1.0000
  C   C5557     1.0  0.89972  0.72808  0.75369  1.0000
  H   H4447     1.0  0.56626  0.90657  0.92889  1.0000
  C   C5558     1.0  0.49289  0.86952  0.87532  1.0000
  C   C5559     1.0  0.94124  0.91067  0.79052  1.0000
  H   H4448     1.0  0.57369  0.86192  0.93910  1.0000
  H   H4449     1.0  0.50294  0.87107  0.76894  1.0000
  H   H4450     1.0  0.52071  0.90662  0.79634  1.0000
  C   C5560     1.0  0.78915  0.77899  0.97407  1.0000
  H   H4451     1.0  0.55543  0.86033  0.86990  1.0000
  H   H4452     1.0  0.54496  0.88334  0.88969  1.0000
  H   H4453     1.0  0.68442  0.71196  0.93130  1.0000
  H   H4454     1.0  0.98856  0.84489  0.74146  1.0000
  H   H4455     1.0  0.97451  0.85264  0.84514  1.0000
  H   H4456     1.0  0.87270  0.95214  0.92186  1.0000
  H   H4457     1.0  0.61968  0.68938  0.79125  1.0000
  C   C5561     1.0  0.56615  0.94051  0.95486  1.0000
  C   C5562     1.0  0.85252  0.93085  0.75074  1.0000
  H   H4458     1.0  0.79752  0.86908  0.87031  1.0000
  S   S761      1.0  0.95713  0.85455  0.89401  1.0000
  C   C5563     1.0  0.64135  0.69352  0.76994  1.0000
  Fe  Fe380     1.0  0.54696  0.66373  0.74426  1.0000
  H   H4459     1.0  0.90774  0.73676  0.89719  1.0000
  S   S762      1.0  0.63786  0.87338  0.97360  1.0000
  C   C5564     1.0  0.96962  0.82301  0.89877  1.0000
  H   H4460     1.0  0.59707  0.65685  0.84422  1.0000
  H   H4461     1.0  0.93375  0.75684  0.93683  1.0000
  C   C5565     1.0  0.96262  0.95588  0.80813  1.0000
  H   H4462     1.0  0.94657  0.95811  0.77655  1.0000
  C   C5566     1.0  0.80798  0.78894  0.94881  1.0000
  C   C5567     1.0  0.89763  0.80437  0.91853  1.0000
  C   C5568     1.0  0.96517  0.85753  0.76025  1.0000
  C   C5569     1.0  0.88000  0.76780  0.92452  1.0000
  C   C5570     1.0  0.63025  0.65942  0.94681  1.0000
  H   H4463     1.0  0.71565  0.67899  0.86726  1.0000
  H   H4464     1.0  0.97621  0.75935  0.80120  1.0000
  C   C5571     1.0  0.50053  0.93049  0.94922  1.0000
  H   H4465     1.0  0.95892  0.73151  0.82296  1.0000
  C   C5572     1.0  0.96970  0.74405  0.82395  1.0000
  H   H4466     1.0  0.61948  0.72453  0.73012  1.0000
  C   C5573     1.0  0.68238  0.72157  0.90889  1.0000
  C   C5574     1.0  0.91599  0.72542  0.74066  1.0000
  H   H4467     1.0  0.81658  0.80137  0.93981  1.0000
  C   C5575     1.0  0.87710  0.72063  0.75678  1.0000
  C   C5576     1.0  0.87095  0.70999  0.74696  1.0000
  C   C5577     1.0  0.52617  0.86574  0.92252  1.0000
  H   H4468     1.0  0.91099  0.90908  0.82529  1.0000
  C   C5578     1.0  0.59837  0.74536  0.96990  1.0000
  C   C5579     1.0  0.58061  0.95779  0.95386  1.0000
  H   H4469     1.0  0.92109  0.67995  0.96035  1.0000
  C   C5580     1.0  0.51081  0.96952  0.87993  1.0000
  H   H4470     1.0  0.69552  0.66160  0.93383  1.0000
  C   C5581     1.0  0.60088  0.71223  0.95777  1.0000
  H   H4471     1.0  0.49786  0.74666  0.78799  1.0000
  C   C5582     1.0  0.91048  0.95398  0.91187  1.0000
  Fe  Fe381     1.0  0.52141  0.72996  0.94700  1.0000
  H   H4472     1.0  0.79037  0.73407  0.95636  1.0000
  H   H4473     1.0  0.77834  0.69531  0.97125  1.0000
  H   H4474     1.0  0.86422  0.72341  0.76669  1.0000
  C   C5583     1.0  0.49520  0.68694  0.81676  1.0000
  S   S763      1.0  0.52881  0.74530  0.75995  1.0000
  S   S764      1.0  0.55510  0.70511  0.93696  1.0000
  C   C5584     1.0  0.70043  0.77347  0.94843  1.0000
  C   C5585     1.0  0.89402  0.92365  0.80665  1.0000
  H   H4475     1.0  0.50831  0.74479  0.90111  1.0000
  H   H4476     1.0  0.84878  0.97012  0.74689  1.0000
  S   S765      1.0  0.70133  0.75236  0.93772  1.0000
  Fe  Fe382     1.0  0.54954  0.70843  0.75510  1.0000
  H   H4477     1.0  0.55577  0.65426  0.85607  1.0000
  C   C5586     1.0  0.97883  0.65372  0.95201  1.0000
  C   C5587     1.0  0.51320  0.74871  0.87794  1.0000
  C   C5588     1.0  0.79278  0.75110  0.95819  1.0000
  P   P185      1.0  0.53847  0.76466  0.87347  1.0000
  C   C5589     1.0  0.53892  0.77728  0.88866  1.0000
  C   C5590     1.0  0.56736  0.74342  0.86986  1.0000
  C   C5591     1.0  0.58975  0.75074  0.86866  1.0000
  C   C5592     1.0  0.61212  0.73393  0.86692  1.0000
  C   C5593     1.0  0.61229  0.70965  0.86651  1.0000
  C   C5594     1.0  0.59009  0.70224  0.86776  1.0000
  C   C5595     1.0  0.56773  0.71895  0.86947  1.0000
  C   C5596     1.0  0.52584  0.80097  0.89013  1.0000
  H   H4478     1.0  0.96660  0.83936  0.76695  1.0000
  C   C5597     1.0  0.53956  0.79645  0.91248  1.0000
  C   C5598     1.0  0.55219  0.77261  0.91128  1.0000
  C   C5599     1.0  0.55179  0.76298  0.89946  1.0000
  C   C5600     1.0  0.53314  0.78906  0.85815  1.0000
  H   H4479     1.0  0.61239  0.89169  0.94848  1.0000
  C   C5601     1.0  0.91589  0.69562  0.96554  1.0000
  C   C5602     1.0  0.52384  0.82650  0.83434  1.0000
  C   C5603     1.0  0.54783  0.81325  0.83484  1.0000
  C   C5604     1.0  0.55251  0.79455  0.84667  1.0000
  C   C5605     1.0  0.96597  0.75376  0.86970  1.0000
  C   C5606     1.0  0.49357  0.90843  0.78383  1.0000
  C   C5607     1.0  0.50904  0.80237  0.85748  1.0000
  H   H4480     1.0  0.58982  0.76929  0.86943  1.0000
  H   H4481     1.0  0.62932  0.73954  0.86619  1.0000
  H   H4482     1.0  0.98429  0.88634  0.72593  1.0000
  H   H4483     1.0  0.53284  0.92536  0.91552  1.0000
  H   H4484     1.0  0.55087  0.71230  0.87095  1.0000
  C   C5608     1.0  0.62411  0.74174  0.96713  1.0000
  C   C5609     1.0  0.61369  0.65166  0.95937  1.0000
  H   H4485     1.0  0.53934  0.80374  0.92180  1.0000
  H   H4486     1.0  0.56187  0.76132  0.91966  1.0000
  H   H4487     1.0  0.56115  0.74420  0.89896  1.0000
  C   C5610     1.0  0.98927  0.77271  0.90710  1.0000
  C   C5611     1.0  0.69410  0.65974  0.94528  1.0000
  C   C5612     1.0  0.75898  0.70390  0.97261  1.0000
  H   H4488     1.0  0.56280  0.81749  0.82603  1.0000
  H   H4489     1.0  0.57116  0.78440  0.84675  1.0000
  C   C5613     1.0  0.64578  0.73486  0.75793  1.0000
  C   C5614     1.0  0.91839  0.76654  0.93159  1.0000
  C   C5615     1.0  0.67022  0.66608  0.96871  1.0000
  C   C5616     1.0  0.62164  0.72758  0.78226  1.0000
  C   C5617     1.0  0.63123  0.74378  0.77006  1.0000
  P   P186      1.0  0.60396  0.73915  0.79818  1.0000
  C   C5618     1.0  0.57324  0.75539  0.79582  1.0000
  C   C5619     1.0  0.60120  0.71377  0.81321  1.0000
  C   C5620     1.0  0.58278  0.70015  0.81515  1.0000
  C   C5621     1.0  0.58099  0.67996  0.82646  1.0000
  C   C5622     1.0  0.61801  0.70665  0.82262  1.0000
  C   C5623     1.0  0.55447  0.75878  0.80795  1.0000
  C   C5624     1.0  0.53069  0.77145  0.80626  1.0000
  C   C5625     1.0  0.52552  0.78096  0.79245  1.0000
  C   C5626     1.0  0.54406  0.77773  0.78037  1.0000
  C   C5627     1.0  0.56776  0.76482  0.78200  1.0000
  C   C5628     1.0  0.62069  0.75918  0.80203  1.0000
  C   C5629     1.0  0.60812  0.77962  0.80825  1.0000
  C   C5630     1.0  0.62133  0.79480  0.81134  1.0000
  C   C5631     1.0  0.64713  0.78965  0.80828  1.0000
  C   C5632     1.0  0.65975  0.76931  0.80215  1.0000
  C   C5633     1.0  0.64662  0.75410  0.79905  1.0000
  H   H4490     1.0  0.65321  0.74736  0.74851  1.0000
  H   H4491     1.0  0.62764  0.76329  0.76995  1.0000
  H   H4492     1.0  0.57025  0.70469  0.80769  1.0000
  H   H4493     1.0  0.56729  0.66902  0.82762  1.0000
  H   H4494     1.0  0.55818  0.75153  0.81873  1.0000
  H   H4495     1.0  0.90728  0.97347  0.91153  1.0000
  H   H4496     1.0  0.51595  0.85382  0.92030  1.0000
  C   C5634     1.0  0.97759  0.86064  0.74591  1.0000
  H   H4497     1.0  0.58151  0.76203  0.77243  1.0000
  H   H4498     1.0  0.58820  0.78391  0.81070  1.0000
  H   H4499     1.0  0.61163  0.81060  0.81607  1.0000
  H   H4500     1.0  0.65738  0.80142  0.81065  1.0000
  H   H4501     1.0  0.67976  0.76527  0.79979  1.0000
  H   H4502     1.0  0.65677  0.73827  0.79442  1.0000
  C   C5635     1.0  0.82406  0.82812  0.79733  1.0000
  C   C5636     1.0  0.82542  0.80862  0.79068  1.0000
  C   C5637     1.0  0.82908  0.78457  0.79847  1.0000
  C   C5638     1.0  0.83150  0.78000  0.81288  1.0000
  C   C5639     1.0  0.82991  0.79954  0.81971  1.0000
  C   C5640     1.0  0.82640  0.82364  0.81175  1.0000
  P   P187      1.0  0.83614  0.79315  0.83775  1.0000
  C   C5641     1.0  0.82173  0.81840  0.84706  1.0000
  C   C5642     1.0  0.82462  0.76611  0.84813  1.0000
  C   C5643     1.0  0.80214  0.76210  0.84644  1.0000
  C   C5644     1.0  0.79226  0.74207  0.85504  1.0000
  C   C5645     1.0  0.80466  0.72597  0.86542  1.0000
  C   C5646     1.0  0.82699  0.72985  0.86718  1.0000
  C   C5647     1.0  0.83690  0.74991  0.85864  1.0000
  C   C5648     1.0  0.80201  0.81616  0.85885  1.0000
  C   C5649     1.0  0.79308  0.83460  0.86703  1.0000
  C   C5650     1.0  0.80377  0.85533  0.86358  1.0000
  C   C5651     1.0  0.82325  0.85780  0.85183  1.0000
  C   C5652     1.0  0.83218  0.83946  0.84360  1.0000
  C   C5653     1.0  0.86898  0.78941  0.83656  1.0000
  C   C5654     1.0  0.88573  0.78516  0.82382  1.0000
  C   C5655     1.0  0.91072  0.78525  0.82248  1.0000
  C   C5656     1.0  0.91911  0.78988  0.83375  1.0000
  C   C5657     1.0  0.90265  0.79376  0.84651  1.0000
  C   C5658     1.0  0.87776  0.79326  0.84798  1.0000
  H   H4503     1.0  0.82218  0.84668  0.79111  1.0000
  H   H4504     1.0  0.82428  0.81207  0.77937  1.0000
  H   H4505     1.0  0.83066  0.76947  0.79317  1.0000
  H   H4506     1.0  0.83524  0.76117  0.81858  1.0000
  H   H4507     1.0  0.82614  0.83901  0.81645  1.0000
  H   H4508     1.0  0.79196  0.77475  0.83870  1.0000
  H   H4509     1.0  0.77475  0.73917  0.85388  1.0000
  H   H4510     1.0  0.79671  0.71073  0.87227  1.0000
  H   H4511     1.0  0.83624  0.71772  0.87551  1.0000
  H   H4512     1.0  0.85377  0.75298  0.86055  1.0000
  H   H4513     1.0  0.79397  0.79992  0.86216  1.0000
  H   H4514     1.0  0.77847  0.83237  0.87641  1.0000
  H   H4515     1.0  0.51980  0.74141  0.73254  1.0000
  H   H4516     1.0  0.83196  0.87356  0.84943  1.0000
  H   H4517     1.0  0.84792  0.84124  0.83488  1.0000
  H   H4518     1.0  0.87956  0.78267  0.81468  1.0000
  H   H4519     1.0  0.92336  0.78289  0.81243  1.0000
  H   H4520     1.0  0.93814  0.79145  0.83239  1.0000
  H   H4521     1.0  0.90896  0.79815  0.85505  1.0000
  H   H4522     1.0  0.86512  0.79696  0.85779  1.0000
  C   C5659     1.0  0.89990  0.75444  0.93116  1.0000
  C   C5660     1.0  0.98892  0.66679  0.73031  1.0000
  C   C5661     1.0  0.85177  0.76690  0.72716  1.0000
  H   H4523     1.0  0.81012  0.76219  0.93606  1.0000
  C   C5662     1.0  0.69481  0.65233  0.88112  1.0000
  P   P188      1.0  0.49783  0.90446  0.90631  1.0000
  C   C5663     1.0  0.98708  0.76132  0.83890  1.0000
  C   C5664     1.0  0.50305  0.84928  0.75389  1.0000
  C   C5665     1.0  0.51757  0.86158  0.86929  1.0000
  H   H4524     1.0  0.51714  0.93209  0.87762  1.0000
  C   C5666     1.0  0.93747  0.90632  0.80556  1.0000
  H   H4525     1.0  0.54248  0.96106  0.92818  1.0000
  H   H4526     1.0  0.70676  0.70139  0.96223  1.0000
  C   C5667     1.0  0.89302  0.97581  0.86776  1.0000
  H   H4527     1.0  0.94980  0.72844  0.92129  1.0000
  C   C5668     1.0  0.96688  0.69320  0.91621  1.0000
  H   H4528     1.0  0.90656  0.92570  0.72750  1.0000
  C   C5669     1.0  0.97525  0.88399  0.73718  1.0000
  C   C5670     1.0  0.95002  0.87764  0.76577  1.0000
  H   H4529     1.0  0.52141  0.68916  0.86007  1.0000
  H   H4530     1.0  0.66072  0.78316  0.95242  1.0000
  C   C5671     1.0  0.87894  0.79265  0.91826  1.0000
  C   C5672     1.0  0.51790  0.69171  0.80854  1.0000
  C   C5673     1.0  0.96541  0.72921  0.87638  1.0000
  H   H4531     1.0  0.86986  0.76295  0.72984  1.0000
  C   C5674     1.0  0.94515  0.77201  0.87292  1.0000
  C   C5675     1.0  0.97349  0.74480  0.83751  1.0000
  C   C5676     1.0  0.93676  0.91567  0.90680  1.0000
  H   H4532     1.0  0.98027  0.65578  0.91336  1.0000
  C   C5677     1.0  0.63827  0.72320  0.95981  1.0000
  H   H4533     1.0  0.51315  0.74899  0.85566  1.0000
  H   H4534     1.0  0.81537  0.68599  0.94297  1.0000
  H   H4535     1.0  0.59003  0.68333  0.86779  1.0000
  H   H4536     1.0  0.63287  0.71625  0.82118  1.0000
  H   H4537     1.0  0.62954  0.69642  0.86549  1.0000
  S   S766      1.0  0.58491  0.69051  0.76304  1.0000
  H   H4538     1.0  0.51851  0.70789  0.91975  1.0000
  H   H4539     1.0  0.87851  0.90742  0.92275  1.0000
  C   C5678     1.0  0.71062  0.66925  0.87817  1.0000
  C   C5679     1.0  0.91700  0.90362  0.91290  1.0000
  H   H4540     1.0  0.95863  0.92187  0.73559  1.0000
  C   C5680     1.0  0.93760  0.95515  0.75666  1.0000
  C   C5681     1.0  0.55913  0.87006  0.93294  1.0000
  C   C5682     1.0  0.53177  0.97742  0.93206  1.0000
  C   C5683     1.0  0.98702  0.92076  0.91653  1.0000
  H   H4541     1.0  0.57197  0.97620  0.95553  1.0000
  H   H4542     1.0  0.97249  0.93749  0.80700  1.0000
  C   C5684     1.0  0.54875  0.82683  0.97008  1.0000
  P   P189      1.0  0.53300  0.94909  0.95950  1.0000
  H   H4543     1.0  0.59234  0.67024  0.92340  1.0000
  H   H4544     1.0  0.63310  0.75362  0.97038  1.0000
  H   H4545     1.0  0.84072  0.69987  0.91932  1.0000
  H   H4546     1.0  0.93949  0.87453  0.77665  1.0000
  C   C5685     1.0  0.94738  0.70987  0.92252  1.0000
  C   C5686     1.0  0.60636  0.95109  0.95127  1.0000
  H   H4547     1.0  0.61750  0.96398  0.95127  1.0000
  H   H4548     1.0  0.95964  0.90546  0.78444  1.0000
  C   C5687     1.0  0.78467  0.75716  0.97192  1.0000
  H   H4549     1.0  0.94730  0.93374  0.87734  1.0000
  C   C5688     1.0  0.50795  0.88493  0.96778  1.0000
  C   C5689     1.0  0.49391  0.67103  0.85766  1.0000
  C   C5690     1.0  0.96627  0.68265  0.72913  1.0000
  C   C5691     1.0  0.95538  0.94948  0.87159  1.0000
  C   C5692     1.0  0.99038  0.81551  0.90536  1.0000
  S   S767      1.0  0.63517  0.67273  0.72843  1.0000
  H   H4550     1.0  0.56734  0.90273  0.95392  1.0000
  C   C5693     1.0  0.95869  0.95505  0.85656  1.0000
  H   H4551     1.0  0.97100  0.81173  0.84297  1.0000
  H   H4552     1.0  0.98436  0.97345  0.78892  1.0000
  C   C5694     1.0  0.67594  0.80172  0.96404  1.0000
  C   C5695     1.0  0.98718  0.93485  0.90255  1.0000
  Fe  Fe383     1.0  0.56772  0.65720  0.77143  1.0000
  H   H4553     1.0  0.88180  0.69908  0.72651  1.0000
  C   C5696     1.0  0.50253  0.90359  0.79661  1.0000
  H   H4554     1.0  0.87757  0.71636  0.91798  1.0000
  C   C5697     1.0  0.96232  0.96420  0.87898  1.0000
  H   H4555     1.0  0.51979  0.83655  0.75615  1.0000
  C   C5698     1.0  0.80054  0.79490  0.96252  1.0000
  H   H4556     1.0  0.50510  0.91506  0.77373  1.0000
  H   H4557     1.0  0.50857  0.68120  0.94491  1.0000
  C   C5699     1.0  0.58676  0.73071  0.96516  1.0000
  S   S768      1.0  0.50678  0.71883  0.97067  1.0000
  C   C5700     1.0  0.54489  0.85530  0.93046  1.0000
  H   H4558     1.0  0.66219  0.70283  0.74849  1.0000
  C   C5701     1.0  0.88242  0.95148  0.75440  1.0000
  H   H4559     1.0  0.88783  0.96844  0.75420  1.0000
  H   H4560     1.0  0.94506  0.79107  0.86796  1.0000
  H   H4561     1.0  0.89052  0.75670  0.96020  1.0000
  P   P190      1.0  0.90111  0.72263  0.94010  1.0000
  C   C5702     1.0  0.87270  0.71296  0.94108  1.0000
  C   C5703     1.0  0.90623  0.71890  0.95818  1.0000
  C   C5704     1.0  0.50446  0.82104  0.84566  1.0000
  C   C5705     1.0  0.80427  0.76694  0.94668  1.0000
  C   C5706     1.0  0.49850  0.93659  0.89929  1.0000
  H   H4562     1.0  0.72151  0.66310  0.91171  1.0000
  C   C5707     1.0  0.50543  0.88773  0.89181  1.0000
  C   C5708     1.0  0.85795  0.70532  0.95447  1.0000
  C   C5709     1.0  0.83734  0.69561  0.95514  1.0000
  C   C5710     1.0  0.83114  0.69376  0.94247  1.0000
  C   C5711     1.0  0.84555  0.70145  0.92913  1.0000
  C   C5712     1.0  0.53566  0.90584  0.91974  1.0000
  C   C5713     1.0  0.94667  0.96605  0.76530  1.0000
  C   C5714     1.0  0.94342  0.95936  0.81988  1.0000
  C   C5715     1.0  0.52445  0.97714  0.94694  1.0000
  C   C5716     1.0  0.55472  0.89525  0.92740  1.0000
  C   C5717     1.0  0.57782  0.91667  0.95287  1.0000
  C   C5718     1.0  0.96875  0.97541  0.84878  1.0000
  C   C5719     1.0  0.93793  0.96627  0.74213  1.0000
  H   H4563     1.0  0.87569  0.92826  0.81297  1.0000
  C   C5720     1.0  0.72050  0.79302  0.96068  1.0000
  C   C5721     1.0  0.50231  0.74081  0.89233  1.0000
  H   H4564     1.0  0.89692  0.82356  0.91349  1.0000
  C   C5722     1.0  0.66964  0.72098  0.89841  1.0000
  C   C5723     1.0  0.88938  0.90705  0.75928  1.0000
  H   H4565     1.0  0.98523  0.96972  0.91763  1.0000
  C   C5724     1.0  0.53627  0.86662  0.87450  1.0000
  C   C5725     1.0  0.89068  0.94189  0.91782  1.0000
  C   C5726     1.0  0.57666  0.67397  0.91825  1.0000
  C   C5727     1.0  0.64839  0.71086  0.90243  1.0000
  H   H4566     1.0  0.94397  0.70414  0.89129  1.0000
  C   C5728     1.0  0.57768  0.66175  0.90718  1.0000
  H   H4567     1.0  0.52145  0.97013  0.82304  1.0000
  C   C5729     1.0  0.49336  0.86892  0.76114  1.0000
  C   C5730     1.0  0.91392  0.91293  0.81362  1.0000
  H   H4568     1.0  0.49371  0.79827  0.86611  1.0000
  H   H4569     1.0  0.79377  0.79855  0.73698  1.0000
  C   C5731     1.0  0.89764  0.92774  0.79161  1.0000
  H   H4570     1.0  0.62364  0.69329  0.91984  1.0000
  H   H4571     1.0  0.83526  0.93158  0.74765  1.0000
  C   C5732     1.0  0.50959  0.94472  0.88496  1.0000
  C   C5733     1.0  0.62675  0.70782  0.95546  1.0000
  H   H4572     1.0  0.51480  0.81195  0.88241  1.0000
  H   H4573     1.0  0.64518  0.67407  0.76980  1.0000
  P   P191      1.0  0.64533  0.68441  0.94570  1.0000
  C   C5734     1.0  0.89392  0.91673  0.91833  1.0000
  H   H4574     1.0  0.56677  0.73400  0.96701  1.0000
  C   C5735     1.0  0.96052  0.90423  0.74276  1.0000
  C   C5736     1.0  0.92390  0.74144  0.88946  1.0000
  H   H4575     1.0  0.59156  0.70165  0.95374  1.0000
  C   C5737     1.0  0.94317  0.66112  0.92562  1.0000
  H   H4576     1.0  0.51619  0.77367  0.81564  1.0000
  C   C5738     1.0  0.64033  0.70070  0.91688  1.0000
  H   H4577     1.0  0.54089  0.66325  0.97014  1.0000
  H   H4578     1.0  0.90027  0.88921  0.76284  1.0000
  C   C5739     1.0  0.51741  0.92569  0.95847  1.0000
  C   C5740     1.0  0.53025  0.87963  0.88574  1.0000
  H   H4579     1.0  0.52640  0.80468  0.96596  1.0000
  H   H4580     1.0  0.91954  0.88413  0.91315  1.0000
  C   C5741     1.0  0.92430  0.76588  0.88285  1.0000
  C   C5742     1.0  0.51875  0.71341  0.79829  1.0000
  C   C5743     1.0  0.89737  0.92868  0.75872  1.0000
  C   C5744     1.0  0.86708  0.90814  0.75531  1.0000
  H   H4581     1.0  0.86112  0.89124  0.75588  1.0000
  H   H4582     1.0  0.49886  0.83096  0.73793  1.0000
  C   C5745     1.0  0.97944  0.75975  0.81168  1.0000
  H   H4583     1.0  0.65815  0.81119  0.96888  1.0000
  H   H4584     1.0  0.95966  0.76658  0.89916  1.0000
  H   H4585     1.0  0.90765  0.67081  0.93862  1.0000
  H   H4586     1.0  0.82647  0.68896  0.96549  1.0000
  C   C5746     1.0  0.60355  0.91028  0.94981  1.0000
  H   H4587     1.0  0.96562  0.73258  0.84686  1.0000
  C   C5747     1.0  0.94437  0.72310  0.88615  1.0000
  H   H4588     1.0  0.90456  0.73625  0.76133  1.0000
  C   C5748     1.0  0.49519  0.67091  0.94446  1.0000
  H   H4589     1.0  0.52002  0.68557  0.90036  1.0000
  C   C5749     1.0  0.96854  0.78024  0.90061  1.0000
  C   C5750     1.0  0.86016  0.95252  0.75031  1.0000
  H   H4590     1.0  0.93070  0.95848  0.73531  1.0000
  H   H4591     1.0  0.52019  0.84099  0.82520  1.0000
  C   C5751     1.0  0.98271  0.81316  0.84987  1.0000
  H   H4592     1.0  0.65024  0.65084  0.92607  1.0000
  P   P192      1.0  0.95958  0.95622  0.89833  1.0000
  H   H4593     1.0  0.60918  0.66099  0.96838  1.0000
  H   H4594     1.0  0.50707  0.79044  0.79105  1.0000
  C   C5752     1.0  0.50505  0.74308  0.86685  1.0000
  Fe  Fe384     1.0  0.50922  0.75674  0.97216  1.0000
  H   H4595     1.0  0.86261  0.70615  0.96444  1.0000
  C   C5753     1.0  0.87877  0.97301  0.88169  1.0000
  H   H4596     1.0  0.54600  0.84082  0.96067  1.0000
  H   H4597     1.0  0.80348  0.81196  0.96416  1.0000
  C   C5754     1.0  0.50597  0.76136  0.74989  1.0000
  C   C5755     1.0  0.51786  0.67280  0.85786  1.0000
  C   C5756     1.0  0.49510  0.95973  0.81414  1.0000
  C   C5757     1.0  0.52066  0.90290  0.96792  1.0000
  H   H4598     1.0  0.97053  0.92273  0.92481  1.0000
  H   H4599     1.0  0.73724  0.79579  0.96290  1.0000
  H   H4600     1.0  0.51911  0.97585  0.86883  1.0000
  H   H4601     1.0  0.65819  0.72117  0.95736  1.0000
  H   H4602     1.0  0.98111  0.71479  0.87402  1.0000
  H   H4603     1.0  0.98389  0.69905  0.91041  1.0000
  C   C5758     1.0  0.71381  0.66046  0.90324  1.0000
  C   C5759     1.0  0.71851  0.70689  0.96763  1.0000
  C   C5760     1.0  0.96924  0.97614  0.79794  1.0000
  H   H4604     1.0  0.97103  0.97978  0.83714  1.0000
  H   H4605     1.0  0.49472  0.89136  0.81969  1.0000
  H   H4606     1.0  0.71333  0.95205  0.97248  1.0000
  H   H4607     1.0  0.50831  0.94494  0.80983  1.0000
  H   H4608     1.0  0.99127  0.70090  0.76883  1.0000
