data_image0
_chemical_formula_structural       FeS2FeS2FeHCHFeSFe2S2FeHSHCFeSCFeS2FeS2FeS2FeSCFeSFeCS2H4CHC4H2C4HC6H5C4H4CHC3H3C3HCH2C7H4C6H4C9H4C2PH2SCHC3HC3H2C3SCHC3HCH2PH2CH3SCHC10PC18HCH21CH3C2SCHC2HFeCH2CH2CH2C7PC9HC5HC2H13CH3PH2SHC2H2PCSH2C3HCHC9H2C3HCFeCH2CH6C2HCH2C2H2C2H3C3HC6H2SHCHSCHC4HC4HCHCH2CHC4H2CHCHC3H2C4HCH2CSHCHFeSC2H2SPHSHCHCHC2H2CH2C3HSCHSCFeSFeS2FeHFeSCSHCSHCSHSC2SHC3H3C7PH2C6H7C7H4C2H5CHCH2C3HC3H2C2HC3HCHC2HC3H7C2H3FeC4HC6HC3H2C2HC2HC4H5SH3CFeH2CHSC3HC7HCHC4PCHC2H2CH6CHCH2C4HCHFeHFeCH2CSPC7PC3HCHC12H6SCH13C4HC2H3CH4CH2PCHC2SCH2C2H2C2H3C3HCHC3HSHCSCFeS2FeS2FeCFeCS2CFeC2SCFeSHC2HC2HC7H3C7H3C2HC5H3C6H8C2HCH2CHC4HCH2CHC2HCHCH3C2H4SPCHCHCH2C5H3C2H2CH3C2SC2HC7HCH2C2H4C6SH3C3HCH2CH2C2HC6H2PHSCH2C2HCH2CHSH2PH5C2HC3H4CHC2H2CH2C9PCH3SCHC11H4C4HCH2C2SPC3H4CHC6HC2H2C2H3CH4CHCH3CH3FeHSH3CFeS2FeS2FeS2HSFeSPSFeS2FeS2FeSFeS3FeHSCSC3HFeSFeSHFe2SC4HCH2C7H4CH2C4H3C6H2PCH3C5HCH2C7H3C6H5C2HCHC6PC18H10CHCH6C2H2C6H2C5SHCHC2H3C2H3CH3C2H2C2HCSC3HCHCH2C4H2SCH4CFeC3HCHCHC4HC4PCHCHCSH5CFe2HCH2C6PC17H17CHCHC2H6SHSH2C2HCHCSH4C3PCPC3SHCSC4H4CHCH2CSC8H2C2H2C5HCH2CSCHCH5C2HC2HC2HCH2CHCH2C5HCH8C4HPH2CHCHCH2CHC2H2C2H4CSFeS2FeSFeS3FeS2FeCFeS3HFeS2FeS2HSHSHFeS2CFeSHCSCHCHC2HC3HFeC6H2CHC6H4C2H4CH4C4HCH2C3H3C6H4CH2C2H4C7PC10HCH2CH5FeH7C2HC4HC3HC2HCH2C8PC18H20SHCHFeCHC2H2C2HC3H3CH2CH3CH2CH5PHCSH2CHC2H3FeC2HFeC4HS2CHSC2HC2H2CHC3HSCH2C2HCHC3H2C6PC17H2CH2C2H6C5HC3SCH3CH2CHSH2CPC2HCHCHC2HC3HC2HC2HCH2CH6C2H2CHSHC2HPHCHC5SC2HC2H2CSHFeSHSFeCSCH2CSHCFeS2C2HFeSCSC7H3C6H5C10H2C4H6C4H3CH2CHPC2H4SC11HC2HC2HC2H3CH7FeC3SC2HC4H3CH2CHSH3CPHC2H2SHCHCHC2PC8H2CHC2HC8H2CH2C2FeC2HCHCFeCH3CHPHCFeC3HC2H2C2H3C2HC2HC2HCHP2HCH2CHCHCHC2H3C2H2CH3CHCH4CHC4HCHCSHSC2H8CSCHCHFeSH2SC2SHFeSFeSCS3CHC6H4C5H3SC2H2CHC8H4C6H5PHCHCHCH2C3H2CHCH4C5H5CHCHC2H2CSHFeHC3HC2H3CH4C3H2C2H2C3HCHCH2CH3C2H2C3H2FeCH2CHC2H2C7FeC2PC2HC3H5C7PC2HC4H4SCH6CHPC3HCH2C2H3CHPH2C2PC2HC12HC2HC4HC2H2C4HC3HCHSCH2C3H4SFeH3FeSHS2CFeS2FeSCHCFeS2FeS2FeSFeS2FeS2FeSCFeS3CSHS2C6H4C6H4C6H4CHFeC2HSFeHC5HC4H3C5H3C5HC8SHC6PC4HC13H11CH9C2PC3HCH2C3H2SCHCSHC4FeC2HCH2C3H5SH2SHSCHCH2CHSCH6C2HFeHCFeHC2H2C6HCHCH2C4H4C3P3CH3CSCHCHCHCHCH3C2HC2SCHC5HCH3CH4CH2CSC2H2C3HC6HCH3CHC8PC18H15CH3CH3CH2C2HCHC2HCH2C3FeC5HCH3CHCHC2H2CH3SHCFeH2SFeS2CFeSHFeS2FeS2CHCH2S2FeS2FeSCFeS2FeSFeS3CH2C3HCH2C3HSC6H5C2HCH7C6H4C6H4C6H3FeHCHC6PC13H2C2H14CHPHC7HC2HCHCPCH2CH2CPH3C2H4C7HC2PC3HCH2CH2C2HC2PSCHC15H5C2HC3FeH5C6PC20H15CH2CPH2C5SHCH2C7HCH2C3HCH5SH4SC3HCH2C3SHCHCHCSHCHC3H2CH2CH2CHC5H3SCHC4HCHC3HC3HCHCH2PC2H2FeHSC3H2CHCH3CHC2HCFeHCHCHCH5CH2C5H3CH2C3HC2HFeHFeS2FeCHFeSHSHFeS2H2FeCS2CHC4FeSCHC2HSFeSC6H4SCH2SC2H2CHCHCH3C6H4C6H4CHCPCHCH2C2PC2HCHC4HC2H4C3HC4H2C2H5CFeCHCSH3PCHSCSC2H2CH3SH3C3SHC4H5CHC2HCHC2HC2H2C3HC7HSH5CHCSHCH2CHC2HC7FeH3CHC2H3C2HCH4C5H4CH2CHC5H2CHFeSCFeSCFeSCFeSFeS3HFeCH2FeCSHSCSCH2SHSCSC6H2C7H4C2HC2H3CHC7H5C2HC2H2CHC3FeHCHC2HCHC2HCFeHCH3C2HCFeC3HC3H3C2SC4HCHC2HCHC3HC2HC3H4C4H2CH2CHPCHC3PHSH4CH5C2SH3C2H2PCSHCH3CHC3H2C3H2C2HCHC5HCH2CHC4SC3HCHCH4CH3CHCH2C2H2CHCH2C2HPC5SHC6H3C2H4C2Fe2S2FeS2FeSFeS2FeS2Fe3S3CHSHSFeSCHFeS2HCHSH2C7H2PHC5H3C6H4C3H2CH2C6H3C6H6C3H3C4H7SHFeC2H3C2HCHC11HC3H5C6PC19FeH10C2H2CH3C3H3C5H2SHPC2SC3H2CSHCH2CHCHC5HCHCHCHCHCHCHCHC4H2CFeC3HCPSC7HCHC3HCH5CH3CHC2H4C3SH2C5HC2H2C2H3C2PC5PC16H17CHSC2HCH4C4HSC2H3C2H2CHFeC5HCH4PSCSC2HC2H4C3HCHC4HC2H6CSFeSFeS2FeSFeS3FeS2HCHSFeHSCS2HSHSFeC2SFeCSHC6H4C6H3C3SCHC7H4C5H2C3HCHCH3FeC6H3C2HC6H2CFeC3H5CHCH3C3HC2HCPC3HC8HPCHC2HCFeH15CHC2HCHC3H3CHSCS2H2C3HCH3CHC2HCHCHC2HC3H2C2H2PCH2CHC5HCHC7PC5HC4H7C2H2FeCSCH5C2HC3HPCH2CH3C3H2CH4CHC2HC2HCH2C5PHC8FeH2C2SC2H4C2H5C2H2C8PC5HC6HC2HC2H2SCH4CHCH2CH6C3H2SCHSHC2HC2HSHSFeS2CHCFeC2HCFeS2Fe2SHSCS3HSCHCFeSHCFeH2FeHC7H4C6HCH4C2H2CSH2C3HC4H4C6PC18HCH18C2HCH2CHC3H4C2H4CHC3HC2H2C2H2SCHC9PC5HC5HCHFeHC2H3C4HCHCSH2C3HFePH3CH2C2HC2H2CHCHCH2CSC3H3CHCH3C5HCSH2CHC2FeCHSHSC3H2C2PCH4C5SH2CH4C2FeSHC2HC2HCSCHCSH2SFeS2HCS2HSCHFeSCHSHFeSFeSHSC2H2CFeS2C6H4CH6C8HCHC2SCPHCPSHC6H4C2HC6H3CH2C2HC3SC3FeCHCH3C2H2C2HC2H5C2HCHC2H2CHCFeC7PC8H2CH6C4HC4H4C2HCHCH2C6PHCHSH2CFeC2H2C7H3CH5CHC2H3C2HC3SH4C2SHC2H2C8HCH5CHCHFeH5CHCHFeHCHSFeCH5C5H2CHC3HSCFeHSC2HCSCH2FeS2HSFeSFeSFeSHFeS2CS3C7H4C6H4CH2SCHCHC6H3SHFeH2C5HC6HC4HCH2C5H5C3H5C3HC2PC5HC4HC8HC2HC3HCH3CH2C7HSP2H2C3H2C2H3CHCHFeC4HPCHC7Fe2C2H2C4HFeH3C5HC2HC2H4CHCHCHC4PC19H7CH11CHCHCH2C2H3CH3SHSH2C2H5C2SHCSC7HC2H2C2FeCH4CHC3H3CHC3H3SH2CHCHC3HCH7CH2CHSHC2H3C2HC2HC3H2C2HCHC2H4C2HFePHC2HC2H2PH2C2PHC2SCSC4H5C2PH
_chemical_formula_sum              "Fe192 S384 H2304 C2880 P96"
_cell_length_a       56.3479
_cell_length_b       105.012
_cell_length_c       36.3981
_cell_angle_alpha    90.457
_cell_angle_beta     90.1394
_cell_angle_gamma    88.9595

_space_group_name_H-M_alt    "P 1"
_space_group_IT_number       1

loop_
  _space_group_symop_operation_xyz
  'x, y, z'

loop_
  _atom_site_type_symbol
  _atom_site_label
  _atom_site_symmetry_multiplicity
  _atom_site_fract_x
  _atom_site_fract_y
  _atom_site_fract_z
  _atom_site_occupancy
  Fe  Fe1       1.0  0.33684  0.20902  0.21268  1.0000
  S   S1        1.0  0.37524  0.21479  0.21257  1.0000
  S   S2        1.0  0.32782  0.19042  0.18347  1.0000
  Fe  Fe2       1.0  0.36966  0.21899  0.27303  1.0000
  S   S3        1.0  0.39132  0.21423  0.32481  1.0000
  S   S4        1.0  0.33231  0.21186  0.27364  1.0000
  Fe  Fe3       1.0  0.47741  0.13435  0.46090  1.0000
  H   H1        1.0  0.22440  0.06361  0.06216  1.0000
  C   C1        1.0  0.42578  0.03226  0.17489  1.0000
  H   H2        1.0  0.00840  0.10635  0.03046  1.0000
  Fe  Fe4       1.0  0.23069  0.16840  0.03756  1.0000
  S   S5        1.0  0.23889  0.18483  0.07642  1.0000
  Fe  Fe5       1.0  0.23533  0.14049  0.01233  1.0000
  Fe  Fe6       1.0  0.18613  0.15420  0.00852  1.0000
  S   S6        1.0  0.14774  0.15032  0.02738  1.0000
  S   S7        1.0  0.21240  0.15065  0.05429  1.0000
  Fe  Fe7       1.0  0.47195  0.16018  0.42174  1.0000
  H   H3        1.0  0.44017  0.98764  0.14402  1.0000
  S   S8        1.0  0.46152  0.16780  0.36506  1.0000
  H   H4        1.0  0.36567  0.19869  0.13213  1.0000
  C   C2        1.0  0.34791  0.19971  0.38792  1.0000
  Fe  Fe8       1.0  0.26939  0.04603  0.00698  1.0000
  S   S9        1.0  0.30598  0.03709  0.00759  1.0000
  C   C3        1.0  0.14692  0.10871  0.04703  1.0000
  Fe  Fe9       1.0  0.24709  0.02175  0.03705  1.0000
  S   S10       1.0  0.28249  0.01122  0.03953  1.0000
  S   S11       1.0  0.20944  0.01385  0.04245  1.0000
  Fe  Fe10      1.0  0.29657  0.02958  0.06380  1.0000
  S   S12       1.0  0.32731  0.03116  0.10611  1.0000
  S   S13       1.0  0.26061  0.03969  0.06429  1.0000
  Fe  Fe11      1.0  0.40161  0.05369  0.37834  1.0000
  S   S14       1.0  0.37031  0.04046  0.37843  1.0000
  S   S15       1.0  0.39707  0.07446  0.39787  1.0000
  Fe  Fe12      1.0  0.43404  0.03319  0.34451  1.0000
  S   S16       1.0  0.40534  0.01870  0.34177  1.0000
  C   C4        1.0  0.31217  0.17138  0.03003  1.0000
  Fe  Fe13      1.0  0.38164  0.03470  0.32092  1.0000
  S   S17       1.0  0.35093  0.03205  0.27944  1.0000
  Fe  Fe14      1.0  0.39585  0.02541  0.39912  1.0000
  C   C5        1.0  0.12011  0.08191  0.00529  1.0000
  S   S18       1.0  0.41123  0.04888  0.31972  1.0000
  S   S19       1.0  0.42625  0.03903  0.40283  1.0000
  H   H5        1.0  0.45018  0.14625  0.27480  1.0000
  H   H6        1.0  0.16440  0.00144  0.04549  1.0000
  H   H7        1.0  0.36475  0.98376  0.34098  1.0000
  H   H8        1.0  0.45715  0.00416  0.32972  1.0000
  C   C6        1.0  0.01569  0.99526  0.18044  1.0000
  H   H9        1.0  0.35276  0.18662  0.07782  1.0000
  C   C7        1.0  0.06793  0.18543  0.05575  1.0000
  C   C8        1.0  0.06985  0.98803  0.30898  1.0000
  C   C9        1.0  0.01722  0.01826  0.17411  1.0000
  C   C10       1.0  0.02879  0.00643  0.17997  1.0000
  H   H10       1.0  0.02746  0.02688  0.17408  1.0000
  H   H11       1.0  0.04775  0.00598  0.18477  1.0000
  C   C11       1.0  0.19522  0.00550  0.07852  1.0000
  C   C12       1.0  0.19369  0.99733  0.14091  1.0000
  C   C13       1.0  0.20571  0.00391  0.11307  1.0000
  C   C14       1.0  0.46152  0.07444  0.27281  1.0000
  H   H12       1.0  0.22303  0.00779  0.11844  1.0000
  C   C15       1.0  0.33330  0.03152  0.15453  1.0000
  C   C16       1.0  0.35634  0.03446  0.16682  1.0000
  C   C17       1.0  0.36216  0.03458  0.20470  1.0000
  C   C18       1.0  0.34493  0.03186  0.23102  1.0000
  C   C19       1.0  0.32187  0.02901  0.21872  1.0000
  C   C20       1.0  0.31610  0.02878  0.18086  1.0000
  H   H13       1.0  0.36986  0.03658  0.14685  1.0000
  H   H14       1.0  0.37992  0.03683  0.21356  1.0000
  H   H15       1.0  0.30834  0.02688  0.23868  1.0000
  H   H16       1.0  0.29836  0.02642  0.17208  1.0000
  H   H17       1.0  0.08860  0.11181  0.03298  1.0000
  C   C21       1.0  0.43143  0.10643  0.43182  1.0000
  C   C22       1.0  0.41400  0.09784  0.41977  1.0000
  C   C23       1.0  0.41929  0.08475  0.41547  1.0000
  C   C24       1.0  0.44206  0.08030  0.42466  1.0000
  H   H18       1.0  0.17143  0.13248  0.09775  1.0000
  H   H19       1.0  0.42705  0.11642  0.43523  1.0000
  H   H20       1.0  0.39630  0.10137  0.41371  1.0000
  H   H21       1.0  0.36832  0.21341  0.99539  1.0000
  C   C25       1.0  0.34086  0.18378  0.43409  1.0000
  H   H22       1.0  0.44229  0.01609  0.45941  1.0000
  C   C26       1.0  0.25364  0.10649  0.01940  1.0000
  C   C27       1.0  0.25807  0.09660  0.04447  1.0000
  C   C28       1.0  0.25987  0.08378  0.03261  1.0000
  H   H23       1.0  0.26037  0.09892  0.07320  1.0000
  H   H24       1.0  0.26354  0.07628  0.05213  1.0000
  H   H25       1.0  0.24972  0.20982  0.04097  1.0000
  C   C29       1.0  0.07556  0.15570  0.02566  1.0000
  C   C30       1.0  0.09909  0.15245  0.03612  1.0000
  C   C31       1.0  0.11843  0.15481  0.01276  1.0000
  H   H26       1.0  0.43142  0.01315  0.26541  1.0000
  C   C32       1.0  0.43796  0.07516  0.26059  1.0000
  H   H27       1.0  0.06090  0.15391  0.04384  1.0000
  H   H28       1.0  0.10235  0.14812  0.06254  1.0000
  C   C33       1.0  0.99253  0.01905  0.16838  1.0000
  C   C34       1.0  0.40980  0.20080  0.33519  1.0000
  C   C35       1.0  0.41883  0.19255  0.30803  1.0000
  C   C36       1.0  0.43444  0.18244  0.31769  1.0000
  C   C37       1.0  0.44114  0.18041  0.35452  1.0000
  C   C38       1.0  0.43167  0.18849  0.38171  1.0000
  C   C39       1.0  0.41615  0.19860  0.37201  1.0000
  H   H29       1.0  0.41409  0.19408  0.27956  1.0000
  H   H30       1.0  0.44157  0.17622  0.29645  1.0000
  H   H31       1.0  0.43651  0.18702  0.41015  1.0000
  H   H32       1.0  0.40905  0.20481  0.39317  1.0000
  C   C40       1.0  0.30357  0.18916  0.15263  1.0000
  C   C41       1.0  0.28787  0.19938  0.14649  1.0000
  C   C42       1.0  0.26824  0.19789  0.12292  1.0000
  C   C43       1.0  0.26422  0.18622  0.10501  1.0000
  C   C44       1.0  0.28006  0.17602  0.11078  1.0000
  C   C45       1.0  0.29969  0.17750  0.13443  1.0000
  H   H33       1.0  0.29062  0.20838  0.16036  1.0000
  H   H34       1.0  0.25603  0.20581  0.11875  1.0000
  H   H35       1.0  0.27697  0.16696  0.09747  1.0000
  H   H36       1.0  0.31176  0.16955  0.13899  1.0000
  C   C46       1.0  0.16065  0.99368  0.09998  1.0000
  C   C47       1.0  0.17107  0.99221  0.13470  1.0000
  C   C48       1.0  0.14525  0.19801  0.04008  1.0000
  C   C49       1.0  0.15502  0.20744  0.06285  1.0000
  C   C50       1.0  0.17183  0.20412  0.08965  1.0000
  C   C51       1.0  0.17884  0.19139  0.09406  1.0000
  C   C52       1.0  0.16905  0.18196  0.07171  1.0000
  C   C53       1.0  0.15247  0.18527  0.04467  1.0000
  C   C54       1.0  0.37403  0.98599  0.31585  1.0000
  H   H37       1.0  0.00849  0.07366  0.12806  1.0000
  H   H38       1.0  0.15001  0.21736  0.05979  1.0000
  H   H39       1.0  0.17972  0.21140  0.10676  1.0000
  H   H40       1.0  0.19223  0.18883  0.11430  1.0000
  C   C55       1.0  0.37325  0.00049  0.16543  1.0000
  C   C56       1.0  0.43636  0.03114  0.23926  1.0000
  P   P1        1.0  0.41311  0.99591  0.20905  1.0000
  H   H41       1.0  0.47037  0.05806  0.35728  1.0000
  H   H42       1.0  0.29816  0.15345  0.04752  1.0000
  S   S20       1.0  0.47745  0.11251  0.45379  1.0000
  C   C57       1.0  0.14833  0.11914  0.07099  1.0000
  H   H43       1.0  0.01087  0.15392  0.16912  1.0000
  C   C58       1.0  0.33465  0.15149  0.03064  1.0000
  C   C59       1.0  0.03916  0.13236  0.98742  1.0000
  C   C60       1.0  0.44146  0.98783  0.20354  1.0000
  H   H44       1.0  0.42378  0.23102  0.21269  1.0000
  C   C61       1.0  0.08501  0.99706  0.02982  1.0000
  C   C62       1.0  0.06539  0.00145  0.00968  1.0000
  C   C63       1.0  0.04401  0.99488  0.01083  1.0000
  H   H45       1.0  0.00779  0.11472  0.13621  1.0000
  H   H46       1.0  0.43988  0.04790  0.20626  1.0000
  C   C64       1.0  0.36983  0.99770  0.29882  1.0000
  C   C65       1.0  0.45444  0.10205  0.43983  1.0000
  C   C66       1.0  0.04665  0.13738  0.10982  1.0000
  S   S21       1.0  0.15687  0.98423  0.17150  1.0000
  C   C67       1.0  0.25062  0.10342  0.98227  1.0000
  H   H47       1.0  0.14332  0.98979  0.09471  1.0000
  C   C68       1.0  0.42042  0.08071  0.28295  1.0000
  C   C69       1.0  0.17811  0.07595  0.01234  1.0000
  C   C70       1.0  0.38145  0.16230  0.47521  1.0000
  H   H48       1.0  0.23466  0.98736  0.98311  1.0000
  C   C71       1.0  0.00894  0.08073  0.10653  1.0000
  H   H49       1.0  0.36041  0.22213  0.13467  1.0000
  H   H50       1.0  0.44353  0.03554  0.26380  1.0000
  P   P2        1.0  0.12421  0.20204  0.00429  1.0000
  H   H51       1.0  0.45327  0.21973  0.43396  1.0000
  H   H52       1.0  0.10154  0.00218  0.02928  1.0000
  C   C72       1.0  0.44257  0.21441  0.45297  1.0000
  H   H53       1.0  0.36891  0.17558  0.00072  1.0000
  H   H54       1.0  0.07017  0.00424  0.27308  1.0000
  H   H55       1.0  0.34508  0.98352  0.09894  1.0000
  S   S22       1.0  0.47281  0.03059  0.32799  1.0000
  C   C73       1.0  0.28509  0.20381  0.02575  1.0000
  H   H56       1.0  0.47941  0.98366  0.32197  1.0000
  C   C74       1.0  0.17975  0.05277  0.00824  1.0000
  C   C75       1.0  0.47615  0.00415  0.32562  1.0000
  C   C76       1.0  0.35806  0.98580  0.11991  1.0000
  C   C77       1.0  0.99385  0.99774  0.06446  1.0000
  C   C78       1.0  0.32102  0.07828  0.03179  1.0000
  C   C79       1.0  0.33434  0.06707  0.02651  1.0000
  C   C80       1.0  0.34154  0.05986  0.05678  1.0000
  C   C81       1.0  0.33535  0.06381  0.09230  1.0000
  C   C82       1.0  0.32222  0.07513  0.09791  1.0000
  C   C83       1.0  0.31490  0.08227  0.06732  1.0000
  P   P3        1.0  0.31084  0.07904  0.14296  1.0000
  C   C84       1.0  0.28267  0.07117  0.14488  1.0000
  C   C85       1.0  0.33071  0.07335  0.17848  1.0000
  C   C86       1.0  0.32171  0.06848  0.21138  1.0000
  C   C87       1.0  0.33719  0.06399  0.23863  1.0000
  C   C88       1.0  0.36171  0.06449  0.23355  1.0000
  C   C89       1.0  0.37082  0.06959  0.20126  1.0000
  C   C90       1.0  0.35538  0.07409  0.17389  1.0000
  C   C91       1.0  0.26140  0.07778  0.13696  1.0000
  C   C92       1.0  0.23979  0.07142  0.13708  1.0000
  C   C93       1.0  0.23931  0.05840  0.14469  1.0000
  C   C94       1.0  0.26046  0.05172  0.15187  1.0000
  C   C95       1.0  0.28208  0.05803  0.15143  1.0000
  C   C96       1.0  0.30790  0.09603  0.15033  1.0000
  C   C97       1.0  0.32209  0.10452  0.13087  1.0000
  C   C98       1.0  0.31925  0.11767  0.13614  1.0000
  C   C99       1.0  0.30264  0.12243  0.16143  1.0000
  C   C100      1.0  0.28913  0.11403  0.18194  1.0000
  C   C101      1.0  0.29189  0.10087  0.17668  1.0000
  H   H57       1.0  0.31460  0.08362  0.00828  1.0000
  C   C102      1.0  0.26107  0.20638  0.01889  1.0000
  H   H58       1.0  0.35100  0.05087  0.05271  1.0000
  H   H59       1.0  0.34005  0.05773  0.11519  1.0000
  H   H60       1.0  0.30380  0.09070  0.07072  1.0000
  H   H61       1.0  0.30278  0.06798  0.21592  1.0000
  H   H62       1.0  0.33021  0.05977  0.26340  1.0000
  H   H63       1.0  0.37355  0.06064  0.25440  1.0000
  H   H64       1.0  0.38981  0.06988  0.19720  1.0000
  H   H65       1.0  0.36266  0.07799  0.14898  1.0000
  H   H66       1.0  0.26148  0.08778  0.13006  1.0000
  H   H67       1.0  0.22347  0.07656  0.13067  1.0000
  H   H68       1.0  0.22263  0.05341  0.14428  1.0000
  H   H69       1.0  0.26022  0.04155  0.15677  1.0000
  H   H70       1.0  0.29839  0.05262  0.15565  1.0000
  H   H71       1.0  0.33523  0.10103  0.11144  1.0000
  H   H72       1.0  0.32980  0.12420  0.12039  1.0000
  H   H73       1.0  0.30026  0.13263  0.16512  1.0000
  H   H74       1.0  0.27638  0.11773  0.20173  1.0000
  H   H75       1.0  0.28137  0.09447  0.19291  1.0000
  H   H76       1.0  0.32830  0.22168  0.02780  1.0000
  H   H77       1.0  0.45441  0.08892  0.35623  1.0000
  H   H78       1.0  0.12711  0.07685  0.02887  1.0000
  C   C103      1.0  0.45265  0.20411  0.47190  1.0000
  H   H79       1.0  0.20569  0.10514  0.02701  1.0000
  H   H80       1.0  0.13230  0.12369  0.08149  1.0000
  H   H81       1.0  0.36455  0.05908  0.43905  1.0000
  C   C104      1.0  0.42040  0.01257  0.20832  1.0000
  C   C105      1.0  0.42940  0.01843  0.24009  1.0000
  S   S23       1.0  0.44687  0.14800  0.45314  1.0000
  C   C106      1.0  0.16762  0.10338  0.03117  1.0000
  H   H82       1.0  0.35725  0.00453  0.31056  1.0000
  C   C107      1.0  0.01658  0.12376  0.13484  1.0000
  C   C108      1.0  0.12365  0.21903  0.99691  1.0000
  H   H83       1.0  0.34235  0.00423  0.13191  1.0000
  Fe  Fe15      1.0  0.32131  0.23205  0.26097  1.0000
  C   C109      1.0  0.25135  0.20374  0.98442  1.0000
  H   H84       1.0  0.02892  0.99837  0.99508  1.0000
  H   H85       1.0  0.20768  0.04343  0.03886  1.0000
  C   C110      1.0  0.05181  0.19912  0.00842  1.0000
  H   H86       1.0  0.01809  0.12869  0.03508  1.0000
  H   H87       1.0  0.47118  0.20153  0.46791  1.0000
  C   C111      1.0  0.00923  0.09919  0.05156  1.0000
  H   H88       1.0  0.37850  0.00984  0.25391  1.0000
  H   H89       1.0  0.14540  0.17788  0.02708  1.0000
  C   C112      1.0  0.35655  0.99749  0.13841  1.0000
  C   C113      1.0  0.36264  0.17979  0.30510  1.0000
  C   C114      1.0  0.35074  0.17568  0.27365  1.0000
  C   C115      1.0  0.34767  0.16268  0.26733  1.0000
  C   C116      1.0  0.35633  0.15378  0.29268  1.0000
  C   C117      1.0  0.36775  0.15786  0.32501  1.0000
  C   C118      1.0  0.37128  0.17095  0.33058  1.0000
  P   P4        1.0  0.38005  0.14626  0.35664  1.0000
  C   C119      1.0  0.37997  0.15269  0.40296  1.0000
  C   C120      1.0  0.36258  0.13194  0.35532  1.0000
  C   C121      1.0  0.33769  0.13292  0.35407  1.0000
  C   C122      1.0  0.32395  0.12195  0.35396  1.0000
  C   C123      1.0  0.33494  0.10992  0.35526  1.0000
  C   C124      1.0  0.35967  0.10885  0.35654  1.0000
  C   C125      1.0  0.37347  0.11979  0.35649  1.0000
  C   C126      1.0  0.36379  0.14850  0.42941  1.0000
  C   C127      1.0  0.33198  0.17772  0.01642  1.0000
  H   H90       1.0  0.34694  0.20286  0.35963  1.0000
  C   C128      1.0  0.39745  0.16658  0.44906  1.0000
  C   C129      1.0  0.39694  0.16167  0.41326  1.0000
  C   C130      1.0  0.41042  0.14261  0.34420  1.0000
  C   C131      1.0  0.41946  0.14611  0.30988  1.0000
  C   C132      1.0  0.44305  0.14318  0.30080  1.0000
  H   H91       1.0  0.33437  0.17452  0.44152  1.0000
  C   C133      1.0  0.44880  0.13318  0.35994  1.0000
  C   C134      1.0  0.42531  0.13623  0.36922  1.0000
  H   H92       1.0  0.36553  0.18987  0.30934  1.0000
  H   H93       1.0  0.34421  0.18257  0.25389  1.0000
  H   H94       1.0  0.33879  0.15958  0.24245  1.0000
  H   H95       1.0  0.35435  0.14374  0.28677  1.0000
  H   H96       1.0  0.38094  0.17445  0.35415  1.0000
  H   H97       1.0  0.32890  0.14219  0.35352  1.0000
  H   H98       1.0  0.30476  0.12279  0.35311  1.0000
  H   H99       1.0  0.32432  0.10142  0.35551  1.0000
  H   H100      1.0  0.36818  0.09950  0.35795  1.0000
  H   H101      1.0  0.39254  0.11863  0.35765  1.0000
  H   H102      1.0  0.35080  0.14140  0.42276  1.0000
  H   H103      1.0  0.03660  0.20288  0.99351  1.0000
  H   H104      1.0  0.47606  0.13476  0.31903  1.0000
  C   C135      1.0  0.35952  0.20364  0.45128  1.0000
  H   H105      1.0  0.41019  0.16466  0.39382  1.0000
  H   H106      1.0  0.40861  0.15131  0.29035  1.0000
  H   H107      1.0  0.00321  0.98588  0.28336  1.0000
  P   P5        1.0  0.33048  0.19463  0.00770  1.0000
  H   H108      1.0  0.46022  0.12837  0.37965  1.0000
  H   H109      1.0  0.41874  0.13369  0.39602  1.0000
  S   S24       1.0  0.99875  0.15962  0.06360  1.0000
  H   H110      1.0  0.40213  0.08118  0.27375  1.0000
  C   C136      1.0  0.35453  0.15776  0.01747  1.0000
  C   C137      1.0  0.42649  0.08566  0.31735  1.0000
  H   H111      1.0  0.09944  0.22307  0.04182  1.0000
  H   H112      1.0  0.37093  0.15248  0.01259  1.0000
  P   P6        1.0  0.04724  0.11248  0.08299  1.0000
  C   C138      1.0  0.02577  0.09985  0.08046  1.0000
  S   S25       1.0  0.25559  0.15829  0.99853  1.0000
  H   H113      1.0  0.03057  0.18778  0.04432  1.0000
  H   H114      1.0  0.06668  0.00999  0.99339  1.0000
  C   C139      1.0  0.20856  0.06385  0.04523  1.0000
  C   C140      1.0  0.33908  0.18787  0.39772  1.0000
  C   C141      1.0  0.46760  0.07908  0.30786  1.0000
  H   H115      1.0  0.41082  0.22528  0.44164  1.0000
  C   C142      1.0  0.07887  0.12326  0.98694  1.0000
  H   H116      1.0  0.02744  0.00292  0.25748  1.0000
  C   C143      1.0  0.35483  0.21690  0.11052  1.0000
  C   C144      1.0  0.05942  0.99697  0.28543  1.0000
  C   C145      1.0  0.07472  0.10603  0.10147  1.0000
  C   C146      1.0  0.08855  0.11311  0.12615  1.0000
  C   C147      1.0  0.11009  0.10808  0.13932  1.0000
  C   C148      1.0  0.11799  0.09600  0.12794  1.0000
  C   C149      1.0  0.10431  0.08889  0.10346  1.0000
  C   C150      1.0  0.08282  0.09390  0.09015  1.0000
  C   C151      1.0  0.05247  0.11910  0.03809  1.0000
  H   H117      1.0  0.29560  0.17647  0.03525  1.0000
  H   H118      1.0  0.20810  0.12278  0.07160  1.0000
  C   C152      1.0  0.38205  0.00073  0.26678  1.0000
  C   C153      1.0  0.45952  0.08890  0.43662  1.0000
  C   C154      1.0  0.36437  0.05573  0.46711  1.0000
  H   H119      1.0  0.03743  0.09105  0.13122  1.0000
  C   C155      1.0  0.48403  0.06085  0.37660  1.0000
  Fe  Fe16      1.0  0.00503  0.16369  0.00412  1.0000
  C   C156      1.0  0.02531  0.09059  0.10815  1.0000
  H   H120      1.0  0.33067  0.22603  0.45360  1.0000
  H   H121      1.0  0.20194  0.99625  0.16760  1.0000
  C   C157      1.0  0.09460  0.19729  0.01686  1.0000
  H   H122      1.0  0.41087  0.17337  0.45693  1.0000
  H   H123      1.0  0.08290  0.12250  0.13529  1.0000
  H   H124      1.0  0.12074  0.11361  0.15823  1.0000
  H   H125      1.0  0.13472  0.09215  0.13810  1.0000
  H   H126      1.0  0.11036  0.07947  0.09492  1.0000
  H   H127      1.0  0.07246  0.08832  0.07100  1.0000
  C   C158      1.0  0.43442  0.03807  0.20677  1.0000
  C   C159      1.0  0.44997  0.08490  0.32969  1.0000
  H   H128      1.0  0.32627  0.05506  0.46967  1.0000
  C   C160      1.0  0.18963  0.10861  0.04015  1.0000
  H   H129      1.0  0.29178  0.20526  0.05335  1.0000
  H   H130      1.0  0.41295  0.08999  0.33474  1.0000
  C   C161      1.0  0.17038  0.12415  0.08009  1.0000
  C   C162      1.0  0.36465  0.15325  0.46543  1.0000
  H   H131      1.0  0.43329  0.07143  0.23379  1.0000
  H   H132      1.0  0.08452  0.07526  0.01334  1.0000
  C   C163      1.0  0.03778  0.14759  0.13088  1.0000
  C   C164      1.0  0.34416  0.22334  0.08126  1.0000
  H   H133      1.0  0.08873  0.98830  0.31480  1.0000
  H   H134      1.0  0.10572  0.18430  0.06001  1.0000
  H   H135      1.0  0.33112  0.18183  0.37699  1.0000
  C   C165      1.0  0.35327  0.17084  0.01055  1.0000
  C   C166      1.0  0.19102  0.11877  0.06504  1.0000
  C   C167      1.0  0.03601  0.12541  0.11143  1.0000
  H   H136      1.0  0.33838  0.06375  0.99892  1.0000
  C   C168      1.0  0.09596  0.08107  0.99678  1.0000
  C   C169      1.0  0.17264  0.00032  0.07215  1.0000
  C   C170      1.0  0.35829  0.20752  0.41448  1.0000
  C   C171      1.0  0.03495  0.12682  0.02150  1.0000
  C   C172      1.0  0.45768  0.13671  0.32577  1.0000
  C   C173      1.0  0.29981  0.19881  0.99781  1.0000
  H   H137      1.0  0.17468  0.17210  0.07479  1.0000
  H   H138      1.0  0.06523  0.17861  0.07740  1.0000
  S   S26       1.0  0.39262  0.00955  0.44182  1.0000
  H   H139      1.0  0.37141  0.00942  0.18021  1.0000
  C   C174      1.0  0.35052  0.19687  0.07795  1.0000
  H   H140      1.0  0.47713  0.08534  0.44327  1.0000
  S   S27       1.0  0.25311  0.12248  0.03586  1.0000
  C   C175      1.0  0.04838  0.19061  0.03713  1.0000
  H   H141      1.0  0.44621  0.07025  0.42225  1.0000
  C   C176      1.0  0.08334  0.98603  0.05080  1.0000
  C   C177      1.0  0.03534  0.99623  0.27666  1.0000
  C   C178      1.0  0.16936  0.06444  0.99815  1.0000
  C   C179      1.0  0.35796  0.20369  0.10891  1.0000
  H   H142      1.0  0.06167  0.13884  0.09194  1.0000
  C   C180      1.0  0.25763  0.08076  0.99530  1.0000
  C   C181      1.0  0.33670  0.21657  0.05018  1.0000
  C   C182      1.0  0.33994  0.20327  0.04821  1.0000
  C   C183      1.0  0.10999  0.22703  0.01999  1.0000
  H   H143      1.0  0.01142  0.00170  0.06522  1.0000
  C   C184      1.0  0.39208  0.99201  0.17335  1.0000
  H   H144      1.0  0.42441  0.03758  0.14959  1.0000
  C   C185      1.0  0.31355  0.15831  0.03713  1.0000
  H   H145      1.0  0.44008  0.00060  0.40811  1.0000
  H   H146      1.0  0.33551  0.14135  0.03582  1.0000
  C   C186      1.0  0.45036  0.98513  0.16824  1.0000
  H   H147      1.0  0.47485  0.07036  0.25470  1.0000
  C   C187      1.0  0.48881  0.99254  0.32106  1.0000
  C   C188      1.0  0.99277  0.08009  0.07746  1.0000
  C   C189      1.0  0.07451  0.11738  0.02053  1.0000
  C   C190      1.0  0.44670  0.99091  0.40453  1.0000
  H   H148      1.0  0.36549  0.21654  0.40604  1.0000
  H   H149      1.0  0.41289  0.01509  0.15033  1.0000
  C   C191      1.0  0.41902  0.01951  0.17552  1.0000
  H   H150      1.0  0.24366  0.98913  0.04943  1.0000
  C   C192      1.0  0.46599  0.98644  0.42530  1.0000
  H   H151      1.0  0.17307  0.04391  0.99719  1.0000
  C   C193      1.0  0.19805  0.07554  0.03560  1.0000
  C   C194      1.0  0.07095  0.16120  0.99144  1.0000
  C   C195      1.0  0.41853  0.21758  0.45758  1.0000
  H   H152      1.0  0.42094  0.98647  0.36297  1.0000
  H   H153      1.0  0.12960  0.10519  0.04015  1.0000
  C   C196      1.0  0.19933  0.05248  0.03177  1.0000
  C   C197      1.0  0.02167  0.98655  0.29140  1.0000
  C   C198      1.0  0.01815  0.14593  0.15359  1.0000
  C   C199      1.0  0.00756  0.13402  0.15558  1.0000
  H   H154      1.0  0.48484  0.02054  0.47039  1.0000
  C   C200      1.0  0.45587  0.98532  0.23429  1.0000
  H   H155      1.0  0.04575  0.15687  0.12883  1.0000
  H   H156      1.0  0.23253  0.20525  0.97961  1.0000
  C   C201      1.0  0.07479  0.20252  0.99845  1.0000
  S   S28       1.0  0.20307  0.17279  0.99461  1.0000
  H   H157      1.0  0.41116  0.23019  0.04863  1.0000
  C   C202      1.0  0.09096  0.18867  0.04557  1.0000
  H   H158      1.0  0.00125  0.99041  0.36503  1.0000
  Fe  Fe17      1.0  0.28972  0.01945  0.98327  1.0000
  S   S29       1.0  0.48374  0.17135  0.47133  1.0000
  C   C203      1.0  0.39856  0.99208  0.25149  1.0000
  C   C204      1.0  0.35124  0.19159  0.46080  1.0000
  H   H159      1.0  0.35477  0.02512  0.47664  1.0000
  H   H160      1.0  0.45008  0.98799  0.26168  1.0000
  S   S30       1.0  0.25369  0.02879  0.97954  1.0000
  P   P7        1.0  0.16594  0.09102  0.99633  1.0000
  H   H161      1.0  0.20607  0.08416  0.04558  1.0000
  S   S31       1.0  0.32266  0.22852  0.19973  1.0000
  H   H162      1.0  0.47426  0.99278  0.44493  1.0000
  C   C205      1.0  0.04201  0.98396  0.03254  1.0000
  H   H163      1.0  0.47523  0.04618  0.41496  1.0000
  C   C206      1.0  0.48671  0.05408  0.40933  1.0000
  H   H164      1.0  0.43054  0.22375  0.27663  1.0000
  C   C207      1.0  0.48809  0.01570  0.32430  1.0000
  C   C208      1.0  0.11383  0.16037  0.97861  1.0000
  H   H165      1.0  0.15487  0.06444  0.97860  1.0000
  H   H166      1.0  0.40231  0.05563  0.47203  1.0000
  C   C209      1.0  0.13508  0.08933  0.98368  1.0000
  H   H167      1.0  0.16174  0.98353  0.98482  1.0000
  H   H168      1.0  0.99191  0.13280  0.17232  1.0000
  C   C210      1.0  0.99287  0.08934  0.05010  1.0000
  C   C211      1.0  0.36509  0.23027  0.47706  1.0000
  C   C212      1.0  0.44732  0.02353  0.47851  1.0000
  H   H169      1.0  0.02572  0.13843  0.97486  1.0000
  S   S32       1.0  0.20820  0.14304  0.96709  1.0000
  C   C213      1.0  0.39212  0.99478  0.82315  1.0000
  H   H170      1.0  0.18618  0.20433  0.58160  1.0000
  S   S33       1.0  0.23224  0.17106  0.89997  1.0000
  C   C214      1.0  0.49016  0.20300  0.72001  1.0000
  Fe  Fe18      1.0  0.45991  0.15851  0.50355  1.0000
  S   S34       1.0  0.42857  0.16485  0.54040  1.0000
  Fe  Fe19      1.0  0.33469  0.20238  0.77113  1.0000
  S   S35       1.0  0.37205  0.20993  0.77180  1.0000
  S   S36       1.0  0.32717  0.18882  0.81899  1.0000
  Fe  Fe20      1.0  0.32228  0.21764  0.70176  1.0000
  H   H171      1.0  0.24450  0.22328  0.66738  1.0000
  Fe  Fe21      1.0  0.37255  0.20663  0.71030  1.0000
  S   S37       1.0  0.40711  0.20046  0.68115  1.0000
  C   C215      1.0  0.34855  0.19034  0.93714  1.0000
  S   S38       1.0  0.33667  0.19759  0.71037  1.0000
  H   H172      1.0  0.44909  0.08962  0.51594  1.0000
  C   C216      1.0  0.15909  0.22465  0.55503  1.0000
  S   S39       1.0  0.31036  0.00799  0.93845  1.0000
  H   H173      1.0  0.11146  0.18041  0.88442  1.0000
  C   C217      1.0  0.13066  0.98443  0.84843  1.0000
  S   S40       1.0  0.30426  0.99431  0.76560  1.0000
  H   H174      1.0  0.43950  0.20142  0.87400  1.0000
  S   S41       1.0  0.33379  0.00323  0.59112  1.0000
  C   C218      1.0  0.38115  0.99779  0.50671  1.0000
  C   C219      1.0  0.45994  0.04256  0.52857  1.0000
  S   S42       1.0  0.35743  0.99172  0.68750  1.0000
  H   H175      1.0  0.14869  0.21854  0.95172  1.0000
  C   C220      1.0  0.34588  0.01536  0.52697  1.0000
  C   C221      1.0  0.35060  0.00488  0.54997  1.0000
  C   C222      1.0  0.36847  0.99614  0.53973  1.0000
  H   H176      1.0  0.40826  0.08960  0.61536  1.0000
  H   H177      1.0  0.33207  0.02216  0.53452  1.0000
  H   H178      1.0  0.15437  0.99157  0.89009  1.0000
  C   C223      1.0  0.30621  0.99768  0.81390  1.0000
  C   C224      1.0  0.32578  0.99401  0.83536  1.0000
  C   C225      1.0  0.32655  0.99715  0.87328  1.0000
  C   C226      1.0  0.30783  0.00399  0.89052  1.0000
  C   C227      1.0  0.28813  0.00755  0.86910  1.0000
  C   C228      1.0  0.28739  0.00444  0.83116  1.0000
  C   C229      1.0  0.15785  0.19215  0.95523  1.0000
  P   P8        1.0  0.18679  0.23194  0.56748  1.0000
  H   H179      1.0  0.27355  0.01278  0.88170  1.0000
  H   H180      1.0  0.27214  0.00736  0.81501  1.0000
  C   C230      1.0  0.42318  0.17501  0.57921  1.0000
  C   C231      1.0  0.39985  0.17625  0.59280  1.0000
  C   C232      1.0  0.39456  0.18398  0.62378  1.0000
  C   C233      1.0  0.41257  0.19066  0.64159  1.0000
  C   C234      1.0  0.43587  0.18954  0.62777  1.0000
  C   C235      1.0  0.44117  0.18180  0.59678  1.0000
  H   H181      1.0  0.38575  0.17107  0.57953  1.0000
  H   H182      1.0  0.37658  0.18468  0.63402  1.0000
  H   H183      1.0  0.44992  0.19465  0.64129  1.0000
  H   H184      1.0  0.45919  0.18098  0.58674  1.0000
  H   H185      1.0  0.38959  0.20512  0.88482  1.0000
  H   H186      1.0  0.32574  0.04817  0.53476  1.0000
  H   H187      1.0  0.40499  0.01630  0.67222  1.0000
  C   C236      1.0  0.33038  0.20713  0.57346  1.0000
  C   C237      1.0  0.25893  0.17616  0.87855  1.0000
  C   C238      1.0  0.28147  0.17218  0.89060  1.0000
  C   C239      1.0  0.30202  0.17613  0.87196  1.0000
  C   C240      1.0  0.30047  0.18431  0.84151  1.0000
  C   C241      1.0  0.27797  0.18848  0.82989  1.0000
  C   C242      1.0  0.25738  0.18435  0.84811  1.0000
  H   H188      1.0  0.28304  0.16585  0.91382  1.0000
  H   H189      1.0  0.31925  0.17266  0.88088  1.0000
  H   H190      1.0  0.27639  0.19474  0.80650  1.0000
  H   H191      1.0  0.24009  0.18749  0.83845  1.0000
  C   C243      1.0  0.43864  0.19691  0.49522  1.0000
  C   C244      1.0  0.48970  0.21739  0.65570  1.0000
  H   H192      1.0  0.24725  0.11092  0.96261  1.0000
  H   H193      1.0  0.05620  0.19694  0.63456  1.0000
  H   H194      1.0  0.32085  0.23093  0.96427  1.0000
  H   H195      1.0  0.26061  0.98896  0.63290  1.0000
  H   H196      1.0  0.03423  0.21845  0.54023  1.0000
  C   C245      1.0  0.41837  0.03410  0.65217  1.0000
  H   H197      1.0  0.23823  0.22976  0.55361  1.0000
  C   C246      1.0  0.23168  0.21921  0.64862  1.0000
  H   H198      1.0  0.17475  0.11612  0.96443  1.0000
  H   H199      1.0  0.44079  0.06689  0.50603  1.0000
  C   C247      1.0  0.38085  0.21019  0.94074  1.0000
  C   C248      1.0  0.38576  0.05374  0.48593  1.0000
  C   C249      1.0  0.38566  0.04962  0.52252  1.0000
  H   H200      1.0  0.16855  0.99289  0.61106  1.0000
  C   C250      1.0  0.19672  0.11277  0.91719  1.0000
  C   C251      1.0  0.20873  0.10373  0.89548  1.0000
  C   C252      1.0  0.20774  0.09082  0.90426  1.0000
  H   H201      1.0  0.20832  0.19068  0.62508  1.0000
  H   H202      1.0  0.37238  0.98804  0.55705  1.0000
  C   C253      1.0  0.04138  0.21825  0.56787  1.0000
  C   C254      1.0  0.22772  0.20614  0.64903  1.0000
  H   H203      1.0  0.03933  0.19782  0.57156  1.0000
  C   C255      1.0  0.06113  0.13067  0.97026  1.0000
  C   C256      1.0  0.43432  0.07156  0.53080  1.0000
  C   C257      1.0  0.18284  0.09597  0.95697  1.0000
  H   H204      1.0  0.09998  0.20780  0.53114  1.0000
  C   C258      1.0  0.22216  0.98441  0.71832  1.0000
  H   H205      1.0  0.42652  0.03667  0.67812  1.0000
  C   C259      1.0  0.33870  0.20845  0.53753  1.0000
  C   C260      1.0  0.40982  0.03880  0.58811  1.0000
  H   H206      1.0  0.32634  0.20769  0.51484  1.0000
  C   C261      1.0  0.37891  0.20292  0.90860  1.0000
  C   C262      1.0  0.14864  0.18172  0.89751  1.0000
  C   C263      1.0  0.38715  0.00482  0.84757  1.0000
  H   H207      1.0  0.30699  0.21527  0.91865  1.0000
  H   H208      1.0  0.19762  0.12278  0.91045  1.0000
  H   H209      1.0  0.21902  0.10675  0.87211  1.0000
  H   H210      1.0  0.21741  0.08382  0.88785  1.0000
  H   H211      1.0  0.44632  0.18880  0.50954  1.0000
  H   H212      1.0  0.10156  0.22312  0.58324  1.0000
  H   H213      1.0  0.09045  0.98344  0.94333  1.0000
  C   C264      1.0  0.41116  0.07154  0.58684  1.0000
  C   C265      1.0  0.20266  0.22182  0.59958  1.0000
  H   H214      1.0  0.39955  0.06681  0.60582  1.0000
  H   H215      1.0  0.43054  0.05072  0.62443  1.0000
  H   H216      1.0  0.12103  0.99340  0.84560  1.0000
  Fe  Fe22      1.0  0.22708  0.16165  0.95613  1.0000
  C   C266      1.0  0.12544  0.09604  0.95377  1.0000
  C   C267      1.0  0.36383  0.04791  0.54027  1.0000
  C   C268      1.0  0.38728  0.99619  0.78572  1.0000
  C   C269      1.0  0.41582  0.08448  0.59210  1.0000
  H   H217      1.0  0.06462  0.13553  0.94471  1.0000
  C   C270      1.0  0.19958  0.99753  0.64344  1.0000
  C   C271      1.0  0.21260  0.00752  0.65892  1.0000
  C   C272      1.0  0.20381  0.02005  0.65750  1.0000
  C   C273      1.0  0.18221  0.02272  0.63998  1.0000
  C   C274      1.0  0.16951  0.01288  0.62352  1.0000
  C   C275      1.0  0.17826  0.00034  0.62491  1.0000
  H   H218      1.0  0.32616  0.21347  0.85777  1.0000
  C   C276      1.0  0.36286  0.19295  0.90689  1.0000
  C   C277      1.0  0.11647  0.21244  0.53786  1.0000
  C   C278      1.0  0.11688  0.18996  0.93630  1.0000
  H   H219      1.0  0.38146  0.21271  0.62027  1.0000
  H   H220      1.0  0.30028  0.19196  0.94138  1.0000
  C   C279      1.0  0.13690  0.20980  0.51724  1.0000
  C   C280      1.0  0.36960  0.21144  0.59708  1.0000
  H   H221      1.0  0.39639  0.21519  0.55733  1.0000
  C   C281      1.0  0.34250  0.04974  0.52115  1.0000
  C   C282      1.0  0.37635  0.00822  0.48360  1.0000
  H   H222      1.0  0.43273  0.06531  0.73603  1.0000
  C   C283      1.0  0.32907  0.23059  0.93750  1.0000
  C   C284      1.0  0.04443  0.20652  0.58541  1.0000
  C   C285      1.0  0.45440  0.21104  0.78783  1.0000
  C   C286      1.0  0.25291  0.09065  0.97032  1.0000
  H   H223      1.0  0.22970  0.00567  0.67172  1.0000
  H   H224      1.0  0.21391  0.02771  0.66963  1.0000
  H   H225      1.0  0.17550  0.03245  0.63869  1.0000
  H   H226      1.0  0.15300  0.01500  0.60929  1.0000
  H   H227      1.0  0.38698  0.01019  0.61260  1.0000
  S   S43       1.0  0.48902  0.14383  0.51386  1.0000
  H   H228      1.0  0.46491  0.21670  0.84291  1.0000
  H   H229      1.0  0.36314  0.04521  0.56885  1.0000
  H   H230      1.0  0.38244  0.16582  0.50326  1.0000
  C   C287      1.0  0.39617  0.01915  0.61532  1.0000
  Fe  Fe23      1.0  0.35511  0.22890  0.76000  1.0000
  H   H231      1.0  0.40390  0.19397  0.51695  1.0000
  H   H232      1.0  0.39473  0.99087  0.49894  1.0000
  C   C288      1.0  0.21126  0.20085  0.62481  1.0000
  H   H233      1.0  0.15453  0.17679  0.87280  1.0000
  S   S44       1.0  0.29721  0.22101  0.65338  1.0000
  C   C289      1.0  0.22947  0.23246  0.52832  1.0000
  C   C290      1.0  0.10126  0.09523  0.94543  1.0000
  C   C291      1.0  0.43888  0.08449  0.53609  1.0000
  H   H234      1.0  0.08687  0.16747  0.94123  1.0000
  C   C292      1.0  0.12443  0.18378  0.90406  1.0000
  C   C293      1.0  0.37801  0.21272  0.56128  1.0000
  C   C294      1.0  0.43979  0.20171  0.84426  1.0000
  C   C295      1.0  0.11735  0.22105  0.56726  1.0000
  C   C296      1.0  0.47757  0.03551  0.50999  1.0000
  C   C297      1.0  0.40442  0.21045  0.48126  1.0000
  C   C298      1.0  0.13354  0.19406  0.96237  1.0000
  H   H235      1.0  0.17110  0.19538  0.97461  1.0000
  C   C299      1.0  0.13766  0.22445  0.96948  1.0000
  H   H236      1.0  0.18414  0.18430  0.91797  1.0000
  C   C300      1.0  0.25399  0.98545  0.60689  1.0000
  C   C301      1.0  0.42560  0.19347  0.82380  1.0000
  C   C302      1.0  0.42601  0.19386  0.78548  1.0000
  C   C303      1.0  0.44031  0.20259  0.76762  1.0000
  P   P9        1.0  0.41317  0.04855  0.54781  1.0000
  C   C304      1.0  0.06072  0.21723  0.63868  1.0000
  H   H237      1.0  0.35947  0.22747  0.84232  1.0000
  C   C305      1.0  0.35874  0.01707  0.49412  1.0000
  C   C306      1.0  0.21947  0.22702  0.62372  1.0000
  H   H238      1.0  0.33660  0.18240  0.93551  1.0000
  H   H239      1.0  0.23188  0.98743  0.77513  1.0000
  C   C307      1.0  0.42975  0.09094  0.56681  1.0000
  H   H240      1.0  0.34187  0.99429  0.88938  1.0000
  H   H241      1.0  0.23761  0.20013  0.66798  1.0000
  H   H242      1.0  0.41419  0.18681  0.83755  1.0000
  H   H243      1.0  0.41488  0.18758  0.76939  1.0000
  H   H244      1.0  0.44013  0.20283  0.73792  1.0000
  H   H245      1.0  0.09389  0.10049  0.92243  1.0000
  C   C308      1.0  0.41456  0.19994  0.49956  1.0000
  H   H246      1.0  0.39069  0.02411  0.55890  1.0000
  C   C309      1.0  0.39813  0.02713  0.58497  1.0000
  H   H247      1.0  0.39064  0.00368  0.87666  1.0000
  H   H248      1.0  0.06824  0.21684  0.66611  1.0000
  C   C310      1.0  0.47125  0.02604  0.48480  1.0000
  C   C311      1.0  0.05772  0.22897  0.62119  1.0000
  C   C312      1.0  0.42968  0.03062  0.49683  1.0000
  C   C313      1.0  0.36277  0.21089  0.53116  1.0000
  H   H249      1.0  0.36122  0.18735  0.88185  1.0000
  C   C314      1.0  0.43585  0.04028  0.52165  1.0000
  H   H250      1.0  0.42302  0.22476  0.73575  1.0000
  Fe  Fe24      1.0  0.32603  0.98445  0.71909  1.0000
  H   H251      1.0  0.39332  0.21793  0.94207  1.0000
  Fe  Fe25      1.0  0.33747  0.98777  0.63521  1.0000
  C   C315      1.0  0.19874  0.20865  0.60018  1.0000
  H   H252      1.0  0.28666  0.98924  0.57857  1.0000
  H   H253      1.0  0.39101  0.98839  0.76670  1.0000
  C   C316      1.0  0.05398  0.20602  0.62087  1.0000
  S   S45       1.0  0.31765  0.22172  0.76233  1.0000
  P   P10       1.0  0.37305  0.21382  0.48519  1.0000
  C   C317      1.0  0.42038  0.04212  0.62177  1.0000
  C   C318      1.0  0.30418  0.02111  0.71347  1.0000
  C   C319      1.0  0.31462  0.02067  0.67870  1.0000
  C   C320      1.0  0.33818  0.02426  0.67442  1.0000
  C   C321      1.0  0.35138  0.02814  0.70496  1.0000
  C   C322      1.0  0.34100  0.02868  0.74007  1.0000
  C   C323      1.0  0.31731  0.02506  0.74408  1.0000
  P   P11       1.0  0.35888  0.03234  0.78002  1.0000
  C   C324      1.0  0.34073  0.03999  0.81516  1.0000
  C   C325      1.0  0.37184  0.01764  0.79713  1.0000
  C   C326      1.0  0.37722  0.01624  0.83462  1.0000
  H   H254      1.0  0.34034  0.98878  0.82275  1.0000
  C   C327      1.0  0.40629  0.02263  0.64892  1.0000
  H   H255      1.0  0.25145  0.08842  0.94138  1.0000
  C   C328      1.0  0.37725  0.00758  0.77278  1.0000
  C   C329      1.0  0.34019  0.05332  0.81950  1.0000
  C   C330      1.0  0.32673  0.05905  0.84761  1.0000
  C   C331      1.0  0.31380  0.05155  0.87169  1.0000
  C   C332      1.0  0.31415  0.03833  0.86746  1.0000
  C   C333      1.0  0.32734  0.03258  0.83914  1.0000
  C   C334      1.0  0.38231  0.04286  0.76653  1.0000
  C   C335      1.0  0.37751  0.05285  0.74195  1.0000
  C   C336      1.0  0.39566  0.06087  0.73090  1.0000
  C   C337      1.0  0.41870  0.05903  0.74441  1.0000
  C   C338      1.0  0.42359  0.04917  0.76900  1.0000
  C   C339      1.0  0.40548  0.04111  0.78008  1.0000
  H   H256      1.0  0.28625  0.01781  0.71713  1.0000
  H   H257      1.0  0.30475  0.01718  0.65518  1.0000
  H   H258      1.0  0.34638  0.02356  0.64754  1.0000
  H   H259      1.0  0.36987  0.03034  0.70125  1.0000
  H   H260      1.0  0.30915  0.02473  0.77093  1.0000
  H   H261      1.0  0.37356  0.02390  0.85401  1.0000
  S   S46       1.0  0.35825  0.22634  0.69875  1.0000
  C   C340      1.0  0.13856  0.22712  0.57591  1.0000
  H   H262      1.0  0.46510  0.04966  0.54866  1.0000
  H   H263      1.0  0.37364  0.00847  0.74380  1.0000
  H   H264      1.0  0.35019  0.05934  0.80155  1.0000
  H   H265      1.0  0.32642  0.06931  0.85096  1.0000
  H   H266      1.0  0.30354  0.05596  0.89376  1.0000
  H   H267      1.0  0.30433  0.03251  0.88645  1.0000
  H   H268      1.0  0.32734  0.02232  0.83629  1.0000
  H   H269      1.0  0.35971  0.05442  0.73137  1.0000
  H   H270      1.0  0.39181  0.06857  0.71202  1.0000
  H   H271      1.0  0.43310  0.10101  0.57052  1.0000
  H   H272      1.0  0.44143  0.04778  0.77965  1.0000
  H   H273      1.0  0.40966  0.03355  0.79923  1.0000
  H   H274      1.0  0.20740  0.99113  0.71963  1.0000
  C   C341      1.0  0.34591  0.20847  0.60316  1.0000
  C   C342      1.0  0.16534  0.18595  0.92302  1.0000
  C   C343      1.0  0.34968  0.19789  0.96911  1.0000
  C   C344      1.0  0.36636  0.20768  0.97091  1.0000
  H   H275      1.0  0.35298  0.18815  0.48867  1.0000
  C   C345      1.0  0.33212  0.22051  0.87753  1.0000
  C   C346      1.0  0.42088  0.06491  0.55663  1.0000
  H   H276      1.0  0.28011  0.23088  0.58501  1.0000
  H   H277      1.0  0.13643  0.10203  0.93705  1.0000
  H   H278      1.0  0.33951  0.20738  0.63097  1.0000
  C   C347      1.0  0.15818  0.21579  0.52595  1.0000
  H   H279      1.0  0.25806  0.19637  0.93006  1.0000
  H   H280      1.0  0.31183  0.20524  0.57861  1.0000
  H   H281      1.0  0.40262  0.23090  0.81169  1.0000
  H   H282      1.0  0.06775  0.08722  0.96053  1.0000
  C   C348      1.0  0.32132  0.22155  0.91192  1.0000
  H   H283      1.0  0.17396  0.21345  0.51014  1.0000
  H   H284      1.0  0.12840  0.16216  0.96019  1.0000
  P   P12       1.0  0.47183  0.22270  0.76399  1.0000
  C   C349      1.0  0.19492  0.08694  0.93493  1.0000
  H   H285      1.0  0.41123  0.02845  0.49188  1.0000
  C   C350      1.0  0.04753  0.22958  0.58599  1.0000
  C   C351      1.0  0.28983  0.19618  0.96322  1.0000
  S   S47       1.0  0.04156  0.16523  0.97623  1.0000
  C   C352      1.0  0.45421  0.21042  0.82639  1.0000
  H   H286      1.0  0.19487  0.07691  0.94158  1.0000
  H   H287      1.0  0.39951  0.98587  0.83323  1.0000
  C   C353      1.0  0.09025  0.16342  0.96797  1.0000
  C   C354      1.0  0.12639  0.98484  0.96337  1.0000
  H   H288      1.0  0.35255  0.14979  0.48599  1.0000
  H   H289      1.0  0.12693  0.99509  0.96036  1.0000
  C   C355      1.0  0.18383  0.10894  0.94784  1.0000
  C   C356      1.0  0.34277  0.05361  0.48453  1.0000
  H   H290      1.0  0.49020  0.19725  0.74461  1.0000
  H   H291      1.0  0.13629  0.20304  0.49460  1.0000
  H   H292      1.0  0.09805  0.19124  0.94095  1.0000
  C   C357      1.0  0.48235  0.21578  0.72128  1.0000
  C   C358      1.0  0.26574  0.19868  0.95657  1.0000
  C   C359      1.0  0.35091  0.22842  0.86883  1.0000
  H   H293      1.0  0.48922  0.22290  0.63067  1.0000
  C   C360      1.0  0.48231  0.22296  0.68890  1.0000
  H   H294      1.0  0.07710  0.20912  0.97609  1.0000
  C   C361      1.0  0.26867  0.98578  0.57601  1.0000
  C   C362      1.0  0.14942  0.98340  0.87353  1.0000
  C   C363      1.0  0.08652  0.08777  0.96694  1.0000
  H   H295      1.0  0.47627  0.23281  0.68906  1.0000
  S   S48       1.0  0.26100  0.06492  0.97813  1.0000
  H   H296      1.0  0.09620  0.12238  0.97427  1.0000
  C   C364      1.0  0.25373  0.34866  0.40782  1.0000
  S   S49       1.0  0.31319  0.43516  0.44366  1.0000
  C   C365      1.0  0.33566  0.24612  0.45834  1.0000
  Fe  Fe26      1.0  0.34830  0.44989  0.22469  1.0000
  S   S50       1.0  0.35103  0.47126  0.22256  1.0000
  S   S51       1.0  0.33648  0.43620  0.27038  1.0000
  Fe  Fe27      1.0  0.36234  0.44719  0.14134  1.0000
  S   S52       1.0  0.36475  0.46831  0.13343  1.0000
  S   S53       1.0  0.37458  0.43135  0.10222  1.0000
  Fe  Fe28      1.0  0.38403  0.46832  0.18773  1.0000
  C   C366      1.0  0.41598  0.28629  0.28037  1.0000
  Fe  Fe29      1.0  0.33153  0.46968  0.16821  1.0000
  C   C367      1.0  0.05438  0.45436  0.23786  1.0000
  S   S54       1.0  0.38270  0.44708  0.19424  1.0000
  S   S55       1.0  0.32780  0.44840  0.17170  1.0000
  C   C368      1.0  0.18115  0.31516  0.40403  1.0000
  Fe  Fe30      1.0  0.36079  0.23468  0.20214  1.0000
  C   C369      1.0  0.45722  0.39029  0.28150  1.0000
  C   C370      1.0  0.00810  0.24905  0.46637  1.0000
  S   S56       1.0  0.36808  0.24857  0.15475  1.0000
  C   C371      1.0  0.30196  0.25876  0.05186  1.0000
  Fe  Fe31      1.0  0.46108  0.27877  0.00486  1.0000
  S   S57       1.0  0.45521  0.26708  0.05723  1.0000
  H   H297      1.0  0.25101  0.32246  0.44387  1.0000
  C   C372      1.0  0.07592  0.44906  0.24996  1.0000
  C   C373      1.0  0.16093  0.31388  0.46247  1.0000
  H   H298      1.0  0.37085  0.39770  0.41330  1.0000
  C   C374      1.0  0.41507  0.25033  0.22869  1.0000
  C   C375      1.0  0.36994  0.41809  0.41876  1.0000
  H   H299      1.0  0.01086  0.25334  0.43974  1.0000
  C   C376      1.0  0.28586  0.24959  0.32962  1.0000
  C   C377      1.0  0.30593  0.25303  0.34977  1.0000
  C   C378      1.0  0.30341  0.25999  0.38289  1.0000
  C   C379      1.0  0.28084  0.26319  0.39709  1.0000
  C   C380      1.0  0.26073  0.25975  0.37700  1.0000
  C   C381      1.0  0.26327  0.25308  0.34331  1.0000
  C   C382      1.0  0.39277  0.41833  0.35021  1.0000
  H   H300      1.0  0.31913  0.26289  0.39757  1.0000
  H   H301      1.0  0.24325  0.26223  0.38733  1.0000
  H   H302      1.0  0.24762  0.25053  0.32782  1.0000
  C   C383      1.0  0.39223  0.25287  0.12597  1.0000
  C   C384      1.0  0.41445  0.24673  0.12741  1.0000
  C   C385      1.0  0.43331  0.25103  0.10554  1.0000
  C   C386      1.0  0.43005  0.26121  0.08093  1.0000
  C   C387      1.0  0.40754  0.26697  0.07824  1.0000
  C   C388      1.0  0.38895  0.26299  0.10118  1.0000
  C   C389      1.0  0.33547  0.25434  0.99595  1.0000
  H   H303      1.0  0.45065  0.24653  0.10793  1.0000
  H   H304      1.0  0.40480  0.27490  0.05985  1.0000
  H   H305      1.0  0.37206  0.26800  0.10027  1.0000
  C   C390      1.0  0.41589  0.25482  0.29401  1.0000
  C   C391      1.0  0.24677  0.36965  0.43422  1.0000
  H   H306      1.0  0.08297  0.44044  0.23714  1.0000
  C   C392      1.0  0.33152  0.26974  0.23221  1.0000
  C   C393      1.0  0.36257  0.43927  0.99410  1.0000
  C   C394      1.0  0.36372  0.44059  0.03265  1.0000
  C   C395      1.0  0.37570  0.43138  0.05356  1.0000
  C   C396      1.0  0.38764  0.42129  0.03542  1.0000
  H   H307      1.0  0.15582  0.34133  0.29582  1.0000
  H   H308      1.0  0.35453  0.44840  0.04626  1.0000
  H   H309      1.0  0.39696  0.41411  0.05137  1.0000
  C   C397      1.0  0.31882  0.43524  0.39513  1.0000
  C   C398      1.0  0.31737  0.42429  0.37304  1.0000
  C   C399      1.0  0.32276  0.42483  0.33511  1.0000
  C   C400      1.0  0.32976  0.43626  0.31853  1.0000
  C   C401      1.0  0.33120  0.44720  0.34058  1.0000
  C   C402      1.0  0.32569  0.44669  0.37849  1.0000
  H   H310      1.0  0.31225  0.41540  0.38523  1.0000
  H   H311      1.0  0.32144  0.41630  0.31848  1.0000
  H   H312      1.0  0.33651  0.45607  0.32846  1.0000
  H   H313      1.0  0.32696  0.45522  0.39514  1.0000
  H   H314      1.0  0.33205  0.26056  0.08804  1.0000
  H   H315      1.0  0.09922  0.24635  0.03288  1.0000
  H   H316      1.0  0.36158  0.40525  0.30359  1.0000
  H   H317      1.0  0.08934  0.47050  0.31687  1.0000
  C   C403      1.0  0.19444  0.32544  0.41722  1.0000
  C   C404      1.0  0.39385  0.41709  0.23289  1.0000
  H   H318      1.0  0.26497  0.43703  0.98073  1.0000
  C   C405      1.0  0.35753  0.40768  0.21091  1.0000
  H   H319      1.0  0.99982  0.40503  0.41241  1.0000
  H   H320      1.0  0.12090  0.45545  0.43187  1.0000
  C   C406      1.0  0.41499  0.30655  0.31310  1.0000
  H   H321      1.0  0.19971  0.24287  0.43686  1.0000
  C   C407      1.0  0.22653  0.43745  0.03112  1.0000
  C   C408      1.0  0.46564  0.42623  0.01401  1.0000
  C   C409      1.0  0.22334  0.33865  0.31614  1.0000
  C   C410      1.0  0.04536  0.46553  0.25419  1.0000
  H   H322      1.0  0.39991  0.46308  0.26775  1.0000
  C   C411      1.0  0.29113  0.47936  0.01223  1.0000
  H   H323      1.0  0.30335  0.26944  0.27210  1.0000
  H   H324      1.0  0.42871  0.44864  0.02063  1.0000
  C   C412      1.0  0.47108  0.45711  0.12478  1.0000
  H   H325      1.0  0.44105  0.41179  0.36529  1.0000
  C   C413      1.0  0.10990  0.24023  0.01511  1.0000
  C   C414      1.0  0.37865  0.41395  0.20389  1.0000
  H   H326      1.0  0.31818  0.24843  0.44756  1.0000
  C   C415      1.0  0.26012  0.30168  0.35632  1.0000
  H   H327      1.0  0.28693  0.29167  0.38766  1.0000
  C   C416      1.0  0.42200  0.23771  0.23536  1.0000
  H   H328      1.0  0.42463  0.23876  0.32856  1.0000
  H   H329      1.0  0.34546  0.40561  0.18853  1.0000
  H   H330      1.0  0.45637  0.42876  0.30521  1.0000
  C   C417      1.0  0.32619  0.25893  0.05999  1.0000
  C   C418      1.0  0.43036  0.23963  0.00598  1.0000
  H   H331      1.0  0.38183  0.27452  0.97905  1.0000
  H   H332      1.0  0.38463  0.44203  0.28457  1.0000
  H   H333      1.0  0.36154  0.25755  0.03876  1.0000
  H   H334      1.0  0.38291  0.41671  0.17603  1.0000
  S   S58       1.0  0.35834  0.23953  0.26291  1.0000
  P   P13       1.0  0.40238  0.27515  0.24923  1.0000
  C   C419      1.0  0.41077  0.28048  0.20407  1.0000
  H   H335      1.0  0.44898  0.27551  0.28504  1.0000
  C   C420      1.0  0.40411  0.29771  0.28989  1.0000
  H   H336      1.0  0.37229  0.27814  0.31449  1.0000
  C   C421      1.0  0.34281  0.23340  0.46195  1.0000
  H   H337      1.0  0.44764  0.23766  0.01805  1.0000
  H   H338      1.0  0.23656  0.46663  0.06942  1.0000
  C   C422      1.0  0.39637  0.28924  0.18487  1.0000
  C   C423      1.0  0.40331  0.29359  0.15034  1.0000
  C   C424      1.0  0.42483  0.28940  0.13506  1.0000
  C   C425      1.0  0.43950  0.28092  0.15435  1.0000
  C   C426      1.0  0.43265  0.27657  0.18888  1.0000
  H   H339      1.0  0.25371  0.37839  0.44573  1.0000
  H   H340      1.0  0.38656  0.29983  0.27912  1.0000
  H   H341      1.0  0.40573  0.31534  0.32043  1.0000
  C   C427      1.0  0.43117  0.45369  0.99526  1.0000
  C   C428      1.0  0.31339  0.41737  0.98476  1.0000
  H   H342      1.0  0.37979  0.29271  0.19646  1.0000
  H   H343      1.0  0.31638  0.45490  0.08224  1.0000
  C   C429      1.0  0.41211  0.45558  0.27646  1.0000
  H   H344      1.0  0.45601  0.27756  0.14206  1.0000
  H   H345      1.0  0.44440  0.27009  0.20346  1.0000
  H   H346      1.0  0.44300  0.46701  0.26910  1.0000
  C   C430      1.0  0.38750  0.23861  0.00859  1.0000
  C   C431      1.0  0.44534  0.46504  0.07598  1.0000
  S   S59       1.0  0.42250  0.47446  0.19388  1.0000
  C   C432      1.0  0.44376  0.43614  0.29746  1.0000
  C   C433      1.0  0.34289  0.25696  0.03204  1.0000
  H   H347      1.0  0.19394  0.46931  0.05541  1.0000
  C   C434      1.0  0.20700  0.33587  0.34386  1.0000
  C   C435      1.0  0.27984  0.43188  0.99269  1.0000
  C   C436      1.0  0.42691  0.45758  0.08957  1.0000
  C   C437      1.0  0.43066  0.44989  0.12026  1.0000
  C   C438      1.0  0.45261  0.44976  0.13812  1.0000
  C   C439      1.0  0.01305  0.47054  0.33829  1.0000
  C   C440      1.0  0.46754  0.46468  0.09373  1.0000
  H   H348      1.0  0.41282  0.26120  0.31706  1.0000
  C   C441      1.0  0.31378  0.48087  0.02710  1.0000
  H   H349      1.0  0.44638  0.31103  0.34421  1.0000
  H   H350      1.0  0.26215  0.29552  0.33247  1.0000
  C   C442      1.0  0.07945  0.46610  0.29485  1.0000
  C   C443      1.0  0.43213  0.40681  0.30913  1.0000
  H   H351      1.0  0.40950  0.45781  0.07682  1.0000
  H   H352      1.0  0.41630  0.44426  0.13077  1.0000
  H   H353      1.0  0.45508  0.44416  0.16275  1.0000
  H   H354      1.0  0.26905  0.46177  0.12235  1.0000
  C   C444      1.0  0.32199  0.27126  0.26740  1.0000
  C   C445      1.0  0.40355  0.44364  0.28584  1.0000
  C   C446      1.0  0.42583  0.23363  0.27133  1.0000
  C   C447      1.0  0.40979  0.23549  0.02325  1.0000
  C   C448      1.0  0.35574  0.27156  0.22636  1.0000
  C   C449      1.0  0.24030  0.31944  0.38750  1.0000
  S   S60       1.0  0.27901  0.27131  0.44019  1.0000
  H   H355      1.0  0.24225  0.33819  0.32171  1.0000
  H   H356      1.0  0.18420  0.31134  0.37669  1.0000
  H   H357      1.0  0.46182  0.38429  0.25811  1.0000
  C   C450      1.0  0.19106  0.34298  0.27371  1.0000
  C   C451      1.0  0.37065  0.27491  0.25566  1.0000
  C   C452      1.0  0.43791  0.30413  0.32645  1.0000
  H   H358      1.0  0.28111  0.30501  0.44349  1.0000
  C   C453      1.0  0.99461  0.47544  0.39691  1.0000
  H   H359      1.0  0.00611  0.44229  0.27289  1.0000
  H   H360      1.0  0.33557  0.41462  0.03239  1.0000
  C   C454      1.0  0.21538  0.34211  0.28113  1.0000
  H   H361      1.0  0.47443  0.39631  0.36951  1.0000
  H   H362      1.0  0.21026  0.37499  0.44360  1.0000
  C   C455      1.0  0.46432  0.39706  0.34423  1.0000
  C   C456      1.0  0.18259  0.33703  0.33648  1.0000
  H   H363      1.0  0.36050  0.41807  0.44471  1.0000
  C   C457      1.0  0.25396  0.31694  0.41897  1.0000
  C   C458      1.0  0.38692  0.42011  0.99687  1.0000
  C   C459      1.0  0.21353  0.35620  0.41945  1.0000
  C   C460      1.0  0.17468  0.34049  0.30142  1.0000
  C   C461      1.0  0.45227  0.44811  0.28792  1.0000
  C   C462      1.0  0.47550  0.42328  0.97976  1.0000
  H   H364      1.0  0.16962  0.33543  0.35776  1.0000
  H   H365      1.0  0.41118  0.25322  0.20088  1.0000
  P   P14       1.0  0.21766  0.33180  0.38909  1.0000
  H   H366      1.0  0.22810  0.34421  0.25981  1.0000
  S   S61       1.0  0.28813  0.24143  0.28667  1.0000
  C   C463      1.0  0.27408  0.29948  0.38748  1.0000
  H   H367      1.0  0.45017  0.42120  0.02344  1.0000
  H   H368      1.0  0.01486  0.46424  0.31489  1.0000
  C   C464      1.0  0.99729  0.46741  0.36633  1.0000
  C   C465      1.0  0.05791  0.47152  0.28269  1.0000
  H   H369      1.0  0.32032  0.26670  0.20966  1.0000
  C   C466      1.0  0.36690  0.40750  0.27595  1.0000
  H   H370      1.0  0.39050  0.43891  0.35620  1.0000
  H   H371      1.0  0.34027  0.47328  0.06396  1.0000
  C   C467      1.0  0.43646  0.45780  0.27726  1.0000
  H   H372      1.0  0.18491  0.34570  0.24660  1.0000
  S   S62       1.0  0.47680  0.29839  0.99978  1.0000
  H   H373      1.0  0.15441  0.30137  0.41670  1.0000
  H   H374      1.0  0.32932  0.27553  0.32413  1.0000
  P   P15       1.0  0.43980  0.47561  0.03779  1.0000
  H   H375      1.0  0.39197  0.30014  0.13523  1.0000
  H   H376      1.0  0.41729  0.23885  0.14593  1.0000
  H   H377      1.0  0.33500  0.39988  0.25246  1.0000
  H   H378      1.0  0.10515  0.45082  0.28780  1.0000
  H   H379      1.0  0.39144  0.39777  0.35332  1.0000
  C   C468      1.0  0.20228  0.43899  0.02357  1.0000
  C   C469      1.0  0.35170  0.40441  0.24688  1.0000
  H   H380      1.0  0.23206  0.31289  0.33234  1.0000
  C   C470      1.0  0.38715  0.40673  0.36685  1.0000
  C   C471      1.0  0.37565  0.40663  0.40088  1.0000
  C   C472      1.0  0.08843  0.45492  0.27848  1.0000
  H   H381      1.0  0.18762  0.48098  0.17353  1.0000
  H   H382      1.0  0.40994  0.42217  0.22697  1.0000
  H   H383      1.0  0.26047  0.46773  0.00922  1.0000
  H   H384      1.0  0.17180  0.45170  0.02606  1.0000
  C   C473      1.0  0.22920  0.34648  0.40748  1.0000
  H   H385      1.0  0.36293  0.26996  0.19918  1.0000
  C   C474      1.0  0.16433  0.30947  0.42654  1.0000
  C   C475      1.0  0.43917  0.28404  0.29324  1.0000
  H   H386      1.0  0.26626  0.34149  0.39807  1.0000
  H   H387      1.0  0.39563  0.41209  0.98338  1.0000
  C   C476      1.0  0.19124  0.32960  0.45363  1.0000
  H   H388      1.0  0.10935  0.27264  0.45601  1.0000
  H   H389      1.0  0.48205  0.47041  0.08432  1.0000
  C   C477      1.0  0.12559  0.46518  0.38080  1.0000
  C   C478      1.0  0.45002  0.29290  0.31641  1.0000
  C   C479      1.0  0.23932  0.44754  0.04646  1.0000
  C   C480      1.0  0.26895  0.44933  0.16874  1.0000
  C   C481      1.0  0.27000  0.43672  0.18074  1.0000
  C   C482      1.0  0.27113  0.42675  0.15507  1.0000
  C   C483      1.0  0.27151  0.42939  0.11743  1.0000
  C   C484      1.0  0.27154  0.44206  0.10533  1.0000
  C   C485      1.0  0.26968  0.45197  0.13119  1.0000
  P   P16       1.0  0.27049  0.44567  0.05704  1.0000
  C   C486      1.0  0.28601  0.43377  0.02972  1.0000
  H   H390      1.0  0.43007  0.29253  0.10797  1.0000
  H   H391      1.0  0.28138  0.36175  0.42249  1.0000
  H   H392      1.0  0.04473  0.44986  0.21561  1.0000
  S   S63       1.0  0.29619  0.48045  0.16191  1.0000
  C   C487      1.0  0.29442  0.25687  0.01565  1.0000
  H   H393      1.0  0.31244  0.42940  0.07155  1.0000
  C   C488      1.0  0.36100  0.27622  0.29108  1.0000
  C   C489      1.0  0.27091  0.30705  0.41887  1.0000
  C   C490      1.0  0.38685  0.42981  0.36835  1.0000
  C   C491      1.0  0.31968  0.41923  0.02152  1.0000
  C   C492      1.0  0.30633  0.42755  0.04378  1.0000
  C   C493      1.0  0.28647  0.46000  0.04751  1.0000
  C   C494      1.0  0.30912  0.46168  0.06271  1.0000
  C   C495      1.0  0.32277  0.47204  0.05228  1.0000
  C   C496      1.0  0.19058  0.45050  0.03197  1.0000
  C   C497      1.0  0.33669  0.27461  0.29676  1.0000
  C   C498      1.0  0.27764  0.46888  0.02199  1.0000
  H   H394      1.0  0.26842  0.45710  0.18855  1.0000
  H   H395      1.0  0.27028  0.43472  0.20993  1.0000
  H   H396      1.0  0.27189  0.41699  0.16443  1.0000
  H   H397      1.0  0.27193  0.42156  0.09793  1.0000
  C   C499      1.0  0.38806  0.41393  0.26920  1.0000
  C   C500      1.0  0.35061  0.25585  0.46985  1.0000
  C   C501      1.0  0.24317  0.31159  0.35633  1.0000
  C   C502      1.0  0.41250  0.25905  0.25784  1.0000
  H   H398      1.0  0.02863  0.46951  0.24451  1.0000
  C   C503      1.0  0.22725  0.45891  0.05608  1.0000
  H   H399      1.0  0.24344  0.24010  0.44026  1.0000
  H   H400      1.0  0.46793  0.29112  0.32623  1.0000
  C   C504      1.0  0.41928  0.43380  0.29634  1.0000
  C   C505      1.0  0.23261  0.23819  0.46415  1.0000
  S   S64       1.0  0.21931  0.29437  0.45989  1.0000
  P   P17       1.0  0.40783  0.41823  0.30633  1.0000
  C   C506      1.0  0.12872  0.46356  0.41864  1.0000
  C   C507      1.0  0.43822  0.39901  0.27896  1.0000
  C   C508      1.0  0.15301  0.48236  0.42090  1.0000
  H   H401      1.0  0.42841  0.39960  0.25343  1.0000
  H   H402      1.0  0.47115  0.44986  0.28837  1.0000
  H   H403      1.0  0.28907  0.26026  0.07360  1.0000
  H   H404      1.0  0.11519  0.45843  0.36528  1.0000
  C   C509      1.0  0.26242  0.36021  0.42115  1.0000
  H   H405      1.0  0.19454  0.35485  0.41863  1.0000
  C   C510      1.0  0.31110  0.25482  0.98771  1.0000
  C   C511      1.0  0.42262  0.24215  0.30066  1.0000
  C   C512      1.0  0.44536  0.40579  0.34177  1.0000
  C   C513      1.0  0.37571  0.42965  0.40263  1.0000
  C   C514      1.0  0.14212  0.47227  0.43904  1.0000
  C   C515      1.0  0.22232  0.36767  0.43323  1.0000
  H   H406      1.0  0.32340  0.25050  0.33949  1.0000
  C   C516      1.0  0.12363  0.24554  0.98741  1.0000
  C   C517      1.0  0.43689  0.46668  0.99510  1.0000
  H   H407      1.0  0.47135  0.48006  0.18166  1.0000
  H   H408      1.0  0.37070  0.43852  0.41624  1.0000
  C   C518      1.0  0.20304  0.46043  0.04843  1.0000
  C   C519      1.0  0.47025  0.38931  0.31410  1.0000
  H   H409      1.0  0.37181  0.23540  0.02250  1.0000
  H   H410      1.0  0.20222  0.33694  0.46539  1.0000
  H   H411      1.0  0.34476  0.26570  0.46733  1.0000
  C   C520      1.0  0.13611  0.47539  0.36304  1.0000
  H   H412      1.0  0.23516  0.42836  0.02533  1.0000
  H   H413      1.0  0.27563  0.25701  0.00922  1.0000
  H   H414      1.0  0.48796  0.45717  0.13906  1.0000
  H   H415      1.0  0.48181  0.47830  0.98935  1.0000
  C   C521      1.0  0.02612  0.48178  0.34044  1.0000
  H   H416      1.0  0.46790  0.43797  0.06248  1.0000
  C   C522      1.0  0.47564  0.43571  0.03595  1.0000
  H   H417      1.0  0.19249  0.43121  0.01144  1.0000
  H   H418      1.0  0.24772  0.48292  0.14042  1.0000
  H   H419      1.0  0.13371  0.47669  0.33375  1.0000
  C   C523      1.0  0.20795  0.23975  0.46226  1.0000
  H   H420      1.0  0.11005  0.23786  0.47333  1.0000
  H   H421      1.0  0.34158  0.23357  0.08308  1.0000
  H   H422      1.0  0.06913  0.27992  0.47630  1.0000
  Fe  Fe32      1.0  0.24757  0.27952  0.47352  1.0000
  H   H423      1.0  0.48497  0.38255  0.31600  1.0000
  S   S65       1.0  0.99241  0.30254  0.47630  1.0000
  H   H424      1.0  0.09572  0.47175  0.47761  1.0000
  H   H425      1.0  0.99379  0.41699  0.47836  1.0000
  H   H426      1.0  0.12356  0.25577  0.98364  1.0000
  C   C524      1.0  0.17447  0.32388  0.47607  1.0000
  Fe  Fe33      1.0  0.29537  0.39312  0.51595  1.0000
  S   S66       1.0  0.32735  0.40587  0.51327  1.0000
  S   S67       1.0  0.30103  0.37233  0.49790  1.0000
  Fe  Fe34      1.0  0.26306  0.41477  0.54328  1.0000
  S   S68       1.0  0.29251  0.42870  0.54237  1.0000
  S   S69       1.0  0.22484  0.41921  0.56105  1.0000
  Fe  Fe35      1.0  0.31520  0.41334  0.56859  1.0000
  S   S70       1.0  0.34129  0.41996  0.61349  1.0000
  S   S71       1.0  0.28491  0.39972  0.57284  1.0000
  H   H427      1.0  0.06237  0.46190  0.51005  1.0000
  S   S72       1.0  0.18131  0.47108  0.62732  1.0000
  Fe  Fe36      1.0  0.09163  0.46677  0.65666  1.0000
  S   S73       1.0  0.06867  0.44977  0.64055  1.0000
  P   P18       1.0  0.04505  0.24465  0.56285  1.0000
  S   S74       1.0  0.12483  0.46530  0.69136  1.0000
  Fe  Fe37      1.0  0.39524  0.41509  0.89218  1.0000
  S   S75       1.0  0.43436  0.41309  0.90240  1.0000
  S   S76       1.0  0.36960  0.42673  0.92819  1.0000
  Fe  Fe38      1.0  0.39908  0.40325  0.81404  1.0000
  S   S77       1.0  0.43888  0.40064  0.81901  1.0000
  S   S78       1.0  0.37586  0.39579  0.76661  1.0000
  Fe  Fe39      1.0  0.43140  0.39346  0.87640  1.0000
  S   S79       1.0  0.45245  0.37668  0.90188  1.0000
  Fe  Fe40      1.0  0.43882  0.42029  0.84493  1.0000
  S   S80       1.0  0.45933  0.43836  0.83267  1.0000
  S   S81       1.0  0.39175  0.39505  0.87020  1.0000
  S   S82       1.0  0.39954  0.42326  0.83582  1.0000
  Fe  Fe41      1.0  0.46436  0.27389  0.92222  1.0000
  H   H428      1.0  0.03605  0.40754  0.62142  1.0000
  S   S83       1.0  0.45713  0.25759  0.88215  1.0000
  C   C525      1.0  0.43136  0.36348  0.81497  1.0000
  S   S84       1.0  0.42947  0.31784  0.93228  1.0000
  C   C526      1.0  0.28916  0.46237  0.61620  1.0000
  C   C527      1.0  0.40531  0.24027  0.82334  1.0000
  C   C528      1.0  0.10764  0.27930  0.47871  1.0000
  H   H429      1.0  0.33686  0.26151  0.89053  1.0000
  Fe  Fe42      1.0  0.01419  0.29431  0.52277  1.0000
  S   S85       1.0  0.05379  0.29807  0.53458  1.0000
  Fe  Fe43      1.0  0.19507  0.28333  0.49713  1.0000
  S   S86       1.0  0.20536  0.29429  0.54762  1.0000
  H   H430      1.0  0.24745  0.45169  0.90895  1.0000
  Fe  Fe44      1.0  0.23119  0.30451  0.51163  1.0000
  Fe  Fe45      1.0  0.23433  0.27949  0.55512  1.0000
  S   S87       1.0  0.24220  0.27247  0.61303  1.0000
  C   C529      1.0  0.37290  0.27604  0.95299  1.0000
  C   C530      1.0  0.12566  0.29229  0.52569  1.0000
  C   C531      1.0  0.10279  0.29648  0.53693  1.0000
  C   C532      1.0  0.08213  0.29211  0.51931  1.0000
  H   H431      1.0  0.46784  0.41587  0.96285  1.0000
  C   C533      1.0  0.19403  0.23776  0.49343  1.0000
  H   H432      1.0  0.14122  0.29582  0.53960  1.0000
  H   H433      1.0  0.10109  0.30323  0.55942  1.0000
  C   C534      1.0  0.28417  0.23595  0.64208  1.0000
  C   C535      1.0  0.01922  0.27636  0.64242  1.0000
  C   C536      1.0  0.02237  0.24408  0.52778  1.0000
  C   C537      1.0  0.26461  0.24947  0.59618  1.0000
  C   C538      1.0  0.25918  0.25859  0.62314  1.0000
  C   C539      1.0  0.26647  0.25640  0.65954  1.0000
  C   C540      1.0  0.27917  0.24520  0.66894  1.0000
  H   H434      1.0  0.32181  0.45474  0.93364  1.0000
  H   H435      1.0  0.25898  0.25107  0.56815  1.0000
  H   H436      1.0  0.26216  0.26338  0.68064  1.0000
  H   H437      1.0  0.28440  0.24354  0.69714  1.0000
  C   C541      1.0  0.42969  0.25478  0.85971  1.0000
  H   H438      1.0  0.99667  0.36828  0.69728  1.0000
  H   H439      1.0  0.05565  0.36801  0.58870  1.0000
  C   C542      1.0  0.38889  0.25010  0.81643  1.0000
  C   C543      1.0  0.39249  0.26214  0.83247  1.0000
  C   C544      1.0  0.41263  0.26444  0.85444  1.0000
  C   C545      1.0  0.12717  0.45352  0.53836  1.0000
  H   H440      1.0  0.31975  0.25882  0.72252  1.0000
  H   H441      1.0  0.37975  0.26976  0.82759  1.0000
  H   H442      1.0  0.41522  0.27376  0.86650  1.0000
  C   C546      1.0  0.44512  0.36048  0.91135  1.0000
  C   C547      1.0  0.42308  0.35532  0.90229  1.0000
  C   C548      1.0  0.41865  0.34230  0.90882  1.0000
  C   C549      1.0  0.43601  0.33426  0.92491  1.0000
  C   C550      1.0  0.45780  0.33949  0.93471  1.0000
  C   C551      1.0  0.46237  0.35245  0.92771  1.0000
  H   H443      1.0  0.40954  0.36131  0.88985  1.0000
  H   H444      1.0  0.40164  0.33844  0.90132  1.0000
  P   P19       1.0  0.35686  0.25126  0.95981  1.0000
  C   C552      1.0  0.08048  0.45927  0.51714  1.0000
  H   H445      1.0  0.00252  0.26141  0.67241  1.0000
  H   H446      1.0  0.30881  0.41509  0.71822  1.0000
  H   H447      1.0  0.47994  0.46885  0.88284  1.0000
  C   C553      1.0  0.43095  0.45315  0.92869  1.0000
  C   C554      1.0  0.03879  0.44676  0.65311  1.0000
  C   C555      1.0  0.02818  0.45248  0.68390  1.0000
  C   C556      1.0  0.00524  0.44891  0.69491  1.0000
  C   C557      1.0  0.41462  0.24465  0.73224  1.0000
  H   H448      1.0  0.43816  0.23499  0.84979  1.0000
  C   C558      1.0  0.24427  0.35097  0.52732  1.0000
  H   H449      1.0  0.03796  0.45937  0.69980  1.0000
  H   H450      1.0  0.99603  0.23632  0.56415  1.0000
  C   C559      1.0  0.00410  0.40344  0.51994  1.0000
  C   C560      1.0  0.21294  0.43381  0.57875  1.0000
  C   C561      1.0  0.18960  0.43414  0.59249  1.0000
  C   C562      1.0  0.17946  0.44549  0.60698  1.0000
  C   C563      1.0  0.19255  0.45668  0.60761  1.0000
  C   C564      1.0  0.21563  0.45643  0.59302  1.0000
  C   C565      1.0  0.22586  0.44506  0.57888  1.0000
  H   H451      1.0  0.17939  0.42552  0.59230  1.0000
  H   H452      1.0  0.22568  0.46508  0.59276  1.0000
  H   H453      1.0  0.24359  0.44506  0.56756  1.0000
  C   C566      1.0  0.35108  0.41274  0.65532  1.0000
  C   C567      1.0  0.36866  0.41880  0.67639  1.0000
  C   C568      1.0  0.37667  0.41367  0.71009  1.0000
  C   C569      1.0  0.36685  0.40252  0.72372  1.0000
  C   C570      1.0  0.34941  0.39639  0.70252  1.0000
  C   C571      1.0  0.34170  0.40139  0.66845  1.0000
  H   H454      1.0  0.37641  0.42742  0.66628  1.0000
  H   H455      1.0  0.39079  0.41817  0.72518  1.0000
  H   H456      1.0  0.34186  0.38767  0.71243  1.0000
  H   H457      1.0  0.32829  0.39656  0.65254  1.0000
  H   H458      1.0  0.03031  0.33410  0.53615  1.0000
  C   C572      1.0  0.28185  0.35945  0.50678  1.0000
  C   C573      1.0  0.25949  0.36134  0.52268  1.0000
  H   H459      1.0  0.48221  0.28570  0.78727  1.0000
  C   C574      1.0  0.27430  0.47283  0.60769  1.0000
  H   H460      1.0  0.27983  0.46032  0.94768  1.0000
  C   C575      1.0  0.32966  0.26638  0.70989  1.0000
  C   C576      1.0  0.34554  0.27344  0.73098  1.0000
  C   C577      1.0  0.35845  0.28312  0.71478  1.0000
  C   C578      1.0  0.35552  0.28576  0.67741  1.0000
  C   C579      1.0  0.33972  0.27865  0.65586  1.0000
  C   C580      1.0  0.32657  0.26907  0.67261  1.0000
  P   P20       1.0  0.33519  0.28224  0.60775  1.0000
  C   C581      1.0  0.32794  0.26784  0.58290  1.0000
  C   C582      1.0  0.31084  0.29363  0.60369  1.0000
  C   C583      1.0  0.29081  0.29263  0.62628  1.0000
  C   C584      1.0  0.27183  0.30133  0.62305  1.0000
  C   C585      1.0  0.27272  0.31113  0.59741  1.0000
  C   C586      1.0  0.29246  0.31213  0.57458  1.0000
  C   C587      1.0  0.31125  0.30329  0.57716  1.0000
  C   C588      1.0  0.31216  0.26832  0.55306  1.0000
  C   C589      1.0  0.30645  0.25720  0.53389  1.0000
  C   C590      1.0  0.31661  0.24552  0.54425  1.0000
  C   C591      1.0  0.33260  0.24497  0.57359  1.0000
  C   C592      1.0  0.33838  0.25609  0.59276  1.0000
  C   C593      1.0  0.36216  0.28862  0.58895  1.0000
  C   C594      1.0  0.36792  0.30142  0.59545  1.0000
  C   C595      1.0  0.38862  0.30643  0.58072  1.0000
  C   C596      1.0  0.40384  0.29871  0.55961  1.0000
  C   C597      1.0  0.39839  0.28595  0.55328  1.0000
  C   C598      1.0  0.37765  0.28090  0.56788  1.0000
  H   H461      1.0  0.34777  0.27141  0.75994  1.0000
  H   H462      1.0  0.37066  0.28860  0.73131  1.0000
  H   H463      1.0  0.36557  0.29337  0.66568  1.0000
  H   H464      1.0  0.31392  0.26364  0.65684  1.0000
  H   H465      1.0  0.28942  0.28494  0.64574  1.0000
  H   H466      1.0  0.25613  0.30024  0.63978  1.0000
  H   H467      1.0  0.25783  0.31776  0.59445  1.0000
  H   H468      1.0  0.29284  0.31961  0.55429  1.0000
  H   H469      1.0  0.32583  0.30396  0.55805  1.0000
  H   H470      1.0  0.30408  0.27725  0.54467  1.0000
  C   C599      1.0  0.45068  0.35519  0.82085  1.0000
  H   H471      1.0  0.39666  0.23783  0.50251  1.0000
  C   C600      1.0  0.28401  0.45419  0.92450  1.0000
  H   H472      1.0  0.35075  0.25546  0.61551  1.0000
  H   H473      1.0  0.35632  0.30755  0.61179  1.0000
  H   H474      1.0  0.39279  0.31635  0.58560  1.0000
  H   H475      1.0  0.41985  0.30263  0.54816  1.0000
  H   H476      1.0  0.02270  0.40562  0.51756  1.0000
  H   H477      1.0  0.37382  0.27100  0.56259  1.0000
  C   C601      1.0  0.02794  0.34411  0.54312  1.0000
  C   C602      1.0  0.42237  0.25706  0.73792  1.0000
  H   H478      1.0  0.29488  0.46853  0.73775  1.0000
  H   H479      1.0  0.01610  0.24438  0.63020  1.0000
  C   C603      1.0  0.00445  0.38678  0.62178  1.0000
  C   C604      1.0  0.99980  0.23956  0.53662  1.0000
  C   C605      1.0  0.08473  0.28339  0.49023  1.0000
  C   C606      1.0  0.35948  0.26634  0.93677  1.0000
  C   C607      1.0  0.17002  0.26981  0.58162  1.0000
  C   C608      1.0  0.16842  0.27113  0.61970  1.0000
  H   H480      1.0  0.34013  0.23589  0.58204  1.0000
  H   H481      1.0  0.17085  0.26156  0.67164  1.0000
  C   C609      1.0  0.44697  0.31293  0.83632  1.0000
  C   C610      1.0  0.08485  0.45078  0.54584  1.0000
  C   C611      1.0  0.47879  0.30600  0.79577  1.0000
  C   C612      1.0  0.46072  0.24878  0.75743  1.0000
  C   C613      1.0  0.47211  0.29334  0.80032  1.0000
  S   S88       1.0  0.48946  0.26974  0.96910  1.0000
  H   H482      1.0  0.29392  0.25767  0.51124  1.0000
  C   C614      1.0  0.41099  0.34694  0.78174  1.0000
  H   H483      1.0  0.38597  0.29515  0.94768  1.0000
  C   C615      1.0  0.29342  0.42366  0.97037  1.0000
  C   C616      1.0  0.23500  0.47288  0.74057  1.0000
  H   H484      1.0  0.21067  0.46757  0.69742  1.0000
  H   H485      1.0  0.16671  0.27794  0.56417  1.0000
  H   H486      1.0  0.16447  0.28039  0.63180  1.0000
  C   C617      1.0  0.24335  0.23453  0.49716  1.0000
  C   C618      1.0  0.09000  0.25553  0.56230  1.0000
  H   H487      1.0  0.07017  0.44682  0.56088  1.0000
  H   H488      1.0  0.23462  0.44193  0.49256  1.0000
  H   H489      1.0  0.39665  0.36592  0.79101  1.0000
  C   C619      1.0  0.06994  0.41169  0.59900  1.0000
  H   H490      1.0  0.05889  0.38442  0.52879  1.0000
  H   H491      1.0  0.47550  0.23981  0.82779  1.0000
  H   H492      1.0  0.14829  0.24177  0.94333  1.0000
  C   C620      1.0  0.99244  0.43978  0.67489  1.0000
  C   C621      1.0  0.25122  0.33857  0.51640  1.0000
  H   H493      1.0  0.31185  0.23687  0.52987  1.0000
  H   H494      1.0  0.38409  0.26036  0.49488  1.0000
  C   C622      1.0  0.43032  0.33862  0.78744  1.0000
  C   C623      1.0  0.02576  0.43788  0.63252  1.0000
  H   H495      1.0  0.47943  0.35627  0.93509  1.0000
  C   C624      1.0  0.36392  0.28992  0.90178  1.0000
  S   S89       1.0  0.27136  0.40715  0.48637  1.0000
  C   C625      1.0  0.06500  0.47020  0.76827  1.0000
  C   C626      1.0  0.35004  0.28044  0.88590  1.0000
  C   C627      1.0  0.32752  0.47486  0.68437  1.0000
  H   H496      1.0  0.22695  0.35258  0.53941  1.0000
  C   C628      1.0  0.46617  0.31590  0.81362  1.0000
  H   H497      1.0  0.44830  0.28064  0.82725  1.0000
  C   C629      1.0  0.20470  0.23414  0.52682  1.0000
  H   H498      1.0  0.09456  0.45788  0.75421  1.0000
  H   H499      1.0  0.19673  0.47778  0.49361  1.0000
  C   C630      1.0  0.30210  0.45630  0.58799  1.0000
  C   C631      1.0  0.29963  0.46037  0.55163  1.0000
  C   C632      1.0  0.17994  0.24732  0.58803  1.0000
  C   C633      1.0  0.09943  0.46478  0.49874  1.0000
  H   H500      1.0  0.31406  0.44837  0.59404  1.0000
  H   H501      1.0  0.30950  0.45555  0.52987  1.0000
  S   S90       1.0  0.99619  0.27547  0.51901  1.0000
  C   C634      1.0  0.43881  0.47288  0.96115  1.0000
  H   H502      1.0  0.46676  0.34217  0.73687  1.0000
  H   H503      1.0  0.99742  0.45313  0.71932  1.0000
  H   H504      1.0  0.17035  0.47747  0.55542  1.0000
  H   H505      1.0  0.47112  0.33356  0.94789  1.0000
  C   C635      1.0  0.36994  0.47066  0.68336  1.0000
  Fe  Fe46      1.0  0.45362  0.30094  0.94955  1.0000
  C   C636      1.0  0.43593  0.46613  0.92816  1.0000
  C   C637      1.0  0.01365  0.26369  0.64922  1.0000
  C   C638      1.0  0.12831  0.28371  0.49628  1.0000
  H   H506      1.0  0.39557  0.34377  0.76664  1.0000
  C   C639      1.0  0.02830  0.45971  0.78279  1.0000
  H   H507      1.0  0.06134  0.34534  0.57156  1.0000
  C   C640      1.0  0.35854  0.23757  0.89413  1.0000
  H   H508      1.0  0.42878  0.44788  0.90312  1.0000
  C   C641      1.0  0.00388  0.36348  0.54205  1.0000
  C   C642      1.0  0.17479  0.46107  0.49026  1.0000
  C   C643      1.0  0.37269  0.25282  0.48543  1.0000
  C   C644      1.0  0.13754  0.23765  0.96468  1.0000
  H   H509      1.0  0.45149  0.26876  0.75453  1.0000
  C   C645      1.0  0.17202  0.26052  0.64207  1.0000
  C   C646      1.0  0.32331  0.46224  0.67353  1.0000
  C   C647      1.0  0.26580  0.44929  0.90269  1.0000
  C   C648      1.0  0.04469  0.39485  0.57566  1.0000
  P   P21       1.0  0.29353  0.45730  0.66304  1.0000
  C   C649      1.0  0.42839  0.44698  0.96221  1.0000
  H   H510      1.0  0.07023  0.23406  0.49904  1.0000
  C   C650      1.0  0.19643  0.46748  0.49241  1.0000
  H   H511      1.0  0.26322  0.47692  0.77863  1.0000
  C   C651      1.0  0.08702  0.40860  0.57249  1.0000
  S   S91       1.0  0.48106  0.29279  0.91053  1.0000
  H   H512      1.0  0.41029  0.26503  0.73317  1.0000
  H   H513      1.0  0.11143  0.44194  0.58019  1.0000
  H   H514      1.0  0.38796  0.47390  0.68698  1.0000
  H   H515      1.0  0.26474  0.47801  0.62894  1.0000
  H   H516      1.0  0.42595  0.29807  0.85932  1.0000
  C   C652      1.0  0.27668  0.46852  0.72833  1.0000
  Fe  Fe47      1.0  0.14300  0.47525  0.64532  1.0000
  Fe  Fe48      1.0  0.30263  0.42030  0.48707  1.0000
  H   H517      1.0  0.17503  0.23934  0.49161  1.0000
  C   C653      1.0  0.03937  0.44787  0.77640  1.0000
  H   H518      1.0  0.22107  0.47654  0.75850  1.0000
  H   H519      1.0  0.38075  0.45174  0.66599  1.0000
  C   C654      1.0  0.24987  0.43364  0.74646  1.0000
  C   C655      1.0  0.23597  0.42296  0.75195  1.0000
  C   C656      1.0  0.24202  0.41430  0.77953  1.0000
  C   C657      1.0  0.26214  0.41625  0.80133  1.0000
  C   C658      1.0  0.27663  0.42678  0.79526  1.0000
  C   C659      1.0  0.27001  0.43561  0.76817  1.0000
  P   P22       1.0  0.30262  0.42916  0.82363  1.0000
  C   C660      1.0  0.29502  0.43842  0.86406  1.0000
  C   C661      1.0  0.31491  0.41371  0.83571  1.0000
  C   C662      1.0  0.32243  0.41107  0.87174  1.0000
  C   C663      1.0  0.33132  0.39897  0.88066  1.0000
  C   C664      1.0  0.33291  0.38944  0.85374  1.0000
  C   C665      1.0  0.32568  0.39202  0.81780  1.0000
  C   C666      1.0  0.31675  0.40409  0.80877  1.0000
  C   C667      1.0  0.31318  0.44335  0.88622  1.0000
  C   C668      1.0  0.49046  0.44046  0.83133  1.0000
  C   C669      1.0  0.00549  0.37601  0.64445  1.0000
  C   C670      1.0  0.27125  0.44140  0.87259  1.0000
  C   C671      1.0  0.32440  0.43826  0.79923  1.0000
  C   C672      1.0  0.32124  0.45152  0.79619  1.0000
  C   C673      1.0  0.33860  0.45887  0.77959  1.0000
  C   C674      1.0  0.35939  0.45306  0.76640  1.0000
  C   C675      1.0  0.36265  0.43991  0.76922  1.0000
  C   C676      1.0  0.34522  0.43248  0.78533  1.0000
  H   H520      1.0  0.24515  0.44030  0.72496  1.0000
  H   H521      1.0  0.22051  0.42140  0.73477  1.0000
  H   H522      1.0  0.23114  0.40604  0.78388  1.0000
  H   H523      1.0  0.26646  0.40946  0.82268  1.0000
  H   H524      1.0  0.28052  0.44389  0.76313  1.0000
  H   H525      1.0  0.32193  0.41829  0.89300  1.0000
  H   H526      1.0  0.33775  0.39710  0.90823  1.0000
  H   H527      1.0  0.34049  0.38018  0.86042  1.0000
  H   H528      1.0  0.32784  0.38479  0.79656  1.0000
  H   H529      1.0  0.31173  0.40597  0.78058  1.0000
  H   H530      1.0  0.33169  0.44116  0.88018  1.0000
  H   H531      1.0  0.25690  0.43781  0.85585  1.0000
  H   H532      1.0  0.30552  0.45622  0.80726  1.0000
  H   H533      1.0  0.33620  0.46910  0.77765  1.0000
  H   H534      1.0  0.37319  0.45874  0.75449  1.0000
  H   H535      1.0  0.37904  0.43549  0.75975  1.0000
  H   H536      1.0  0.34852  0.42232  0.78764  1.0000
  C   C677      1.0  0.34273  0.45400  0.66648  1.0000
  H   H537      1.0  0.26249  0.23354  0.49880  1.0000
  C   C678      1.0  0.04115  0.47098  0.77910  1.0000
  H   H538      1.0  0.31507  0.43810  0.71188  1.0000
  C   C679      1.0  0.04002  0.26981  0.58709  1.0000
  C   C680      1.0  0.03231  0.27942  0.61129  1.0000
  H   H539      1.0  0.14826  0.30931  0.48007  1.0000
  H   H540      1.0  0.43161  0.37303  0.82632  1.0000
  H   H541      1.0  0.09627  0.39633  0.52689  1.0000
  H   H542      1.0  0.01280  0.28383  0.66071  1.0000
  H   H543      1.0  0.04952  0.27241  0.56250  1.0000
  H   H544      1.0  0.03612  0.28928  0.60541  1.0000
  S   S92       1.0  0.26074  0.29052  0.52290  1.0000
  H   H545      1.0  0.99225  0.40633  0.61785  1.0000
  S   S93       1.0  0.22268  0.26772  0.50695  1.0000
  H   H546      1.0  0.03359  0.43357  0.60827  1.0000
  H   H547      1.0  0.16166  0.44554  0.61808  1.0000
  C   C681      1.0  0.27368  0.33664  0.50079  1.0000
  C   C682      1.0  0.28421  0.47049  0.54320  1.0000
  H   H548      1.0  0.17701  0.25733  0.53625  1.0000
  C   C683      1.0  0.28887  0.34704  0.49598  1.0000
  H   H549      1.0  0.07504  0.47878  0.76434  1.0000
  C   C684      1.0  0.12294  0.46169  0.50858  1.0000
  S   S94       1.0  0.11077  0.47547  0.60876  1.0000
  H   H550      1.0  0.14503  0.45178  0.54848  1.0000
  H   H551      1.0  0.25788  0.41621  0.63011  1.0000
  H   H552      1.0  0.26445  0.43911  0.62279  1.0000
  H   H553      1.0  0.24200  0.45904  0.65667  1.0000
  C   C685      1.0  0.48526  0.33932  0.73888  1.0000
  C   C686      1.0  0.24696  0.46316  0.68287  1.0000
  C   C687      1.0  0.04541  0.35046  0.56307  1.0000
  P   P23       1.0  0.01690  0.38641  0.57607  1.0000
  C   C688      1.0  0.10818  0.44795  0.55654  1.0000
  P   P24       1.0  0.47606  0.33216  0.81143  1.0000
  C   C689      1.0  0.27043  0.42099  0.64791  1.0000
  C   C690      1.0  0.27430  0.43399  0.64362  1.0000
  C   C691      1.0  0.17585  0.25800  0.56581  1.0000
  S   S95       1.0  0.15680  0.27796  0.48090  1.0000
  H   H554      1.0  0.31287  0.48159  0.68780  1.0000
  C   C692      1.0  0.07608  0.45835  0.76232  1.0000
  S   S96       1.0  0.36357  0.24772  0.78838  1.0000
  C   C693      1.0  0.06188  0.39190  0.54883  1.0000
  C   C694      1.0  0.28291  0.41416  0.67474  1.0000
  C   C695      1.0  0.29071  0.44028  0.66605  1.0000
  C   C696      1.0  0.27093  0.46377  0.69332  1.0000
  H   H555      1.0  0.34124  0.28212  0.85984  1.0000
  H   H556      1.0  0.28034  0.40401  0.67740  1.0000
  H   H557      1.0  0.34008  0.44444  0.65600  1.0000
  H   H558      1.0  0.30610  0.34549  0.48352  1.0000
  C   C697      1.0  0.07420  0.24738  0.54429  1.0000
  H   H559      1.0  0.48717  0.42865  0.65400  1.0000
  C   C698      1.0  0.02140  0.25406  0.62513  1.0000
  H   H560      1.0  0.10333  0.41391  0.57140  1.0000
  H   H561      1.0  0.42969  0.32907  0.77614  1.0000
  C   C699      1.0  0.34773  0.26870  0.90335  1.0000
  S   S97       1.0  0.23096  0.32599  0.52275  1.0000
  C   C700      1.0  0.41155  0.35940  0.79541  1.0000
  C   C701      1.0  0.27667  0.23810  0.60577  1.0000
  C   C702      1.0  0.40637  0.24984  0.95901  1.0000
  C   C703      1.0  0.29894  0.42040  0.69771  1.0000
  C   C704      1.0  0.30272  0.43343  0.69362  1.0000
  C   C705      1.0  0.37984  0.24006  0.48939  1.0000
  C   C706      1.0  0.44030  0.30028  0.84075  1.0000
  C   C707      1.0  0.11968  0.25123  0.51561  1.0000
  H   H562      1.0  0.00961  0.45997  0.78950  1.0000
  H   H563      1.0  0.08504  0.26048  0.58737  1.0000
  C   C708      1.0  0.02152  0.37001  0.56156  1.0000
  C   C709      1.0  0.10442  0.24274  0.49823  1.0000
  H   H564      1.0  0.07294  0.41946  0.61827  1.0000
  H   H565      1.0  0.25379  0.37083  0.53095  1.0000
  C   C710      1.0  0.36592  0.45818  0.67168  1.0000
  C   C711      1.0  0.99631  0.37665  0.68013  1.0000
  C   C712      1.0  0.25876  0.47313  0.75177  1.0000
  C   C713      1.0  0.21793  0.46060  0.49307  1.0000
  C   C714      1.0  0.04218  0.36333  0.57246  1.0000
  H   H566      1.0  0.17263  0.32693  0.50446  1.0000
  C   C715      1.0  0.42558  0.24263  0.84480  1.0000
  H   H567      1.0  0.48964  0.45198  0.92690  1.0000
  H   H568      1.0  0.37311  0.24365  0.88697  1.0000
  C   C716      1.0  0.30766  0.45111  0.91648  1.0000
  S   S98       1.0  0.43561  0.28201  0.95808  1.0000
  C   C717      1.0  0.22912  0.46784  0.70617  1.0000
  H   H569      1.0  0.40552  0.25539  0.93407  1.0000
  C   C718      1.0  0.45261  0.23624  0.75376  1.0000
  H   H570      1.0  0.42396  0.43697  0.96252  1.0000
  H   H571      1.0  0.41024  0.27995  0.53700  1.0000
  H   H572      1.0  0.36596  0.29897  0.88813  1.0000
  H   H573      1.0  0.43740  0.47093  0.90208  1.0000
  H   H574      1.0  0.44461  0.24983  0.96016  1.0000
  C   C719      1.0  0.02631  0.24901  0.49258  1.0000
  C   C720      1.0  0.21800  0.44730  0.49125  1.0000
  H   H575      1.0  0.07170  0.43804  0.76050  1.0000
  C   C721      1.0  0.19657  0.44087  0.48877  1.0000
  C   C722      1.0  0.45039  0.34268  0.80707  1.0000
  H   H576      1.0  0.99348  0.34562  0.51774  1.0000
  C   C723      1.0  0.45291  0.29048  0.82282  1.0000
  C   C724      1.0  0.04891  0.40484  0.60067  1.0000
  H   H577      1.0  0.99268  0.42785  0.62677  1.0000
  C   C725      1.0  0.34718  0.23902  0.92821  1.0000
  H   H578      1.0  0.39664  0.24309  0.72295  1.0000
  H   H579      1.0  0.13884  0.23375  0.59882  1.0000
  C   C726      1.0  0.37522  0.28775  0.93540  1.0000
  H   H580      1.0  0.43760  0.32037  0.85158  1.0000
  C   C727      1.0  0.11250  0.25756  0.54769  1.0000
  H   H581      1.0  0.48786  0.31767  0.87857  1.0000
  H   H582      1.0  0.04291  0.25342  0.48577  1.0000
  C   C728      1.0  0.06325  0.44719  0.76618  1.0000
  C   C729      1.0  0.03520  0.25702  0.59436  1.0000
  C   C730      1.0  0.35075  0.47901  0.68969  1.0000
  C   C731      1.0  0.44548  0.25913  0.75019  1.0000
  C   C732      1.0  0.99379  0.39805  0.63517  1.0000
  H   H583      1.0  0.02922  0.43923  0.77831  1.0000
  C   C733      1.0  0.38559  0.24621  0.97711  1.0000
  H   H584      1.0  0.47865  0.25065  0.76628  1.0000
  H   H585      1.0  0.23458  0.46553  0.49538  1.0000
  H   H586      1.0  0.46551  0.35864  0.83664  1.0000
  H   H587      1.0  0.13690  0.25312  0.50385  1.0000
  H   H588      1.0  0.30498  0.25356  0.95969  1.0000
  H   H589      1.0  0.28887  0.42242  0.94166  1.0000
  H   H590      1.0  0.27935  0.32718  0.49236  1.0000
  H   H591      1.0  0.12411  0.26435  0.56069  1.0000
  C   C734      1.0  0.08182  0.24072  0.51270  1.0000
  C   C735      1.0  0.00722  0.35063  0.53263  1.0000
  C   C736      1.0  0.08300  0.39870  0.54745  1.0000
  C   C737      1.0  0.42962  0.23427  0.74004  1.0000
  H   H592      1.0  0.00936  0.47810  0.71321  1.0000
  P   P25       1.0  0.14709  0.46996  0.48749  1.0000
  H   H593      1.0  0.15868  0.44255  0.48536  1.0000
  H   H594      1.0  0.00107  0.30825  0.65833  1.0000
  C   C738      1.0  0.99627  0.39451  0.54559  1.0000
  H   H595      1.0  0.06334  0.23757  0.63513  1.0000
  C   C739      1.0  0.00261  0.43453  0.64306  1.0000
  H   H596      1.0  0.17970  0.24051  0.64420  1.0000
  C   C740      1.0  0.27161  0.47675  0.57123  1.0000
  H   H597      1.0  0.01303  0.36709  0.63467  1.0000
  H   H598      1.0  0.28214  0.47348  0.51492  1.0000
  C   C741      1.0  0.37386  0.42892  0.97608  1.0000
  H   H599      1.0  0.22326  0.23710  0.62332  1.0000
  C   C742      1.0  0.42864  0.24662  0.97356  1.0000
  C   C743      1.0  0.17505  0.44771  0.48778  1.0000
  H   H600      1.0  0.00844  0.47732  0.85369  1.0000
  H   H601      1.0  0.19676  0.43054  0.48829  1.0000
  C   C744      1.0  0.17742  0.24863  0.62633  1.0000
  C   C745      1.0  0.99341  0.47979  0.83635  1.0000
  H   H602      1.0  0.32444  0.41134  0.96726  1.0000
  H   H603      1.0  0.06871  0.48191  0.83363  1.0000
  H   H604      1.0  0.48677  0.46021  0.81630  1.0000
  H   H605      1.0  0.35243  0.44613  0.97827  1.0000
  C   C746      1.0  0.02405  0.61900  0.30431  1.0000
  S   S99       1.0  0.03503  0.52247  0.33403  1.0000
  Fe  Fe49      1.0  0.03223  0.55677  0.37521  1.0000
  S   S100      1.0  0.06601  0.54492  0.37141  1.0000
  S   S101      1.0  0.03756  0.57689  0.39828  1.0000
  Fe  Fe50      1.0  0.05430  0.53969  0.31380  1.0000
  S   S102      1.0  0.08224  0.54220  0.26801  1.0000
  Fe  Fe51      1.0  0.04435  0.52869  0.39207  1.0000
  S   S103      1.0  0.05639  0.51289  0.43203  1.0000
  S   S104      1.0  0.02175  0.55245  0.31689  1.0000
  S   S105      1.0  0.01118  0.54079  0.39945  1.0000
  Fe  Fe52      1.0  0.13350  0.53206  0.05783  1.0000
  S   S106      1.0  0.16697  0.54279  0.06848  1.0000
  S   S107      1.0  0.10674  0.52533  0.10147  1.0000
  Fe  Fe53      1.0  0.15645  0.55444  0.01924  1.0000
  C   C747      1.0  0.02993  0.49494  0.26950  1.0000
  Fe  Fe54      1.0  0.18783  0.52854  0.02978  1.0000
  S   S108      1.0  0.24464  0.51494  0.04160  1.0000
  S   S109      1.0  0.12212  0.54422  0.01005  1.0000
  S   S110      1.0  0.15200  0.51767  0.02059  1.0000
  H   H606      1.0  0.00519  0.49306  0.42257  1.0000
  Fe  Fe55      1.0  0.12869  0.71627  0.23932  1.0000
  S   S111      1.0  0.09264  0.70806  0.23112  1.0000
  S   S112      1.0  0.16322  0.70972  0.21156  1.0000
  Fe  Fe56      1.0  0.08790  0.71025  0.29247  1.0000
  S   S113      1.0  0.07751  0.69405  0.33087  1.0000
  S   S114      1.0  0.12531  0.71697  0.30098  1.0000
  H   H607      1.0  0.45120  0.72008  0.05764  1.0000
  S   S115      1.0  0.46443  0.65650  0.09960  1.0000
  H   H608      1.0  0.99587  0.51499  0.19616  1.0000
  S   S116      1.0  0.47182  0.67492  0.02795  1.0000
  H   H609      1.0  0.35467  0.50390  0.06870  1.0000
  Fe  Fe57      1.0  0.45043  0.65750  0.04168  1.0000
  S   S117      1.0  0.41230  0.65271  0.02236  1.0000
  S   S118      1.0  0.47906  0.64404  0.01991  1.0000
  C   C748      1.0  0.42632  0.61948  0.07266  1.0000
  Fe  Fe58      1.0  0.21083  0.66308  0.05012  1.0000
  S   S119      1.0  0.17813  0.66754  0.08559  1.0000
  H   H610      1.0  0.38733  0.66657  0.08261  1.0000
  C   C749      1.0  0.41190  0.59135  0.98699  1.0000
  S   S120      1.0  0.23953  0.64816  0.05984  1.0000
  C   C750      1.0  0.14140  0.64083  0.02545  1.0000
  H   H611      1.0  0.24760  0.70381  0.05366  1.0000
  C   C751      1.0  0.38163  0.65629  0.03209  1.0000
  H   H612      1.0  0.99489  0.70531  0.36526  1.0000
  C   C752      1.0  0.02692  0.50337  0.20754  1.0000
  C   C753      1.0  0.33224  0.66147  0.04484  1.0000
  H   H613      1.0  0.21772  0.56931  0.15901  1.0000
  C   C754      1.0  0.37424  0.66320  0.06323  1.0000
  C   C755      1.0  0.17065  0.60080  0.02282  1.0000
  C   C756      1.0  0.08090  0.50473  0.30038  1.0000
  H   H614      1.0  0.36942  0.64663  0.98328  1.0000
  Fe  Fe59      1.0  0.07962  0.72857  0.22706  1.0000
  C   C757      1.0  0.05056  0.69247  0.35560  1.0000
  C   C758      1.0  0.04828  0.68225  0.38008  1.0000
  C   C759      1.0  0.02690  0.68032  0.39915  1.0000
  C   C760      1.0  0.00744  0.68857  0.39374  1.0000
  C   C761      1.0  0.00983  0.69889  0.36967  1.0000
  C   C762      1.0  0.03127  0.70086  0.35078  1.0000
  H   H615      1.0  0.06298  0.67567  0.38398  1.0000
  H   H616      1.0  0.02533  0.67233  0.41746  1.0000
  C   C763      1.0  0.41220  0.59443  0.02460  1.0000
  H   H617      1.0  0.03272  0.70874  0.33200  1.0000
  C   C764      1.0  0.16697  0.69790  0.17669  1.0000
  C   C765      1.0  0.14918  0.68927  0.16789  1.0000
  C   C766      1.0  0.15316  0.67987  0.14055  1.0000
  C   C767      1.0  0.17468  0.67919  0.12102  1.0000
  C   C768      1.0  0.19250  0.68780  0.12986  1.0000
  C   C769      1.0  0.18871  0.69700  0.15781  1.0000
  H   H618      1.0  0.13243  0.68979  0.18233  1.0000
  H   H619      1.0  0.13932  0.67321  0.13414  1.0000
  H   H620      1.0  0.20920  0.68734  0.11529  1.0000
  H   H621      1.0  0.20273  0.70349  0.16485  1.0000
  C   C770      1.0  0.45348  0.55747  0.11241  1.0000
  C   C771      1.0  0.02282  0.48993  0.37086  1.0000
  H   H622      1.0  0.47088  0.57701  0.00878  1.0000
  H   H623      1.0  0.08618  0.71309  0.14284  1.0000
  H   H624      1.0  0.01189  0.62596  0.29247  1.0000
  H   H625      1.0  0.32829  0.69002  0.02515  1.0000
  C   C772      1.0  0.37077  0.49848  0.06269  1.0000
  H   H626      1.0  0.16449  0.53257  0.17192  1.0000
  H   H627      1.0  0.19751  0.50303  0.99882  1.0000
  H   H628      1.0  0.48242  0.66867  0.18790  1.0000
  H   H629      1.0  0.10960  0.67334  0.38132  1.0000
  C   C773      1.0  0.47340  0.50021  0.17114  1.0000
  C   C774      1.0  0.46069  0.51171  0.16806  1.0000
  C   C775      1.0  0.43577  0.51163  0.17058  1.0000
  C   C776      1.0  0.42368  0.50023  0.17711  1.0000
  H   H630      1.0  0.41799  0.48491  0.10644  1.0000
  C   C777      1.0  0.14500  0.63899  0.98775  1.0000
  H   H631      1.0  0.41589  0.55461  0.10801  1.0000
  H   H632      1.0  0.45820  0.61702  0.16689  1.0000
  C   C778      1.0  0.25876  0.50386  0.07180  1.0000
  C   C779      1.0  0.28372  0.50360  0.07404  1.0000
  C   C780      1.0  0.18702  0.61050  0.01592  1.0000
  H   H633      1.0  0.36480  0.49809  0.00424  1.0000
  H   H634      1.0  0.29381  0.50966  0.05624  1.0000
  H   H635      1.0  0.10451  0.64074  0.46425  1.0000
  C   C781      1.0  0.08772  0.53759  0.22117  1.0000
  C   C782      1.0  0.07649  0.52734  0.20401  1.0000
  C   C783      1.0  0.08250  0.52376  0.16752  1.0000
  C   C784      1.0  0.09966  0.53041  0.14742  1.0000
  C   C785      1.0  0.11063  0.54075  0.16444  1.0000
  C   C786      1.0  0.10475  0.54426  0.20100  1.0000
  H   H636      1.0  0.06329  0.52216  0.21895  1.0000
  H   H637      1.0  0.07373  0.51580  0.15467  1.0000
  H   H638      1.0  0.12348  0.54612  0.14928  1.0000
  H   H639      1.0  0.11319  0.55234  0.21371  1.0000
  C   C787      1.0  0.01682  0.58936  0.40873  1.0000
  H   H640      1.0  0.40808  0.57465  0.07473  1.0000
  H   H641      1.0  0.48868  0.64570  0.17313  1.0000
  C   C788      1.0  0.46410  0.59719  0.01798  1.0000
  C   C789      1.0  0.02512  0.60081  0.42411  1.0000
  H   H642      1.0  0.10632  0.51979  0.29880  1.0000
  H   H643      1.0  0.16037  0.72766  0.15738  1.0000
  H   H644      1.0  0.04393  0.60196  0.42849  1.0000
  H   H645      1.0  0.16404  0.48895  0.43598  1.0000
  C   C790      1.0  0.07659  0.71346  0.01244  1.0000
  C   C791      1.0  0.08183  0.66535  0.26853  1.0000
  C   C792      1.0  0.08513  0.65860  0.23569  1.0000
  C   C793      1.0  0.07720  0.64610  0.23253  1.0000
  C   C794      1.0  0.06596  0.64034  0.26221  1.0000
  C   C795      1.0  0.06266  0.64705  0.29541  1.0000
  C   C796      1.0  0.07069  0.65962  0.29824  1.0000
  P   P26       1.0  0.04813  0.63971  0.33403  1.0000
  C   C797      1.0  0.04369  0.62293  0.32508  1.0000
  C   C798      1.0  0.06590  0.64084  0.37536  1.0000
  C   C799      1.0  0.08940  0.64513  0.37451  1.0000
  C   C800      1.0  0.10316  0.64520  0.40658  1.0000
  C   C801      1.0  0.09386  0.64067  0.43942  1.0000
  C   C802      1.0  0.07086  0.63594  0.44010  1.0000
  C   C803      1.0  0.05683  0.63624  0.40846  1.0000
  C   C804      1.0  0.05923  0.61368  0.33988  1.0000
  C   C805      1.0  0.05470  0.60073  0.33497  1.0000
  C   C806      1.0  0.11922  0.62082  0.98857  1.0000
  H   H646      1.0  0.05959  0.73037  0.41229  1.0000
  C   C807      1.0  0.15627  0.49098  0.15452  1.0000
  H   H647      1.0  0.14569  0.73093  0.44041  1.0000
  H   H648      1.0  0.12114  0.64869  0.40584  1.0000
  C   C808      1.0  0.09107  0.58902  0.44141  1.0000
  H   H649      1.0  0.38155  0.49731  0.11944  1.0000
  H   H650      1.0  0.08782  0.67510  0.27102  1.0000
  H   H651      1.0  0.09380  0.66309  0.21273  1.0000
  H   H652      1.0  0.07973  0.64086  0.20702  1.0000
  H   H653      1.0  0.05997  0.63066  0.25905  1.0000
  Fe  Fe60      1.0  0.22995  0.64055  0.00389  1.0000
  H   H654      1.0  0.09737  0.64824  0.34923  1.0000
  H   H655      1.0  0.11539  0.60353  0.42548  1.0000
  H   H656      1.0  0.03442  0.50459  0.18041  1.0000
  H   H657      1.0  0.03909  0.63256  0.40961  1.0000
  H   H658      1.0  0.07460  0.61637  0.35577  1.0000
  H   H659      1.0  0.06624  0.59358  0.34736  1.0000
  H   H660      1.0  0.32655  0.65129  0.99417  1.0000
  C   C809      1.0  0.28273  0.48861  0.12462  1.0000
  C   C810      1.0  0.43646  0.48881  0.18156  1.0000
  H   H661      1.0  0.23878  0.71429  0.11350  1.0000
  C   C811      1.0  0.13633  0.71620  0.09151  1.0000
  C   C812      1.0  0.01364  0.65936  0.33036  1.0000
  C   C813      1.0  0.18613  0.72041  0.07001  1.0000
  C   C814      1.0  0.10717  0.51009  0.35073  1.0000
  H   H662      1.0  0.48571  0.51182  0.08594  1.0000
  C   C815      1.0  0.12679  0.73050  0.43550  1.0000
  C   C816      1.0  0.09747  0.50042  0.37172  1.0000
  C   C817      1.0  0.41829  0.69834  0.01058  1.0000
  H   H663      1.0  0.15397  0.60318  0.03603  1.0000
  C   C818      1.0  0.21189  0.54974  0.14392  1.0000
  C   C819      1.0  0.38590  0.49479  0.09127  1.0000
  H   H664      1.0  0.40712  0.68047  0.03317  1.0000
  C   C820      1.0  0.10731  0.68617  0.46773  1.0000
  H   H665      1.0  0.15226  0.70087  0.05941  1.0000
  H   H666      1.0  0.42580  0.52049  0.16831  1.0000
  C   C821      1.0  0.13069  0.68892  0.40024  1.0000
  C   C822      1.0  0.44113  0.71158  0.05225  1.0000
  C   C823      1.0  0.19620  0.58244  0.09402  1.0000
  C   C824      1.0  0.21055  0.57332  0.07634  1.0000
  C   C825      1.0  0.23509  0.57492  0.07478  1.0000
  C   C826      1.0  0.24523  0.58576  0.09044  1.0000
  C   C827      1.0  0.23078  0.59525  0.10677  1.0000
  C   C828      1.0  0.20623  0.59335  0.10927  1.0000
  P   P27       1.0  0.24409  0.60893  0.12834  1.0000
  C   C829      1.0  0.25623  0.60324  0.17114  1.0000
  C   C830      1.0  0.26608  0.61635  0.10004  1.0000
  C   C831      1.0  0.27975  0.62623  0.11480  1.0000
  C   C832      1.0  0.29552  0.63279  0.09252  1.0000
  C   C833      1.0  0.29756  0.62964  0.05531  1.0000
  C   C834      1.0  0.28381  0.61996  0.04031  1.0000
  C   C835      1.0  0.26802  0.61338  0.06250  1.0000
  C   C836      1.0  0.28086  0.60210  0.17649  1.0000
  C   C837      1.0  0.28993  0.59731  0.20953  1.0000
  C   C838      1.0  0.27449  0.59347  0.23717  1.0000
  C   C839      1.0  0.24996  0.59435  0.23173  1.0000
  C   C840      1.0  0.24083  0.59915  0.19875  1.0000
  C   C841      1.0  0.22215  0.62139  0.13576  1.0000
  C   C842      1.0  0.22082  0.62805  0.16934  1.0000
  C   C843      1.0  0.20449  0.63814  0.17382  1.0000
  C   C844      1.0  0.18960  0.64171  0.14477  1.0000
  C   C845      1.0  0.19110  0.63524  0.11114  1.0000
  C   C846      1.0  0.20745  0.62519  0.10653  1.0000
  H   H667      1.0  0.17715  0.58116  0.09501  1.0000
  H   H668      1.0  0.20246  0.56514  0.06341  1.0000
  H   H669      1.0  0.24617  0.56783  0.06101  1.0000
  H   H670      1.0  0.26429  0.58683  0.08932  1.0000
  H   H671      1.0  0.19467  0.60026  0.12271  1.0000
  H   H672      1.0  0.27769  0.62913  0.14325  1.0000
  H   H673      1.0  0.30553  0.64067  0.10361  1.0000
  H   H674      1.0  0.30918  0.63501  0.03787  1.0000
  H   H675      1.0  0.28452  0.61793  0.01108  1.0000
  H   H676      1.0  0.25664  0.60643  0.04972  1.0000
  H   H677      1.0  0.29312  0.60478  0.15518  1.0000
  H   H678      1.0  0.30896  0.59651  0.21363  1.0000
  H   H679      1.0  0.28156  0.58974  0.26273  1.0000
  H   H680      1.0  0.23799  0.59127  0.25304  1.0000
  H   H681      1.0  0.22178  0.59970  0.19473  1.0000
  H   H682      1.0  0.23270  0.62573  0.19178  1.0000
  H   H683      1.0  0.20371  0.64342  0.19950  1.0000
  H   H684      1.0  0.17737  0.64973  0.14795  1.0000
  H   H685      1.0  0.18017  0.63832  0.08823  1.0000
  H   H686      1.0  0.20909  0.62058  0.07988  1.0000
  S   S121      1.0  0.19970  0.65446  0.99598  1.0000
  H   H687      1.0  0.22696  0.49578  0.09329  1.0000
  C   C847      1.0  0.44877  0.61758  0.14099  1.0000
  H   H688      1.0  0.22380  0.54334  0.07007  1.0000
  Fe  Fe61      1.0  0.26445  0.66112  0.02967  1.0000
  C   C848      1.0  0.47227  0.56547  0.10441  1.0000
  H   H689      1.0  0.12437  0.63393  0.07409  1.0000
  C   C849      1.0  0.20351  0.72040  0.09773  1.0000
  C   C850      1.0  0.46540  0.49635  0.06374  1.0000
  H   H690      1.0  0.18019  0.57152  0.19421  1.0000
  H   H691      1.0  0.22862  0.54895  0.12959  1.0000
  C   C851      1.0  0.34981  0.66577  0.06946  1.0000
  C   C852      1.0  0.19572  0.49974  0.15423  1.0000
  H   H692      1.0  0.02629  0.66494  0.31558  1.0000
  C   C853      1.0  0.46133  0.48884  0.17816  1.0000
  C   C854      1.0  0.13759  0.70383  0.07667  1.0000
  C   C855      1.0  0.12008  0.69502  0.08464  1.0000
  H   H693      1.0  0.12857  0.50306  0.13224  1.0000
  H   H694      1.0  0.29421  0.52623  0.13109  1.0000
  H   H695      1.0  0.10325  0.49905  0.39987  1.0000
  C   C856      1.0  0.00925  0.61078  0.43404  1.0000
  H   H696      1.0  0.03219  0.49880  0.37300  1.0000
  H   H697      1.0  0.47712  0.56232  0.29998  1.0000
  C   C857      1.0  0.01959  0.60603  0.29950  1.0000
  H   H698      1.0  0.18282  0.62025  0.02351  1.0000
  H   H699      1.0  0.14823  0.70470  0.42584  1.0000
  H   H700      1.0  0.22151  0.51601  0.20038  1.0000
  C   C858      1.0  0.43616  0.62868  0.13184  1.0000
  H   H701      1.0  0.29739  0.51714  0.19365  1.0000
  H   H702      1.0  0.21448  0.49828  0.15899  1.0000
  C   C859      1.0  0.29568  0.49602  0.10034  1.0000
  H   H703      1.0  0.42453  0.68438  0.09446  1.0000
  H   H704      1.0  0.13921  0.69020  0.37386  1.0000
  H   H705      1.0  0.15535  0.52057  0.11765  1.0000
  H   H706      1.0  0.08837  0.69140  0.11559  1.0000
  H   H707      1.0  0.08926  0.67065  0.44071  1.0000
  P   P28       1.0  0.43989  0.59497  0.04967  1.0000
  H   H708      1.0  0.40459  0.50037  0.18012  1.0000
  C   C860      1.0  0.21334  0.70843  0.03039  1.0000
  S   S122      1.0  0.99807  0.65479  0.47123  1.0000
  H   H709      1.0  0.19189  0.50428  0.06900  1.0000
  H   H710      1.0  0.48283  0.54074  0.27263  1.0000
  C   C861      1.0  0.07948  0.49288  0.35714  1.0000
  H   H711      1.0  0.03109  0.58683  0.31221  1.0000
  C   C862      1.0  0.06226  0.71982  0.03835  1.0000
  C   C863      1.0  0.36245  0.69214  0.99942  1.0000
  H   H712      1.0  0.12149  0.68544  0.07345  1.0000
  H   H713      1.0  0.13179  0.72313  0.38064  1.0000
  H   H714      1.0  0.06605  0.57612  0.46358  1.0000
  Fe  Fe62      1.0  0.48796  0.67280  0.08459  1.0000
  C   C864      1.0  0.36407  0.65195  0.00754  1.0000
  C   C865      1.0  0.36912  0.59424  0.98564  1.0000
  H   H715      1.0  0.07392  0.70341  0.45171  1.0000
  Fe  Fe63      1.0  0.00317  0.53544  0.34061  1.0000
  C   C866      1.0  0.01924  0.64700  0.34265  1.0000
  C   C867      1.0  0.20880  0.60751  0.99935  1.0000
  C   C868      1.0  0.11898  0.72605  0.40133  1.0000
  C   C869      1.0  0.10154  0.69835  0.10845  1.0000
  H   H716      1.0  0.12056  0.51619  0.36245  1.0000
  S   S123      1.0  0.23613  0.67669  0.02450  1.0000
  S   S124      1.0  0.15424  0.57628  0.02218  1.0000
  C   C870      1.0  0.17017  0.55210  0.18462  1.0000
  H   H717      1.0  0.99945  0.70695  0.47321  1.0000
  S   S125      1.0  0.17636  0.54179  0.97997  1.0000
  C   C871      1.0  0.05910  0.70135  0.46942  1.0000
  C   C872      1.0  0.99247  0.58813  0.40256  1.0000
  H   H718      1.0  0.34446  0.67118  0.09355  1.0000
  C   C873      1.0  0.22561  0.71446  0.09175  1.0000
  C   C874      1.0  0.10260  0.67787  0.43826  1.0000
  H   H719      1.0  0.35276  0.59961  0.03703  1.0000
  H   H720      1.0  0.32408  0.48905  0.01978  1.0000
  C   C875      1.0  0.03481  0.59690  0.31507  1.0000
  H   H721      1.0  0.26093  0.51238  0.22849  1.0000
  C   C876      1.0  0.42494  0.62963  0.09771  1.0000
  C   C877      1.0  0.20595  0.56131  0.16113  1.0000
  C   C878      1.0  0.18494  0.56254  0.18109  1.0000
  H   H722      1.0  0.25515  0.52968  0.10249  1.0000
  S   S126      1.0  0.30162  0.66545  0.05388  1.0000
  C   C879      1.0  0.17608  0.54049  0.16760  1.0000
  H   H723      1.0  0.48270  0.58296  0.07976  1.0000
  H   H724      1.0  0.07203  0.48557  0.37419  1.0000
  C   C880      1.0  0.07051  0.49522  0.32170  1.0000
  C   C881      1.0  0.17563  0.58806  0.01268  1.0000
  H   H725      1.0  0.15429  0.67051  0.00825  1.0000
  C   C882      1.0  0.24600  0.49597  0.09501  1.0000
  H   H726      1.0  0.15416  0.55297  0.20088  1.0000
  C   C883      1.0  0.10035  0.71056  0.12390  1.0000
  C   C884      1.0  0.19681  0.53924  0.14631  1.0000
  C   C885      1.0  0.14153  0.67702  0.99577  1.0000
  H   H727      1.0  0.01781  0.73023  0.98192  1.0000
  H   H728      1.0  0.07454  0.50688  0.27308  1.0000
  C   C886      1.0  0.20239  0.51155  0.01368  1.0000
  C   C887      1.0  0.21313  0.52252  0.99337  1.0000
  C   C888      1.0  0.22072  0.53430  0.01452  1.0000
  C   C889      1.0  0.21753  0.53507  0.05569  1.0000
  C   C890      1.0  0.20698  0.52406  0.07654  1.0000
  C   C891      1.0  0.19920  0.51236  0.05510  1.0000
  P   P29       1.0  0.20634  0.52402  0.12689  1.0000
  C   C892      1.0  0.18676  0.51121  0.13950  1.0000
  C   C893      1.0  0.23538  0.52204  0.14795  1.0000
  C   C894      1.0  0.23726  0.51797  0.18458  1.0000
  C   C895      1.0  0.25954  0.51612  0.20090  1.0000
  C   C896      1.0  0.28010  0.51892  0.18144  1.0000
  C   C897      1.0  0.27831  0.52398  0.14617  1.0000
  C   C898      1.0  0.25604  0.52572  0.12972  1.0000
  C   C899      1.0  0.16252  0.51212  0.13078  1.0000
  C   C900      1.0  0.14732  0.50214  0.13869  1.0000
  C   C901      1.0  0.42606  0.57225  0.08286  1.0000
  C   C902      1.0  0.12344  0.69607  0.46272  1.0000
  C   C903      1.0  0.11561  0.62268  0.02628  1.0000
  C   C904      1.0  0.04109  0.72581  0.02736  1.0000
  C   C905      1.0  0.47054  0.60948  0.00755  1.0000
  C   C906      1.0  0.07516  0.58496  0.46811  1.0000
  C   C907      1.0  0.44490  0.58032  0.07459  1.0000
  C   C908      1.0  0.19119  0.71429  0.03637  1.0000
  H   H729      1.0  0.39050  0.59962  0.07164  1.0000
  H   H730      1.0  0.06836  0.66505  0.32343  1.0000
  C   C909      1.0  0.33877  0.68842  0.00052  1.0000
  H   H731      1.0  0.48138  0.72023  0.00035  1.0000
  H   H732      1.0  0.31478  0.49628  0.10278  1.0000
  C   C910      1.0  0.47584  0.58661  0.00193  1.0000
  C   C911      1.0  0.43133  0.70939  0.01742  1.0000
  H   H733      1.0  0.21710  0.70368  0.00440  1.0000
  H   H734      1.0  0.41550  0.63833  0.09032  1.0000
  H   H735      1.0  0.12383  0.49494  0.47549  1.0000
  H   H736      1.0  0.06384  0.63195  0.46504  1.0000
  H   H737      1.0  0.00546  0.63069  0.37165  1.0000
  H   H738      1.0  0.01574  0.61944  0.44632  1.0000
  C   C912      1.0  0.41611  0.68931  0.03851  1.0000
  C   C913      1.0  0.43039  0.56087  0.10173  1.0000
  C   C914      1.0  0.43846  0.70263  0.08010  1.0000
  C   C915      1.0  0.45007  0.60737  0.11614  1.0000
  C   C916      1.0  0.03674  0.70636  0.46017  1.0000
  H   H739      1.0  0.45685  0.54863  0.12682  1.0000
  C   C917      1.0  0.10313  0.60041  0.44631  1.0000
  C   C918      1.0  0.33964  0.65453  0.01374  1.0000
  C   C919      1.0  0.42600  0.69149  0.07320  1.0000
  S   S127      1.0  0.47506  0.52649  0.16293  1.0000
  C   C920      1.0  0.03925  0.49624  0.23396  1.0000
  H   H740      1.0  0.10429  0.61629  0.04122  1.0000
  H   H741      1.0  0.41793  0.62057  0.04602  1.0000
  H   H742      1.0  0.49024  0.56281  0.11246  1.0000
  C   C921      1.0  0.46798  0.57686  0.08574  1.0000
  H   H743      1.0  0.43425  0.71622  0.99591  1.0000
  H   H744      1.0  0.03452  0.71200  0.43556  1.0000
  C   C922      1.0  0.13558  0.69717  0.42946  1.0000
  H   H745      1.0  0.09293  0.70889  0.02149  1.0000
  S   S128      1.0  0.05531  0.73207  0.17695  1.0000
  H   H746      1.0  0.17803  0.71398  0.01472  1.0000
  H   H747      1.0  0.44654  0.70418  0.10682  1.0000
  C   C923      1.0  0.23055  0.70852  0.05809  1.0000
  P   P30       1.0  0.15742  0.72799  0.07748  1.0000
  C   C924      1.0  0.09908  0.51214  0.31494  1.0000
  C   C925      1.0  0.43867  0.60819  0.08185  1.0000
  H   H748      1.0  0.09369  0.58333  0.41669  1.0000
  C   C926      1.0  0.99571  0.50790  0.25148  1.0000
  H   H749      1.0  0.46037  0.59901  0.12365  1.0000
  C   C927      1.0  0.11412  0.67933  0.40458  1.0000
  H   H750      1.0  0.43554  0.63668  0.15083  1.0000
  C   C928      1.0  0.21377  0.59478  0.98917  1.0000
  C   C929      1.0  0.14989  0.48394  0.38307  1.0000
  H   H751      1.0  0.45227  0.49720  0.08534  1.0000
  C   C930      1.0  0.39068  0.59726  0.04261  1.0000
  C   C931      1.0  0.18051  0.48974  0.16201  1.0000
  C   C932      1.0  0.37643  0.49516  0.02646  1.0000
  H   H752      1.0  0.46153  0.61778  0.01897  1.0000
  C   C933      1.0  0.00735  0.48671  0.39912  1.0000
  C   C934      1.0  0.09476  0.72566  0.39341  1.0000
  H   H753      1.0  0.06750  0.72012  0.06704  1.0000
  C   C935      1.0  0.48451  0.50466  0.06435  1.0000
  C   C936      1.0  0.25788  0.48856  0.12159  1.0000
  H   H754      1.0  0.05626  0.49195  0.22682  1.0000
  C   C937      1.0  0.36926  0.59721  0.02313  1.0000
  H   H755      1.0  0.14443  0.48325  0.16047  1.0000
  H   H756      1.0  0.10947  0.73208  0.04764  1.0000
  C   C938      1.0  0.11752  0.71949  0.11524  1.0000
  H   H757      1.0  0.00412  0.60302  0.28422  1.0000
  H   H758      1.0  0.15004  0.64859  0.03973  1.0000
  H   H759      1.0  0.08880  0.72217  0.36690  1.0000
  H   H760      1.0  0.15820  0.49181  0.36927  1.0000
  H   H761      1.0  0.36978  0.69693  0.02316  1.0000
  H   H762      1.0  0.20004  0.72472  0.12427  1.0000
  C   C939      1.0  0.00795  0.50075  0.27792  1.0000
  C   C940      1.0  0.12689  0.63260  0.04479  1.0000
  H   H763      1.0  0.22907  0.54200  0.00014  1.0000
  H   H764      1.0  0.00037  0.50005  0.30504  1.0000
  C   C941      1.0  0.00522  0.50925  0.21636  1.0000
  H   H765      1.0  0.03004  0.73077  0.04736  1.0000
  S   S129      1.0  0.07209  0.73002  0.28812  1.0000
  H   H766      1.0  0.11438  0.66301  0.99004  1.0000
  C   C942      1.0  0.19727  0.58511  0.99561  1.0000
  C   C943      1.0  0.11908  0.67283  0.98554  1.0000
  H   H767      1.0  0.40113  0.48569  0.99055  1.0000
  P   P31       1.0  0.04620  0.48593  0.30379  1.0000
  H   H768      1.0  0.16535  0.69270  0.99707  1.0000
  C   C944      1.0  0.39718  0.48812  0.01879  1.0000
  H   H769      1.0  0.11604  0.72891  0.12723  1.0000
  C   C945      1.0  0.00196  0.64028  0.36204  1.0000
  C   C946      1.0  0.46377  0.48689  0.03632  1.0000
  C   C947      1.0  0.14767  0.68965  0.98984  1.0000
  C   C948      1.0  0.03415  0.72547  0.99050  1.0000
  C   C949      1.0  0.48186  0.48581  0.00984  1.0000
  S   S130      1.0  0.23048  0.61920  0.99078  1.0000
  C   C950      1.0  0.07830  0.73019  0.41918  1.0000
  C   C951      1.0  0.41250  0.48435  0.04738  1.0000
  H   H770      1.0  0.28393  0.48641  0.99346  1.0000
  C   C952      1.0  0.40661  0.48772  0.08373  1.0000
  C   C953      1.0  0.48897  0.61119  0.98246  1.0000
  H   H771      1.0  0.20132  0.57538  0.98754  1.0000
  H   H772      1.0  0.38776  0.72044  0.97889  1.0000
  C   C954      1.0  0.09942  0.60771  0.47813  1.0000
  S   S131      1.0  0.13503  0.49487  0.66852  1.0000
  H   H773      1.0  0.07705  0.73153  0.91911  1.0000
  Fe  Fe64      1.0  0.10110  0.49420  0.63506  1.0000
  S   S132      1.0  0.08712  0.51146  0.60222  1.0000
  H   H774      1.0  0.05138  0.55374  0.62762  1.0000
  S   S133      1.0  0.12275  0.48740  0.77630  1.0000
  Fe  Fe65      1.0  0.22603  0.66743  0.97076  1.0000
  C   C955      1.0  0.45843  0.66367  0.92262  1.0000
  S   S134      1.0  0.12882  0.52674  0.91390  1.0000
  C   C956      1.0  0.05069  0.56900  0.58828  1.0000
  H   H775      1.0  0.07223  0.51707  0.89335  1.0000
  H   H776      1.0  0.05656  0.71816  0.56951  1.0000
  C   C957      1.0  0.06839  0.69593  0.91165  1.0000
  S   S135      1.0  0.21842  0.68032  0.92130  1.0000
  H   H777      1.0  0.08754  0.49530  0.88039  1.0000
  C   C958      1.0  0.16053  0.48566  0.54528  1.0000
  Fe  Fe66      1.0  0.11546  0.70313  0.77908  1.0000
  S   S136      1.0  0.07719  0.71009  0.78032  1.0000
  S   S137      1.0  0.12503  0.68775  0.82176  1.0000
  C   C959      1.0  0.42628  0.68272  0.94656  1.0000
  C   C960      1.0  0.09388  0.64990  0.55594  1.0000
  H   H778      1.0  0.01719  0.51199  0.81286  1.0000
  Fe  Fe67      1.0  0.07789  0.70881  0.71828  1.0000
  S   S138      1.0  0.04527  0.70485  0.68208  1.0000
  C   C961      1.0  0.04060  0.51026  0.69847  1.0000
  S   S139      1.0  0.11489  0.70038  0.71726  1.0000
  C   C962      1.0  0.02298  0.67236  0.60312  1.0000
  C   C963      1.0  0.00930  0.68355  0.60669  1.0000
  C   C964      1.0  0.01665  0.69341  0.63053  1.0000
  C   C965      1.0  0.03773  0.69225  0.65118  1.0000
  C   C966      1.0  0.05170  0.68117  0.64707  1.0000
  C   C967      1.0  0.04432  0.67129  0.62324  1.0000
  C   C968      1.0  0.10880  0.69399  0.96300  1.0000
  H   H779      1.0  0.02924  0.70201  0.78558  1.0000
  H   H780      1.0  0.06801  0.68013  0.66258  1.0000
  H   H781      1.0  0.05517  0.66273  0.62054  1.0000
  C   C969      1.0  0.19193  0.68261  0.89492  1.0000
  C   C970      1.0  0.17065  0.67670  0.90372  1.0000
  C   C971      1.0  0.15042  0.67836  0.88111  1.0000
  C   C972      1.0  0.15099  0.68615  0.84976  1.0000
  C   C973      1.0  0.17205  0.69240  0.84168  1.0000
  C   C974      1.0  0.19237  0.69058  0.86401  1.0000
  H   H782      1.0  0.16985  0.67081  0.92788  1.0000
  H   H783      1.0  0.13417  0.67366  0.88820  1.0000
  H   H784      1.0  0.17285  0.69844  0.81778  1.0000
  H   H785      1.0  0.20866  0.69528  0.85697  1.0000
  H   H786      1.0  0.06272  0.68642  0.82235  1.0000
  C   C975      1.0  0.13378  0.50665  0.52122  1.0000
  C   C976      1.0  0.01955  0.69582  0.51227  1.0000
  C   C977      1.0  0.05860  0.68740  0.85134  1.0000
  C   C978      1.0  0.12526  0.49876  0.81349  1.0000
  C   C979      1.0  0.11710  0.51142  0.81098  1.0000
  C   C980      1.0  0.11858  0.51978  0.84171  1.0000
  C   C981      1.0  0.12846  0.51576  0.87549  1.0000
  C   C982      1.0  0.13696  0.50316  0.87781  1.0000
  C   C983      1.0  0.13520  0.49475  0.84723  1.0000
  C   C984      1.0  0.03261  0.50827  0.82732  1.0000
  H   H787      1.0  0.11185  0.52945  0.83933  1.0000
  H   H788      1.0  0.14452  0.49982  0.90338  1.0000
  C   C985      1.0  0.04834  0.71909  0.96460  1.0000
  C   C986      1.0  0.07210  0.52334  0.53841  1.0000
  C   C987      1.0  0.07810  0.51163  0.55505  1.0000
  C   C988      1.0  0.07707  0.50050  0.53368  1.0000
  H   H789      1.0  0.11943  0.56701  0.59354  1.0000
  H   H790      1.0  0.07283  0.53202  0.55456  1.0000
  H   H791      1.0  0.08165  0.49142  0.54591  1.0000
  H   H792      1.0  0.10001  0.58249  0.55214  1.0000
  H   H793      1.0  0.01126  0.63224  0.60240  1.0000
  H   H794      1.0  0.01900  0.67761  0.91507  1.0000
  C   C989      1.0  0.01958  0.62274  0.55129  1.0000
  C   C990      1.0  0.00439  0.58369  0.50283  1.0000
  C   C991      1.0  0.10023  0.56764  0.59220  1.0000
  C   C992      1.0  0.08329  0.60375  0.50468  1.0000
  H   H795      1.0  0.33428  0.67511  0.91542  1.0000
  H   H796      1.0  0.11015  0.61313  0.97483  1.0000
  H   H797      1.0  0.01293  0.63059  0.53474  1.0000
  C   C993      1.0  0.03587  0.60241  0.59439  1.0000
  H   H798      1.0  0.45905  0.71933  0.51071  1.0000
  H   H799      1.0  0.04465  0.69051  0.95534  1.0000
  C   C994      1.0  0.02906  0.61176  0.53455  1.0000
  H   H800      1.0  0.05029  0.51892  0.69382  1.0000
  P   P32       1.0  0.13991  0.62644  0.92062  1.0000
  C   C995      1.0  0.17094  0.62945  0.91173  1.0000
  C   C996      1.0  0.08663  0.55946  0.61333  1.0000
  H   H801      1.0  0.04220  0.64626  0.50918  1.0000
  H   H802      1.0  0.99283  0.68452  0.59155  1.0000
  H   H803      1.0  0.02572  0.61423  0.64075  1.0000
  H   H804      1.0  0.10927  0.51472  0.78556  1.0000
  S   S140      1.0  0.01421  0.65946  0.57420  1.0000
  C   C997      1.0  0.18801  0.61953  0.91185  1.0000
  C   C998      1.0  0.21187  0.62207  0.90501  1.0000
  C   C999      1.0  0.21899  0.63452  0.89855  1.0000
  C   C1000     1.0  0.20219  0.64445  0.89840  1.0000
  C   C1001     1.0  0.17831  0.64193  0.90498  1.0000
  C   C1002     1.0  0.12231  0.63795  0.89513  1.0000
  C   C1003     1.0  0.10314  0.64451  0.91175  1.0000
  C   C1004     1.0  0.09121  0.65431  0.89298  1.0000
  C   C1005     1.0  0.09832  0.65761  0.85759  1.0000
  C   C1006     1.0  0.11709  0.65100  0.84068  1.0000
  C   C1007     1.0  0.12892  0.64114  0.85919  1.0000
  H   H805      1.0  0.40272  0.66707  0.95686  1.0000
  C   C1008     1.0  0.13326  0.61026  0.90714  1.0000
  C   C1009     1.0  0.12288  0.58503  0.88729  1.0000
  H   H806      1.0  0.45489  0.69570  0.93585  1.0000
  C   C1010     1.0  0.03048  0.50385  0.66869  1.0000
  C   C1011     1.0  0.45666  0.72560  0.53426  1.0000
  H   H807      1.0  0.21597  0.52184  0.96401  1.0000
  C   C1012     1.0  0.04357  0.51584  0.85402  1.0000
  C   C1013     1.0  0.14062  0.60005  0.92942  1.0000
  H   H808      1.0  0.00050  0.59364  0.50815  1.0000
  H   H809      1.0  0.18328  0.60986  0.91786  1.0000
  H   H810      1.0  0.09526  0.55245  0.63085  1.0000
  C   C1014     1.0  0.06181  0.69334  0.50002  1.0000
  H   H811      1.0  0.20774  0.65414  0.89365  1.0000
  H   H812      1.0  0.16565  0.64978  0.90505  1.0000
  H   H813      1.0  0.09766  0.64223  0.93936  1.0000
  H   H814      1.0  0.07674  0.65952  0.90604  1.0000
  H   H815      1.0  0.08971  0.66547  0.84342  1.0000
  H   H816      1.0  0.12290  0.65382  0.81360  1.0000
  H   H817      1.0  0.14379  0.63630  0.84593  1.0000
  Fe  Fe68      1.0  0.14290  0.53064  0.97318  1.0000
  C   C1015     1.0  0.03710  0.60145  0.55592  1.0000
  C   C1016     1.0  0.06973  0.71309  0.97531  1.0000
  C   C1017     1.0  0.09100  0.69583  0.57978  1.0000
  S   S141      1.0  0.15506  0.72551  0.67216  1.0000
  C   C1018     1.0  0.01849  0.62365  0.58954  1.0000
  C   C1019     1.0  0.10443  0.69207  0.54896  1.0000
  H   H818      1.0  0.18456  0.71593  0.56494  1.0000
  C   C1020     1.0  0.43587  0.66040  0.93476  1.0000
  C   C1021     1.0  0.99702  0.48462  0.80096  1.0000
  C   C1022     1.0  0.06340  0.51116  0.87307  1.0000
  C   C1023     1.0  0.02652  0.57818  0.51190  1.0000
  H   H819      1.0  0.23758  0.63652  0.89435  1.0000
  H   H820      1.0  0.03148  0.56929  0.58672  1.0000
  H   H821      1.0  0.48158  0.70463  0.56402  1.0000
  C   C1024     1.0  0.03918  0.68116  0.86614  1.0000
  H   H822      1.0  0.13557  0.70367  0.63848  1.0000
  H   H823      1.0  0.23053  0.59238  0.97618  1.0000
  C   C1025     1.0  0.13456  0.49546  0.50014  1.0000
  H   H824      1.0  0.41992  0.69973  0.88841  1.0000
  S   S142      1.0  0.25611  0.65286  0.97397  1.0000
  H   H825      1.0  0.12276  0.51465  0.51255  1.0000
  H   H826      1.0  0.14105  0.57974  0.93732  1.0000
  H   H827      1.0  0.02807  0.67539  0.84852  1.0000
  C   C1026     1.0  0.04865  0.68976  0.92629  1.0000
  P   P33       1.0  0.08986  0.68525  0.50920  1.0000
  H   H828      1.0  0.00595  0.70113  0.84322  1.0000
  C   C1027     1.0  0.14596  0.50726  0.55466  1.0000
  C   C1028     1.0  0.08442  0.66878  0.51999  1.0000
  H   H829      1.0  0.15289  0.71825  0.86026  1.0000
  H   H830      1.0  0.01189  0.48711  0.65102  1.0000
  S   S143      1.0  0.13019  0.72289  0.77651  1.0000
  H   H831      1.0  0.15969  0.69618  0.58571  1.0000
  C   C1029     1.0  0.47641  0.73069  0.55243  1.0000
  H   H832      1.0  0.21699  0.72747  0.53432  1.0000
  C   C1030     1.0  0.06139  0.49133  0.83877  1.0000
  H   H833      1.0  0.43100  0.65048  0.93624  1.0000
  C   C1031     1.0  0.09945  0.66216  0.54445  1.0000
  C   C1032     1.0  0.46492  0.67644  0.92221  1.0000
  P   P34       1.0  0.02700  0.48645  0.78461  1.0000
  C   C1033     1.0  0.14820  0.48492  0.51190  1.0000
  C   C1034     1.0  0.05857  0.65053  0.51818  1.0000
  C   C1035     1.0  0.39457  0.72009  0.95107  1.0000
  C   C1036     1.0  0.41980  0.66989  0.94647  1.0000
  C   C1037     1.0  0.07032  0.50111  0.49628  1.0000
  C   C1038     1.0  0.34217  0.67991  0.93877  1.0000
  C   C1039     1.0  0.06188  0.56019  0.61150  1.0000
  C   C1040     1.0  0.07325  0.64415  0.54319  1.0000
  H   H834      1.0  0.08801  0.69951  0.86179  1.0000
  H   H835      1.0  0.41845  0.72517  0.53108  1.0000
  C   C1041     1.0  0.36584  0.68369  0.93747  1.0000
  H   H836      1.0  0.14431  0.51570  0.57187  1.0000
  C   C1042     1.0  0.07308  0.69479  0.87394  1.0000
  C   C1043     1.0  0.40512  0.70885  0.93714  1.0000
  H   H837      1.0  0.05233  0.66750  0.48711  1.0000
  C   C1044     1.0  0.15663  0.72662  0.53802  1.0000
  C   C1045     1.0  0.10221  0.70008  0.61180  1.0000
  C   C1046     1.0  0.12070  0.60768  0.87461  1.0000
  C   C1047     1.0  0.03412  0.68240  0.90359  1.0000
  C   C1048     1.0  0.02664  0.61350  0.61107  1.0000
  C   C1049     1.0  0.02762  0.49367  0.73971  1.0000
  C   C1050     1.0  0.44913  0.68592  0.93482  1.0000
  C   C1051     1.0  0.07211  0.49888  0.86568  1.0000
  H   H838      1.0  0.10905  0.61644  0.48220  1.0000
  H   H839      1.0  0.08071  0.60950  0.52922  1.0000
  C   C1052     1.0  0.00313  0.70892  0.82433  1.0000
  H   H840      1.0  0.48246  0.67889  0.91288  1.0000
  H   H841      1.0  0.02993  0.61122  0.50490  1.0000
  C   C1053     1.0  0.10342  0.71627  0.91367  1.0000
  C   C1054     1.0  0.01329  0.55795  0.48676  1.0000
  Fe  Fe69      1.0  0.12706  0.72079  0.71493  1.0000
  C   C1055     1.0  0.07072  0.59243  0.49954  1.0000
  C   C1056     1.0  0.07683  0.72961  0.60693  1.0000
  H   H842      1.0  0.04266  0.71892  0.93610  1.0000
  C   C1057     1.0  0.06426  0.66269  0.50610  1.0000
  H   H843      1.0  0.10513  0.64504  0.57575  1.0000
  C   C1058     1.0  0.14050  0.69621  0.58371  1.0000
  Fe  Fe70      1.0  0.09187  0.72962  0.77463  1.0000
  C   C1059     1.0  0.08460  0.72791  0.54159  1.0000
  H   H844      1.0  0.10590  0.59314  0.83964  1.0000
  H   H845      1.0  0.16839  0.49709  0.59298  1.0000
  H   H846      1.0  0.14026  0.68817  0.52954  1.0000
  C   C1060     1.0  0.11557  0.59511  0.86475  1.0000
  H   H847      1.0  0.47111  0.65633  0.91427  1.0000
  P   P35       1.0  0.04960  0.58741  0.53355  1.0000
  H   H848      1.0  0.13221  0.70320  0.89969  1.0000
  C   C1061     1.0  0.40067  0.73052  0.89280  1.0000
  Fe  Fe71      1.0  0.11525  0.48499  0.71360  1.0000
  C   C1062     1.0  0.04185  0.69076  0.52156  1.0000
  C   C1063     1.0  0.06534  0.52395  0.50098  1.0000
  C   C1064     1.0  0.13463  0.62873  0.96926  1.0000
  H   H849      1.0  0.06689  0.72677  0.63094  1.0000
  C   C1065     1.0  0.07107  0.72474  0.57230  1.0000
  C   C1066     1.0  0.01905  0.49232  0.67424  1.0000
  H   H850      1.0  0.09169  0.70304  0.63540  1.0000
  H   H851      1.0  0.07187  0.69537  0.57961  1.0000
  C   C1067     1.0  0.15942  0.49678  0.56660  1.0000
  C   C1068     1.0  0.13540  0.58752  0.91964  1.0000
  H   H852      1.0  0.99320  0.72043  0.68725  1.0000
  H   H853      1.0  0.11888  0.57529  0.87977  1.0000
  H   H854      1.0  0.00411  0.69339  0.52829  1.0000
  C   C1069     1.0  0.12484  0.71269  0.89651  1.0000
  C   C1070     1.0  0.12936  0.69190  0.55168  1.0000
  H   H855      1.0  0.04329  0.68437  0.54464  1.0000
  C   C1071     1.0  0.99604  0.72920  0.77546  1.0000
  C   C1072     1.0  0.13665  0.72123  0.87402  1.0000
  H   H856      1.0  0.11483  0.61532  0.85681  1.0000
  C   C1073     1.0  0.06443  0.51282  0.47960  1.0000
  C   C1074     1.0  0.12692  0.70039  0.61362  1.0000
  H   H857      1.0  0.37604  0.68191  0.91271  1.0000
  C   C1075     1.0  0.18034  0.72332  0.54526  1.0000
  H   H858      1.0  0.04787  0.56077  0.50955  1.0000
  P   P36       1.0  0.40662  0.69484  0.96546  1.0000
  P   P37       1.0  0.08782  0.70490  0.94138  1.0000
  H   H859      1.0  0.14277  0.72160  0.55207  1.0000
  C   C1076     1.0  0.01320  0.71969  0.76796  1.0000
  H   H860      1.0  0.04205  0.59469  0.61163  1.0000
  H   H861      1.0  0.35388  0.48877  0.69792  1.0000
  C   C1077     1.0  0.41070  0.71928  0.87848  1.0000
  H   H862      1.0  0.06830  0.63490  0.55334  1.0000
  C   C1078     1.0  0.01650  0.70952  0.79215  1.0000
  H   H863      1.0  0.11512  0.66657  0.55563  1.0000
  C   C1079     1.0  0.03084  0.56524  0.50350  1.0000
  H   H864      1.0  0.14153  0.48502  0.84979  1.0000
  C   C1080     1.0  0.08912  0.57643  0.56879  1.0000
  C   C1081     1.0  0.41274  0.70843  0.90042  1.0000
  H   H865      1.0  0.39031  0.58899  0.93853  1.0000
  H   H866      1.0  0.41666  0.71891  0.85019  1.0000
  H   H867      1.0  0.15043  0.60177  0.95449  1.0000
  C   C1082     1.0  0.19862  0.72985  0.52819  1.0000
  C   C1083     1.0  0.01774  0.48721  0.70954  1.0000
  H   H868      1.0  0.22502  0.61443  0.90626  1.0000
  H   H869      1.0  0.02365  0.71996  0.74302  1.0000
  C   C1084     1.0  0.06424  0.57709  0.56642  1.0000
  H   H870      1.0  0.15588  0.64555  0.97297  1.0000
  H   H871      1.0  0.06093  0.53303  0.48866  1.0000
  H   H872      1.0  0.00577  0.70194  0.63327  1.0000
  C   C1085     1.0  0.04168  0.49604  0.81902  1.0000
  H   H873      1.0  0.04828  0.51003  0.75607  1.0000
  C   C1086     1.0  0.01694  0.70352  0.48139  1.0000
  H   H874      1.0  0.08566  0.67772  0.96108  1.0000
  H   H875      1.0  0.03235  0.50755  0.64113  1.0000
  H   H876      1.0  0.25974  0.48465  0.56475  1.0000
  H   H877      1.0  0.08065  0.72326  0.51583  1.0000
  C   C1087     1.0  0.03934  0.50517  0.73384  1.0000
  H   H878      1.0  0.03681  0.52536  0.85988  1.0000
  C   C1088     1.0  0.43365  0.72886  0.54571  1.0000
  C   C1089     1.0  0.10279  0.68125  0.96913  1.0000
  C   C1090     1.0  0.13120  0.69821  0.97446  1.0000
  C   C1091     1.0  0.39251  0.73091  0.92904  1.0000
  H   H879      1.0  0.06964  0.49244  0.48016  1.0000
  C   C1092     1.0  0.37629  0.68963  0.96804  1.0000
  H   H880      1.0  0.13618  0.70803  0.97073  1.0000
  C   C1093     1.0  0.32867  0.68224  0.97034  1.0000
  S   S144      1.0  0.08049  0.48559  0.68183  1.0000
  H   H881      1.0  0.04521  0.73019  0.83766  1.0000
  S   S145      1.0  0.09021  0.72896  0.71283  1.0000
  C   C1094     1.0  0.09380  0.72850  0.90737  1.0000
  C   C1095     1.0  0.39042  0.59127  0.96763  1.0000
  H   H882      1.0  0.42820  0.58910  0.97246  1.0000
  H   H883      1.0  0.31046  0.67909  0.97176  1.0000
  H   H884      1.0  0.35252  0.59430  0.97051  1.0000
  H   H885      1.0  0.01690  0.54802  0.48019  1.0000
  H   H886      1.0  0.12623  0.70317  0.48395  1.0000
  H   H887      1.0  0.48456  0.49283  0.60323  1.0000
  H   H888      1.0  0.44237  0.48297  0.96014  1.0000
  H   H889      1.0  0.26841  0.97879  0.43869  1.0000
  C   C1096     1.0  0.11036  0.73461  0.46222  1.0000
  S   S146      1.0  0.11679  0.75315  0.33445  1.0000
  C   C1097     1.0  0.04591  0.81730  0.03764  1.0000
  H   H890      1.0  0.37691  0.96784  0.11508  1.0000
  C   C1098     1.0  0.07184  0.80941  0.38380  1.0000
  H   H891      1.0  0.19144  0.96612  0.25598  1.0000
  Fe  Fe72      1.0  0.11001  0.73666  0.29402  1.0000
  S   S147      1.0  0.20942  0.76434  0.43161  1.0000
  H   H892      1.0  0.05837  0.79282  0.09524  1.0000
  H   H893      1.0  0.16588  0.76719  0.18570  1.0000
  S   S148      1.0  0.12641  0.95354  0.20157  1.0000
  C   C1099     1.0  0.15953  0.74055  0.11153  1.0000
  C   C1100     1.0  0.16673  0.96561  0.42249  1.0000
  S   S149      1.0  0.06953  0.95378  0.21597  1.0000
  H   H894      1.0  0.48931  0.97752  0.25360  1.0000
  Fe  Fe73      1.0  0.10197  0.95915  0.24834  1.0000
  S   S150      1.0  0.10840  0.95721  0.31129  1.0000
  Fe  Fe74      1.0  0.09346  0.94984  0.16769  1.0000
  S   S151      1.0  0.08641  0.93208  0.13298  1.0000
  C   C1101     1.0  0.19425  0.96285  0.28392  1.0000
  S   S152      1.0  0.09060  0.96960  0.14476  1.0000
  S   S153      1.0  0.09889  0.97962  0.22962  1.0000
  S   S154      1.0  0.12179  0.91675  0.44275  1.0000
  C   C1102     1.0  0.06946  0.82083  0.40355  1.0000
  H   H895      1.0  0.16475  0.94840  0.35283  1.0000
  C   C1103     1.0  0.11307  0.94567  0.34692  1.0000
  C   C1104     1.0  0.11164  0.93252  0.34080  1.0000
  C   C1105     1.0  0.11479  0.92389  0.37024  1.0000
  C   C1106     1.0  0.11980  0.92817  0.40624  1.0000
  C   C1107     1.0  0.12170  0.94131  0.41222  1.0000
  C   C1108     1.0  0.11810  0.94995  0.38292  1.0000
  H   H896      1.0  0.10778  0.92899  0.31347  1.0000
  H   H897      1.0  0.11315  0.91378  0.36506  1.0000
  H   H898      1.0  0.12530  0.94484  0.43963  1.0000
  H   H899      1.0  0.11906  0.96007  0.38820  1.0000
  C   C1109     1.0  0.06970  0.92154  0.02778  1.0000
  C   C1110     1.0  0.07459  0.92137  0.06589  1.0000
  C   C1111     1.0  0.08067  0.93258  0.08490  1.0000
  C   C1112     1.0  0.08192  0.94394  0.06533  1.0000
  C   C1113     1.0  0.07719  0.94410  0.02736  1.0000
  H   H900      1.0  0.07359  0.91251  0.08074  1.0000
  H   H901      1.0  0.08664  0.95260  0.07947  1.0000
  H   H902      1.0  0.05221  0.94617  0.34145  1.0000
  S   S155      1.0  0.11617  0.73667  0.23259  1.0000
  C   C1114     1.0  0.11319  0.80785  0.40179  1.0000
  C   C1115     1.0  0.17921  0.95298  0.33882  1.0000
  H   H903      1.0  0.16002  0.75602  0.07253  1.0000
  H   H904      1.0  0.19646  0.79242  0.41863  1.0000
  C   C1116     1.0  0.00862  0.97109  0.98606  1.0000
  H   H905      1.0  0.00336  0.92457  0.23183  1.0000
  C   C1117     1.0  0.00215  0.94063  0.31348  1.0000
  C   C1118     1.0  0.20704  0.81084  0.39979  1.0000
  C   C1119     1.0  0.14224  0.75564  0.36280  1.0000
  C   C1120     1.0  0.14178  0.76558  0.38906  1.0000
  C   C1121     1.0  0.16185  0.76821  0.41107  1.0000
  C   C1122     1.0  0.18287  0.76103  0.40663  1.0000
  C   C1123     1.0  0.18317  0.75096  0.38081  1.0000
  C   C1124     1.0  0.16301  0.74823  0.35919  1.0000
  H   H906      1.0  0.12583  0.77136  0.39212  1.0000
  H   H907      1.0  0.16119  0.77587  0.43105  1.0000
  H   H908      1.0  0.19926  0.74532  0.37715  1.0000
  H   H909      1.0  0.16373  0.74057  0.33916  1.0000
  C   C1125     1.0  0.04329  0.74577  0.15431  1.0000
  C   C1126     1.0  0.04636  0.75818  0.16753  1.0000
  C   C1127     1.0  0.03693  0.76868  0.14791  1.0000
  C   C1128     1.0  0.02415  0.76695  0.11498  1.0000
  C   C1129     1.0  0.02077  0.75453  0.10202  1.0000
  C   C1130     1.0  0.03025  0.74404  0.12163  1.0000
  H   H910      1.0  0.05605  0.75969  0.19282  1.0000
  H   H911      1.0  0.40632  0.97300  0.16312  1.0000
  H   H912      1.0  0.02894  0.93344  0.12875  1.0000
  H   H913      1.0  0.23779  0.93504  0.45117  1.0000
  H   H914      1.0  0.41400  0.97309  0.25578  1.0000
  P   P38       1.0  0.17097  0.95611  0.99925  1.0000
  H   H915      1.0  0.03288  0.75323  0.01408  1.0000
  C   C1131     1.0  0.49053  0.73752  0.46930  1.0000
  H   H916      1.0  0.18959  0.96246  0.07383  1.0000
  C   C1132     1.0  0.00481  0.93240  0.25124  1.0000
  H   H917      1.0  0.47801  0.74543  0.41828  1.0000
  C   C1133     1.0  0.01751  0.94943  0.04950  1.0000
  H   H918      1.0  0.43079  0.81608  0.45503  1.0000
  H   H919      1.0  0.16470  0.74451  0.20425  1.0000
  C   C1134     1.0  0.10846  0.77789  0.46955  1.0000
  C   C1135     1.0  0.43585  0.98291  0.37897  1.0000
  C   C1136     1.0  0.09369  0.80293  0.38294  1.0000
  H   H920      1.0  0.35975  0.78339  0.46560  1.0000
  H   H921      1.0  0.29008  0.96287  0.47686  1.0000
  C   C1137     1.0  0.23408  0.89393  0.47777  1.0000
  H   H922      1.0  0.01563  0.94744  0.02055  1.0000
  C   C1138     1.0  0.13779  0.85028  0.47761  1.0000
  H   H923      1.0  0.03017  0.81074  0.08776  1.0000
  H   H924      1.0  0.06120  0.97099  0.06858  1.0000
  H   H925      1.0  0.46985  0.95618  0.39067  1.0000
  H   H926      1.0  0.00911  0.96934  0.41502  1.0000
  C   C1139     1.0  0.39005  0.97718  0.30029  1.0000
  C   C1140     1.0  0.16371  0.81994  0.42890  1.0000
  C   C1141     1.0  0.11378  0.74055  0.99485  1.0000
  C   C1142     1.0  0.20689  0.97369  0.99042  1.0000
  C   C1143     1.0  0.47277  0.97936  0.16393  1.0000
  H   H927      1.0  0.04099  0.95976  0.98075  1.0000
  H   H928      1.0  0.22745  0.89744  0.45175  1.0000
  H   H929      1.0  0.02733  0.73447  0.11171  1.0000
  H   H930      1.0  0.01659  0.94564  0.21060  1.0000
  H   H931      1.0  0.02742  0.95553  0.15351  1.0000
  C   C1144     1.0  0.02262  0.96210  0.41008  1.0000
  H   H932      1.0  0.12619  0.84332  0.38774  1.0000
  C   C1145     1.0  0.16072  0.75337  0.10109  1.0000
  H   H933      1.0  0.47956  0.97725  0.13668  1.0000
  C   C1146     1.0  0.08819  0.77102  0.97978  1.0000
  C   C1147     1.0  0.14558  0.96493  0.98156  1.0000
  H   H934      1.0  0.18145  0.73948  0.01459  1.0000
  H   H935      1.0  0.13816  0.97841  0.43829  1.0000
  C   C1148     1.0  0.40211  0.98014  0.26797  1.0000
  S   S156      1.0  0.01292  0.78062  0.09132  1.0000
  H   H936      1.0  0.06026  0.94254  0.45799  1.0000
  Fe  Fe75      1.0  0.12203  0.97375  0.18149  1.0000
  H   H937      1.0  0.16701  0.80925  0.02993  1.0000
  C   C1149     1.0  0.13038  0.86952  0.44270  1.0000
  C   C1150     1.0  0.12215  0.73544  0.02783  1.0000
  C   C1151     1.0  0.13576  0.86357  0.47594  1.0000
  H   H938      1.0  0.24140  0.87496  0.45731  1.0000
  C   C1152     1.0  0.12700  0.86219  0.41096  1.0000
  C   C1153     1.0  0.16420  0.75980  0.16495  1.0000
  H   H939      1.0  0.01070  0.75302  0.07709  1.0000
  H   H940      1.0  0.02238  0.92955  0.06230  1.0000
  H   H941      1.0  0.17592  0.76951  0.00344  1.0000
  C   C1154     1.0  0.06057  0.79920  0.07233  1.0000
  H   H942      1.0  0.02918  0.95931  0.46793  1.0000
  H   H943      1.0  0.23505  0.93034  0.36737  1.0000
  H   H944      1.0  0.23130  0.97295  0.40689  1.0000
  H   H945      1.0  0.15881  0.80038  0.44536  1.0000
  C   C1155     1.0  0.02882  0.95838  0.37414  1.0000
  C   C1156     1.0  0.37607  0.97702  0.12890  1.0000
  C   C1157     1.0  0.00970  0.95260  0.30163  1.0000
  H   H946      1.0  0.16339  0.77285  0.11962  1.0000
  H   H947      1.0  0.39100  0.80656  0.45045  1.0000
  C   C1158     1.0  0.16283  0.76296  0.12776  1.0000
  C   C1159     1.0  0.15658  0.92610  0.06668  1.0000
  H   H948      1.0  0.12976  0.80258  0.40018  1.0000
  H   H949      1.0  0.01977  0.97363  0.11241  1.0000
  C   C1160     1.0  0.03395  0.95642  0.44024  1.0000
  C   C1161     1.0  0.21731  0.97564  0.06533  1.0000
  C   C1162     1.0  0.04444  0.80937  0.06814  1.0000
  H   H950      1.0  0.09488  0.74089  0.98934  1.0000
  C   C1163     1.0  0.02121  0.93917  0.07323  1.0000
  H   H951      1.0  0.10574  0.76380  0.19368  1.0000
  C   C1164     1.0  0.06196  0.97950  0.05216  1.0000
  H   H952      1.0  0.19812  0.89553  0.38526  1.0000
  H   H953      1.0  0.10834  0.78696  0.18186  1.0000
  C   C1165     1.0  0.22490  0.98170  0.00254  1.0000
  H   H954      1.0  0.07117  0.93594  0.39485  1.0000
  H   H955      1.0  0.47675  0.84144  0.45348  1.0000
  H   H956      1.0  0.03287  0.82489  0.03356  1.0000
  C   C1166     1.0  0.14670  0.95228  0.06450  1.0000
  C   C1167     1.0  0.13612  0.79775  0.03732  1.0000
  H   H957      1.0  0.22389  0.80733  0.38915  1.0000
  H   H958      1.0  0.12292  0.86682  0.38516  1.0000
  C   C1168     1.0  0.17577  0.95712  0.30277  1.0000
  C   C1169     1.0  0.17020  0.80699  0.43150  1.0000
  C   C1170     1.0  0.02402  0.95377  0.12466  1.0000
  H   H959      1.0  0.22103  0.97663  0.09444  1.0000
  H   H960      1.0  0.17506  0.92857  0.01607  1.0000
  Fe  Fe76      1.0  0.06782  0.97382  0.19449  1.0000
  C   C1171     1.0  0.05765  0.94326  0.39910  1.0000
  H   H961      1.0  0.16977  0.93055  0.42930  1.0000
  H   H962      1.0  0.23216  0.90705  0.35892  1.0000
  C   C1172     1.0  0.05143  0.94698  0.43473  1.0000
  H   H963      1.0  0.14264  0.96241  0.06409  1.0000
  C   C1173     1.0  0.01484  0.95432  0.26432  1.0000
  C   C1174     1.0  0.17943  0.82833  0.41208  1.0000
  H   H964      1.0  0.12544  0.80569  0.04755  1.0000
  H   H965      1.0  0.21329  0.83032  0.38548  1.0000
  C   C1175     1.0  0.11105  0.81935  0.42175  1.0000
  C   C1176     1.0  0.02477  0.94135  0.11073  1.0000
  C   C1177     1.0  0.44430  0.97041  0.37409  1.0000
  C   C1178     1.0  0.21984  0.96008  0.33709  1.0000
  C   C1179     1.0  0.46353  0.96588  0.39495  1.0000
  C   C1180     1.0  0.14360  0.93197  0.09494  1.0000
  C   C1181     1.0  0.21634  0.96422  0.30095  1.0000
  Fe  Fe77      1.0  0.99550  0.78357  0.03461  1.0000
  C   C1182     1.0  0.07837  0.79693  0.04606  1.0000
  C   C1183     1.0  0.16498  0.93334  0.03751  1.0000
  P   P39       1.0  0.09648  0.78262  0.04784  1.0000
  C   C1184     1.0  0.16096  0.73749  0.14888  1.0000
  C   C1185     1.0  0.12655  0.78555  0.03404  1.0000
  H   H966      1.0  0.05678  0.80558  0.36910  1.0000
  C   C1186     1.0  0.05623  0.97837  0.32391  1.0000
  C   C1187     1.0  0.10799  0.76465  0.47278  1.0000
  C   C1188     1.0  0.17405  0.78962  0.01523  1.0000
  H   H967      1.0  0.12850  0.94952  0.11573  1.0000
  H   H968      1.0  0.23725  0.96093  0.34926  1.0000
  H   H969      1.0  0.15871  0.95590  0.28942  1.0000
  H   H970      1.0  0.17549  0.83843  0.41079  1.0000
  H   H971      1.0  0.16582  0.75067  0.47738  1.0000
  C   C1189     1.0  0.20099  0.82378  0.39761  1.0000
  C   C1190     1.0  0.09902  0.77656  0.09400  1.0000
  C   C1191     1.0  0.09827  0.76342  0.10083  1.0000
  C   C1192     1.0  0.10063  0.75888  0.13671  1.0000
  C   C1193     1.0  0.10425  0.76736  0.16586  1.0000
  C   C1194     1.0  0.10563  0.78041  0.15917  1.0000
  C   C1195     1.0  0.10315  0.78499  0.12336  1.0000
  P   P40       1.0  0.13573  0.82564  0.44791  1.0000
  C   C1196     1.0  0.13877  0.94505  0.09390  1.0000
  C   C1197     1.0  0.07948  0.80482  0.01517  1.0000
  H   H972      1.0  0.08666  0.83459  0.43782  1.0000
  C   C1198     1.0  0.27406  0.96024  0.46230  1.0000
  C   C1199     1.0  0.16252  0.73962  0.00925  1.0000
  C   C1200     1.0  0.01226  0.94427  0.23926  1.0000
  C   C1201     1.0  0.07106  0.93293  0.00826  1.0000
  H   H973      1.0  0.02123  0.96332  0.25438  1.0000
  H   H974      1.0  0.16723  0.90737  0.42044  1.0000
  H   H975      1.0  0.05556  0.76656  0.05704  1.0000
  H   H976      1.0  0.16002  0.91593  0.06741  1.0000
  S   S157      1.0  0.01708  0.78546  0.98310  1.0000
  C   C1202     1.0  0.06174  0.76534  0.02911  1.0000
  H   H977      1.0  0.19237  0.79122  0.00776  1.0000
  H   H978      1.0  0.09567  0.75665  0.07870  1.0000
  H   H979      1.0  0.09904  0.74882  0.14229  1.0000
  H   H980      1.0  0.06509  0.91284  0.01353  1.0000
  H   H981      1.0  0.13414  0.76583  0.02081  1.0000
  H   H982      1.0  0.10421  0.79514  0.11861  1.0000
  C   C1203     1.0  0.01697  0.96196  0.06327  1.0000
  H   H983      1.0  0.03961  0.77822  0.15832  1.0000
  P   P41       1.0  0.01400  0.96528  0.33473  1.0000
  C   C1204     1.0  0.15976  0.79979  0.02765  1.0000
  C   C1205     1.0  0.19160  0.80244  0.41657  1.0000
  C   C1206     1.0  0.26186  0.96918  0.44076  1.0000
  H   H984      1.0  0.09940  0.78250  0.44684  1.0000
  C   C1207     1.0  0.47448  0.97386  0.42081  1.0000
  H   H985      1.0  0.06493  0.97142  0.34141  1.0000
  H   H986      1.0  0.09857  0.98258  0.06632  1.0000
  C   C1208     1.0  0.04664  0.94901  0.36889  1.0000
  C   C1209     1.0  0.06350  0.81506  0.01129  1.0000
  H   H987      1.0  0.13693  0.92637  0.11746  1.0000
  H   H988      1.0  0.07310  0.73887  0.47209  1.0000
  H   H989      1.0  0.09560  0.79407  0.36754  1.0000
  C   C1210     1.0  0.16017  0.94651  0.03632  1.0000
  H   H990      1.0  0.07812  0.95300  0.01291  1.0000
  P   P42       1.0  0.01430  0.97556  0.03337  1.0000
  H   H991      1.0  0.99858  0.93899  0.34228  1.0000
  H   H992      1.0  0.43602  0.96424  0.35406  1.0000
  C   C1211     1.0  0.23273  0.95329  0.42431  1.0000
  C   C1212     1.0  0.24467  0.94449  0.44703  1.0000
  P   P43       1.0  0.20474  0.94925  0.40332  1.0000
  C   C1213     1.0  0.20287  0.93216  0.39947  1.0000
  C   C1214     1.0  0.18262  0.95597  0.43395  1.0000
  H   H993      1.0  0.05250  0.82585  0.40421  1.0000
  C   C1215     1.0  0.16476  0.77740  0.01270  1.0000
  C   C1216     1.0  0.12883  0.84889  0.41255  1.0000
  C   C1217     1.0  0.26531  0.94794  0.46573  1.0000
  C   C1218     1.0  0.19377  0.96666  0.01576  1.0000
  C   C1219     1.0  0.22034  0.92538  0.37951  1.0000
  C   C1220     1.0  0.21874  0.91220  0.37461  1.0000
  C   C1221     1.0  0.19960  0.90572  0.38938  1.0000
  C   C1222     1.0  0.18218  0.91239  0.40928  1.0000
  C   C1223     1.0  0.18374  0.92558  0.41433  1.0000
  C   C1224     1.0  0.20103  0.95476  0.35668  1.0000
  C   C1225     1.0  0.24104  0.96579  0.42236  1.0000
  C   C1226     1.0  0.01984  0.96403  0.10116  1.0000
  H   H994      1.0  0.09868  0.75931  0.45196  1.0000
  C   C1227     1.0  0.16340  0.74705  0.17546  1.0000
  C   C1228     1.0  0.14111  0.77535  0.02226  1.0000
  H   H995      1.0  0.16660  0.96894  0.39445  1.0000
  C   C1229     1.0  0.08179  0.77179  0.01703  1.0000
  C   C1230     1.0  0.08892  0.82576  0.42250  1.0000
  C   C1231     1.0  0.15069  0.97115  0.44748  1.0000
  C   C1232     1.0  0.19918  0.96769  0.05339  1.0000
  H   H996      1.0  0.21891  0.94536  0.99094  1.0000
  C   C1233     1.0  0.04886  0.75778  0.00480  1.0000
  C   C1234     1.0  0.18268  0.95226  0.47087  1.0000
  H   H997      1.0  0.99428  0.92131  0.29776  1.0000
  H   H998      1.0  0.39299  0.96802  0.31317  1.0000
  C   C1235     1.0  0.13406  0.84284  0.44597  1.0000
  C   C1236     1.0  0.14661  0.73476  0.03505  1.0000
  C   C1237     1.0  0.39455  0.81362  0.47156  1.0000
  C   C1238     1.0  0.08605  0.73483  0.45321  1.0000
  H   H999      1.0  0.09212  0.80283  0.99344  1.0000
  C   C1239     1.0  0.99970  0.93058  0.28836  1.0000
  C   C1240     1.0  0.03195  0.97764  0.31557  1.0000
  C   C1241     1.0  0.48962  0.73840  0.43105  1.0000
  H   H1000     1.0  0.12889  0.87984  0.44160  1.0000
  C   C1242     1.0  0.47824  0.97952  0.22985  1.0000
  H   H1001     1.0  0.21211  0.85249  0.47031  1.0000
  S   S158      1.0  0.02876  0.98024  0.19107  1.0000
  C   C1243     1.0  0.41705  0.81890  0.47437  1.0000
  H   H1002     1.0  0.23077  0.96846  0.28599  1.0000
  H   H1003     1.0  0.06395  0.82095  0.98695  1.0000
  C   C1244     1.0  0.39287  0.98003  0.15587  1.0000
  C   C1245     1.0  0.23013  0.98266  0.03997  1.0000
  C   C1246     1.0  0.48665  0.97649  0.19475  1.0000
  H   H1004     1.0  0.99329  0.93212  0.97875  1.0000
  H   H1005     1.0  0.39959  0.81484  0.59057  1.0000
  H   H1006     1.0  0.17065  0.81744  0.50341  1.0000
  H   H1007     1.0  0.35992  0.81236  0.49488  1.0000
  S   S159      1.0  0.07982  0.74762  0.80579  1.0000
  Fe  Fe78      1.0  0.44046  0.78575  0.53303  1.0000
  H   H1008     1.0  0.28864  0.84806  0.49655  1.0000
  H   H1009     1.0  0.48861  0.87321  0.58620  1.0000
  H   H1010     1.0  0.10267  0.77654  0.96927  1.0000
  Fe  Fe79      1.0  0.47151  0.80723  0.56368  1.0000
  S   S160      1.0  0.46539  0.82830  0.57850  1.0000
  H   H1011     1.0  0.02995  0.77362  0.88890  1.0000
  S   S161      1.0  0.44625  0.79358  0.58984  1.0000
  S   S162      1.0  0.47027  0.77102  0.53794  1.0000
  C   C1247     1.0  0.01480  0.74594  0.67747  1.0000
  Fe  Fe80      1.0  0.25755  0.78538  0.53437  1.0000
  S   S163      1.0  0.23254  0.79883  0.56499  1.0000
  S   S164      1.0  0.29543  0.78397  0.55903  1.0000
  Fe  Fe81      1.0  0.20521  0.78343  0.55953  1.0000
  S   S165      1.0  0.17708  0.77981  0.60312  1.0000
  C   C1248     1.0  0.42207  0.82736  0.50304  1.0000
  H   H1012     1.0  0.06251  0.76979  0.84402  1.0000
  C   C1249     1.0  0.19322  0.73963  0.50358  1.0000
  Fe  Fe82      1.0  0.05703  0.90849  0.83967  1.0000
  S   S166      1.0  0.01823  0.90394  0.83427  1.0000
  S   S167      1.0  0.08523  0.90411  0.79514  1.0000
  Fe  Fe83      1.0  0.05007  0.91945  0.91920  1.0000
  S   S168      1.0  0.01104  0.91550  0.91811  1.0000
  S   S169      1.0  0.06600  0.93379  0.96005  1.0000
  Fe  Fe84      1.0  0.02138  0.89644  0.89238  1.0000
  S   S170      1.0  0.40425  0.78272  0.50483  1.0000
  Fe  Fe85      1.0  0.01087  0.92309  0.86067  1.0000
  S   S171      1.0  0.06082  0.89999  0.89671  1.0000
  S   S172      1.0  0.04950  0.92792  0.86267  1.0000
  Fe  Fe86      1.0  0.18042  0.92167  0.55070  1.0000
  S   S173      1.0  0.14432  0.93092  0.54306  1.0000
  S   S174      1.0  0.21250  0.93451  0.54585  1.0000
  Fe  Fe87      1.0  0.15984  0.89495  0.55319  1.0000
  S   S175      1.0  0.12251  0.90249  0.54481  1.0000
  C   C1250     1.0  0.04796  0.87951  0.77184  1.0000
  Fe  Fe88      1.0  0.13207  0.91737  0.58706  1.0000
  S   S176      1.0  0.10684  0.92459  0.63278  1.0000
  S   S177      1.0  0.16874  0.90940  0.59740  1.0000
  S   S178      1.0  0.33974  0.96417  0.71784  1.0000
  C   C1251     1.0  0.37694  0.81690  0.49708  1.0000
  S   S179      1.0  0.29682  0.94451  0.65907  1.0000
  H   H1013     1.0  0.00148  0.86457  0.83626  1.0000
  S   S180      1.0  0.40962  0.96798  0.69167  1.0000
  S   S181      1.0  0.46783  0.91622  0.66100  1.0000
  C   C1252     1.0  0.45200  0.93089  0.66707  1.0000
  C   C1253     1.0  0.46348  0.94257  0.66950  1.0000
  C   C1254     1.0  0.45023  0.95388  0.67631  1.0000
  C   C1255     1.0  0.42538  0.95367  0.68022  1.0000
  C   C1256     1.0  0.41390  0.94201  0.67713  1.0000
  C   C1257     1.0  0.42718  0.93069  0.67096  1.0000
  H   H1014     1.0  0.48258  0.94286  0.66684  1.0000
  H   H1015     1.0  0.45930  0.96283  0.67887  1.0000
  H   H1016     1.0  0.39484  0.94168  0.68036  1.0000
  H   H1017     1.0  0.41815  0.92170  0.66928  1.0000
  C   C1258     1.0  0.23589  0.93691  0.57767  1.0000
  C   C1259     1.0  0.25247  0.94640  0.57036  1.0000
  C   C1260     1.0  0.27090  0.94905  0.59533  1.0000
  C   C1261     1.0  0.27327  0.94199  0.62757  1.0000
  C   C1262     1.0  0.25676  0.93242  0.63480  1.0000
  C   C1263     1.0  0.23802  0.92995  0.61014  1.0000
  H   H1018     1.0  0.25100  0.95177  0.54525  1.0000
  H   H1019     1.0  0.28350  0.95640  0.58937  1.0000
  H   H1020     1.0  0.25846  0.92692  0.65971  1.0000
  H   H1021     1.0  0.22535  0.92264  0.61618  1.0000
  C   C1264     1.0  0.09079  0.91001  0.75007  1.0000
  C   C1265     1.0  0.07872  0.92061  0.73563  1.0000
  C   C1266     1.0  0.08382  0.92487  0.69978  1.0000
  C   C1267     1.0  0.10125  0.91872  0.67791  1.0000
  C   C1268     1.0  0.11354  0.90821  0.69252  1.0000
  C   C1269     1.0  0.10832  0.90390  0.72828  1.0000
  H   H1022     1.0  0.06548  0.92556  0.75211  1.0000
  H   H1023     1.0  0.07410  0.93295  0.68880  1.0000
  H   H1024     1.0  0.12691  0.90331  0.67617  1.0000
  H   H1025     1.0  0.11783  0.89571  0.73906  1.0000
  C   C1270     1.0  0.05427  0.75449  0.71653  1.0000
  H   H1026     1.0  0.46331  0.92448  0.81451  1.0000
  Fe  Fe89      1.0  0.32000  0.96214  0.66396  1.0000
  C   C1271     1.0  0.20365  0.83959  0.51394  1.0000
  C   C1272     1.0  0.18055  0.86107  0.54675  1.0000
  H   H1027     1.0  0.41236  0.73992  0.58391  1.0000
  S   S182      1.0  0.21812  0.82639  0.49207  1.0000
  Fe  Fe90      1.0  0.22017  0.80540  0.50959  1.0000
  H   H1028     1.0  0.17097  0.92902  0.88681  1.0000
  C   C1273     1.0  0.12704  0.73338  0.86813  1.0000
  C   C1274     1.0  0.15097  0.81277  0.55155  1.0000
  C   C1275     1.0  0.20351  0.85154  0.49665  1.0000
  C   C1276     1.0  0.37411  0.78320  0.52057  1.0000
  C   C1277     1.0  0.18145  0.93279  0.90929  1.0000
  H   H1029     1.0  0.99824  0.96215  0.88338  1.0000
  C   C1278     1.0  0.32549  0.78329  0.54292  1.0000
  C   C1279     1.0  0.34411  0.78306  0.56887  1.0000
  C   C1280     1.0  0.36818  0.78311  0.55788  1.0000
  C   C1281     1.0  0.37139  0.85502  0.55567  1.0000
  H   H1030     1.0  0.33985  0.78282  0.59779  1.0000
  H   H1031     1.0  0.38216  0.78284  0.57826  1.0000
  H   H1032     1.0  0.20410  0.97399  0.56612  1.0000
  C   C1282     1.0  0.14742  0.75161  0.66325  1.0000
  C   C1283     1.0  0.15259  0.76349  0.64751  1.0000
  C   C1284     1.0  0.17072  0.76457  0.62122  1.0000
  C   C1285     1.0  0.18333  0.75360  0.61029  1.0000
  C   C1286     1.0  0.17825  0.74175  0.62617  1.0000
  H   H1033     1.0  0.13371  0.75096  0.68385  1.0000
  H   H1034     1.0  0.14274  0.77192  0.65617  1.0000
  H   H1035     1.0  0.19729  0.75426  0.59008  1.0000
  C   C1287     1.0  0.47868  0.85338  0.58360  1.0000
  C   C1288     1.0  0.01128  0.83663  0.94068  1.0000
  C   C1289     1.0  0.02769  0.85753  0.92557  1.0000
  C   C1290     1.0  0.47758  0.95329  0.77893  1.0000
  C   C1291     1.0  0.37202  0.86952  0.60775  1.0000
  H   H1036     1.0  0.09485  0.82365  0.49775  1.0000
  C   C1292     1.0  0.05498  0.87445  0.80566  1.0000
  C   C1293     1.0  0.05573  0.75671  0.96809  1.0000
  C   C1294     1.0  0.01878  0.75415  0.88863  1.0000
  C   C1295     1.0  0.02340  0.74187  0.87416  1.0000
  C   C1296     1.0  0.04192  0.73966  0.84868  1.0000
  C   C1297     1.0  0.05608  0.74973  0.83751  1.0000
  C   C1298     1.0  0.05163  0.76195  0.85236  1.0000
  C   C1299     1.0  0.03315  0.76415  0.87781  1.0000
  S   S183      1.0  0.48379  0.76718  0.64269  1.0000
  H   H1037     1.0  0.04861  0.84054  0.93687  1.0000
  C   C1300     1.0  0.11639  0.92762  0.89782  1.0000
  C   C1301     1.0  0.12199  0.91517  0.88680  1.0000
  C   C1302     1.0  0.12985  0.91275  0.85104  1.0000
  C   C1303     1.0  0.13196  0.92275  0.82614  1.0000
  C   C1304     1.0  0.12641  0.93532  0.83696  1.0000
  C   C1305     1.0  0.11841  0.93764  0.87305  1.0000
  P   P44       1.0  0.12792  0.94834  0.80471  1.0000
  C   C1306     1.0  0.09882  0.95098  0.78472  1.0000
  C   C1307     1.0  0.13659  0.96224  0.83072  1.0000
  C   C1308     1.0  0.12424  0.97390  0.82706  1.0000
  C   C1309     1.0  0.36410  0.84512  0.57855  1.0000
  H   H1038     1.0  0.31742  0.78374  0.48516  1.0000
  C   C1310     1.0  0.16180  0.97184  0.87727  1.0000
  C   C1311     1.0  0.15547  0.96131  0.85589  1.0000
  C   C1312     1.0  0.09630  0.95457  0.74778  1.0000
  C   C1313     1.0  0.07370  0.95653  0.73258  1.0000
  C   C1314     1.0  0.05347  0.95503  0.75416  1.0000
  C   C1315     1.0  0.05583  0.95175  0.79110  1.0000
  C   C1316     1.0  0.07841  0.94982  0.80638  1.0000
  C   C1317     1.0  0.14946  0.94479  0.76892  1.0000
  C   C1318     1.0  0.14419  0.93581  0.74140  1.0000
  C   C1319     1.0  0.16054  0.93297  0.71355  1.0000
  C   C1320     1.0  0.18228  0.93914  0.71272  1.0000
  C   C1321     1.0  0.18759  0.94826  0.73955  1.0000
  C   C1322     1.0  0.17128  0.95108  0.76757  1.0000
  H   H1039     1.0  0.10993  0.92942  0.92541  1.0000
  H   H1040     1.0  0.11960  0.90736  0.90565  1.0000
  H   H1041     1.0  0.13321  0.90303  0.84198  1.0000
  H   H1042     1.0  0.13719  0.92045  0.79834  1.0000
  H   H1043     1.0  0.11329  0.94716  0.88201  1.0000
  H   H1044     1.0  0.10958  0.97487  0.80794  1.0000
  H   H1045     1.0  0.12403  0.74743  0.58402  1.0000
  H   H1046     1.0  0.10120  0.74112  0.63782  1.0000
  H   H1047     1.0  0.17632  0.97103  0.89676  1.0000
  H   H1048     1.0  0.16528  0.95242  0.85889  1.0000
  H   H1049     1.0  0.11168  0.95575  0.73051  1.0000
  C   C1323     1.0  0.47761  0.86674  0.74424  1.0000
  H   H1050     1.0  0.04011  0.95056  0.80785  1.0000
  H   H1051     1.0  0.07984  0.94737  0.83506  1.0000
  H   H1052     1.0  0.12736  0.93098  0.74145  1.0000
  H   H1053     1.0  0.15620  0.92604  0.69242  1.0000
  H   H1054     1.0  0.19494  0.93695  0.69106  1.0000
  H   H1055     1.0  0.20439  0.95312  0.73857  1.0000
  H   H1056     1.0  0.17584  0.95820  0.78784  1.0000
  H   H1057     1.0  0.03376  0.95370  0.91617  1.0000
  H   H1058     1.0  0.45992  0.85546  0.58670  1.0000
  C   C1324     1.0  0.47685  0.95976  0.56705  1.0000
  C   C1325     1.0  0.24665  0.96910  0.68484  1.0000
  P   P45       1.0  0.01459  0.88624  0.71823  1.0000
  C   C1326     1.0  0.10316  0.73664  0.54484  1.0000
  C   C1327     1.0  0.99423  0.86299  0.69948  1.0000
  C   C1328     1.0  0.34318  0.80550  0.64422  1.0000
  H   H1059     1.0  0.21338  0.92270  0.89284  1.0000
  C   C1329     1.0  0.46110  0.93379  0.80221  1.0000
  H   H1060     1.0  0.08894  0.96006  0.95170  1.0000
  H   H1061     1.0  0.41771  0.95300  0.76621  1.0000
  C   C1330     1.0  0.25044  0.87677  0.51463  1.0000
  C   C1331     1.0  0.18096  0.84916  0.56418  1.0000
  C   C1332     1.0  0.14912  0.96272  0.65651  1.0000
  H   H1062     1.0  0.27160  0.98204  0.51805  1.0000
  H   H1063     1.0  0.13847  0.86927  0.50052  1.0000
  S   S184      1.0  0.17445  0.90663  0.50719  1.0000
  C   C1333     1.0  0.38173  0.82553  0.52571  1.0000
  H   H1064     1.0  0.07978  0.76305  0.92652  1.0000
  C   C1334     1.0  0.03084  0.84452  0.93456  1.0000
  S   S185      1.0  0.01660  0.82018  0.95102  1.0000
  H   H1065     1.0  0.47995  0.93833  0.87081  1.0000
  C   C1335     1.0  0.12867  0.81238  0.56804  1.0000
  C   C1336     1.0  0.14621  0.97821  0.97715  1.0000
  C   C1337     1.0  0.46906  0.96999  0.50863  1.0000
  C   C1338     1.0  0.02132  0.96004  0.93028  1.0000
  Fe  Fe91      1.0  0.36977  0.97115  0.68278  1.0000
  C   C1339     1.0  0.22218  0.97713  0.56942  1.0000
  C   C1340     1.0  0.00739  0.87361  0.78406  1.0000
  H   H1066     1.0  0.36658  0.79292  0.67436  1.0000
  C   C1341     1.0  0.05615  0.87925  0.68128  1.0000
  H   H1067     1.0  0.32738  0.80256  0.65855  1.0000
  H   H1068     1.0  0.13969  0.94422  0.63569  1.0000
  C   C1342     1.0  0.15408  0.74471  0.97623  1.0000
  C   C1343     1.0  0.01449  0.86850  0.81778  1.0000
  C   C1344     1.0  0.34133  0.81443  0.61602  1.0000
  H   H1069     1.0  0.05549  0.87041  0.69637  1.0000
  H   H1070     1.0  0.04295  0.86344  0.92151  1.0000
  H   H1071     1.0  0.16662  0.80966  0.56673  1.0000
  H   H1072     1.0  0.12711  0.80896  0.59596  1.0000
  H   H1073     1.0  0.01256  0.73405  0.88265  1.0000
  S   S186      1.0  0.19097  0.79101  0.50606  1.0000
  H   H1074     1.0  0.09127  0.81619  0.56151  1.0000
  H   H1075     1.0  0.35519  0.84013  0.63448  1.0000
  S   S187      1.0  0.99512  0.75647  0.92036  1.0000
  H   H1076     1.0  0.37418  0.85331  0.52658  1.0000
  S   S188      1.0  0.46449  0.79999  0.50636  1.0000
  C   C1345     1.0  0.46215  0.96722  0.54458  1.0000
  H   H1077     1.0  0.37541  0.87889  0.61912  1.0000
  C   C1346     1.0  0.44973  0.74205  0.59419  1.0000
  H   H1078     1.0  0.40254  0.79919  0.64028  1.0000
  H   H1079     1.0  0.16737  0.95507  0.52444  1.0000
  C   C1347     1.0  0.11065  0.82060  0.51229  1.0000
  H   H1080     1.0  0.07327  0.87520  0.81457  1.0000
  S   S189      1.0  0.99949  0.87907  0.90916  1.0000
  C   C1348     1.0  0.19253  0.83851  0.54803  1.0000
  H   H1081     1.0  0.14315  0.78475  0.54342  1.0000
  H   H1082     1.0  0.23724  0.93097  0.94491  1.0000
  H   H1083     1.0  0.03496  0.74979  0.76513  1.0000
  H   H1084     1.0  0.43972  0.83114  0.50606  1.0000
  H   H1085     1.0  0.00583  0.85866  0.71980  1.0000
  H   H1086     1.0  0.19284  0.82946  0.56199  1.0000
  C   C1349     1.0  0.23574  0.98222  0.74997  1.0000
  C   C1350     1.0  0.00311  0.92270  0.75491  1.0000
  H   H1087     1.0  0.09807  0.74636  0.87959  1.0000
  Fe  Fe92      1.0  0.13776  0.91541  0.50144  1.0000
  H   H1088     1.0  0.36206  0.86158  0.65973  1.0000
  C   C1351     1.0  0.45479  0.95751  0.76893  1.0000
  Fe  Fe93      1.0  0.47779  0.78003  0.59312  1.0000
  H   H1089     1.0  0.06956  0.75779  0.73180  1.0000
  C   C1352     1.0  0.03828  0.86890  0.82852  1.0000
  C   C1353     1.0  0.31900  0.81729  0.53324  1.0000
  H   H1090     1.0  0.38159  0.87466  0.55260  1.0000
  H   H1091     1.0  0.22877  0.91190  0.50578  1.0000
  C   C1354     1.0  0.18885  0.96966  0.64160  1.0000
  C   C1355     1.0  0.03470  0.74984  0.73539  1.0000
  C   C1356     1.0  0.36064  0.84759  0.61616  1.0000
  C   C1357     1.0  0.26015  0.98175  0.54187  1.0000
  C   C1358     1.0  0.01395  0.91142  0.74222  1.0000
  C   C1359     1.0  0.23687  0.97749  0.53850  1.0000
  H   H1092     1.0  0.42317  0.93205  0.79644  1.0000
  C   C1360     1.0  0.10899  0.74133  0.57997  1.0000
  H   H1093     1.0  0.17218  0.84814  0.59037  1.0000
  C   C1361     1.0  0.99456  0.87616  0.69313  1.0000
  H   H1094     1.0  0.48869  0.93793  0.93709  1.0000
  H   H1095     1.0  0.47131  0.95746  0.59472  1.0000
  C   C1362     1.0  0.02519  0.96337  0.96705  1.0000
  C   C1363     1.0  0.07567  0.89232  0.63637  1.0000
  C   C1364     1.0  0.07522  0.76344  0.95542  1.0000
  C   C1365     1.0  0.47277  0.73881  0.58285  1.0000
  H   H1096     1.0  0.24296  0.90398  0.56554  1.0000
  H   H1097     1.0  0.12324  0.74941  0.94388  1.0000
  H   H1098     1.0  0.13830  0.97157  0.50349  1.0000
  H   H1099     1.0  0.48557  0.92184  0.74497  1.0000
  C   C1366     1.0  0.31934  0.84009  0.52432  1.0000
  C   C1367     1.0  0.25999  0.96683  0.71664  1.0000
  C   C1368     1.0  0.15077  0.96732  0.48417  1.0000
  P   P46       1.0  0.35928  0.82941  0.55956  1.0000
  P   P47       1.0  0.21160  0.98150  0.64363  1.0000
  P   P48       1.0  0.12057  0.74134  0.50536  1.0000
  C   C1369     1.0  0.03464  0.75034  0.65863  1.0000
  H   H1100     1.0  0.15254  0.94373  0.93169  1.0000
  H   H1101     1.0  0.06104  0.88420  0.75527  1.0000
  H   H1102     1.0  0.25122  0.96395  0.65987  1.0000
  C   C1370     1.0  0.17561  0.94881  0.62186  1.0000
  S   S190      1.0  0.35121  0.96759  0.62878  1.0000
  C   C1371     1.0  0.33029  0.82897  0.53808  1.0000
  H   H1103     1.0  0.44521  0.97073  0.55496  1.0000
  C   C1372     1.0  0.05435  0.75464  0.67817  1.0000
  H   H1104     1.0  0.48226  0.81683  0.64464  1.0000
  C   C1373     1.0  0.13310  0.77917  0.52385  1.0000
  H   H1105     1.0  0.13204  0.96445  0.66934  1.0000
  C   C1374     1.0  0.43523  0.94985  0.77519  1.0000
  H   H1106     1.0  0.45572  0.88021  0.71430  1.0000
  C   C1375     1.0  0.43835  0.93804  0.79207  1.0000
  H   H1107     1.0  0.16641  0.74828  0.95612  1.0000
  H   H1108     1.0  0.04548  0.75097  0.94930  1.0000
  H   H1109     1.0  0.27483  0.96010  0.71594  1.0000
  C   C1376     1.0  0.48096  0.94129  0.79518  1.0000
  C   C1377     1.0  0.02418  0.87895  0.76054  1.0000
  H   H1110     1.0  0.01384  0.93063  0.76364  1.0000
  C   C1378     1.0  0.19210  0.86225  0.51298  1.0000
  C   C1379     1.0  0.24193  0.88129  0.48094  1.0000
  S   S191      1.0  0.23081  0.76947  0.53336  1.0000
  C   C1380     1.0  0.05807  0.90174  0.64094  1.0000
  H   H1111     1.0  0.40926  0.83670  0.55173  1.0000
  C   C1381     1.0  0.40460  0.83057  0.52885  1.0000
  C   C1382     1.0  0.36154  0.81787  0.59611  1.0000
  C   C1383     1.0  0.36523  0.80004  0.65305  1.0000
  C   C1384     1.0  0.15316  0.81705  0.51544  1.0000
  C   C1385     1.0  0.03877  0.88883  0.68684  1.0000
  H   H1112     1.0  0.03312  0.91066  0.74147  1.0000
  C   C1386     1.0  0.15341  0.95128  0.63761  1.0000
  H   H1113     1.0  0.06972  0.75807  0.66368  1.0000
  H   H1114     1.0  0.03594  0.95636  0.74229  1.0000
  H   H1115     1.0  0.32768  0.84922  0.52706  1.0000
  C   C1387     1.0  0.00015  0.90100  0.73183  1.0000
  H   H1116     1.0  0.14327  0.76155  0.54872  1.0000
  H   H1117     1.0  0.03470  0.75048  0.62887  1.0000
  H   H1118     1.0  0.32403  0.81841  0.60939  1.0000
  H   H1119     1.0  0.07185  0.95899  0.70384  1.0000
  C   C1388     1.0  0.33140  0.78353  0.50557  1.0000
  H   H1120     1.0  0.08836  0.87378  0.65284  1.0000
  H   H1121     1.0  0.46742  0.86771  0.76933  1.0000
  C   C1389     1.0  0.12455  0.95852  0.97311  1.0000
  S   S192      1.0  0.16476  0.87395  0.56801  1.0000
  C   C1390     1.0  0.10853  0.81639  0.54853  1.0000
  C   C1391     1.0  0.19336  0.95790  0.62423  1.0000
  H   H1122     1.0  0.48899  0.90022  0.72007  1.0000
  H   H1123     1.0  0.09023  0.89385  0.61757  1.0000
  C   C1392     1.0  0.48410  0.87255  0.68094  1.0000
  C   C1393     1.0  0.43018  0.73716  0.57552  1.0000
  C   C1394     1.0  0.13284  0.76594  0.52706  1.0000
  H   H1124     1.0  0.05908  0.91051  0.62556  1.0000
  C   C1395     1.0  0.38368  0.81242  0.60542  1.0000
  C   C1396     1.0  0.29692  0.81671  0.51587  1.0000
  C   C1397     1.0  0.03963  0.90000  0.66595  1.0000
  C   C1398     1.0  0.07467  0.88106  0.65643  1.0000
  C   C1399     1.0  0.23472  0.90207  0.50826  1.0000
  C   C1400     1.0  0.10497  0.96514  0.95862  1.0000
  H   H1125     1.0  0.16337  0.98061  0.67389  1.0000
  C   C1401     1.0  0.29721  0.83949  0.50683  1.0000
  H   H1126     1.0  0.23024  0.97437  0.51201  1.0000
  H   H1127     1.0  0.26887  0.82730  0.48918  1.0000
  H   H1128     1.0  0.32733  0.80859  0.54282  1.0000
  C   C1402     1.0  0.38548  0.80355  0.63380  1.0000
  H   H1129     1.0  0.18853  0.73340  0.61822  1.0000
  C   C1403     1.0  0.16037  0.74068  0.65280  1.0000
  C   C1404     1.0  0.01485  0.74550  0.71607  1.0000
  C   C1405     1.0  0.25513  0.84090  0.58041  1.0000
  C   C1406     1.0  0.27627  0.83614  0.59542  1.0000
  C   C1407     1.0  0.29334  0.84454  0.60858  1.0000
  C   C1408     1.0  0.28947  0.85771  0.60616  1.0000
  C   C1409     1.0  0.26853  0.86257  0.59009  1.0000
  C   C1410     1.0  0.25106  0.85405  0.57837  1.0000
  P   P49       1.0  0.26231  0.87952  0.58924  1.0000
  C   C1411     1.0  0.24114  0.88230  0.62556  1.0000
  C   C1412     1.0  0.28832  0.88908  0.59599  1.0000
  C   C1413     1.0  0.28689  0.90046  0.61657  1.0000
  C   C1414     1.0  0.30657  0.90832  0.61959  1.0000
  C   C1415     1.0  0.32769  0.90503  0.60158  1.0000
  C   C1416     1.0  0.32909  0.89390  0.58027  1.0000
  C   C1417     1.0  0.30944  0.88599  0.57727  1.0000
  C   C1418     1.0  0.21682  0.88330  0.61763  1.0000
  C   C1419     1.0  0.20031  0.88462  0.64609  1.0000
  C   C1420     1.0  0.20797  0.88504  0.68260  1.0000
  C   C1421     1.0  0.23218  0.88396  0.69074  1.0000
  C   C1422     1.0  0.24872  0.88246  0.66234  1.0000
  C   C1423     1.0  0.25056  0.88482  0.54567  1.0000
  C   C1424     1.0  0.17101  0.94113  0.93497  1.0000
  C   C1425     1.0  0.16695  0.95797  0.49592  1.0000
  C   C1426     1.0  0.16685  0.97185  0.65881  1.0000
  C   C1427     1.0  0.36452  0.85976  0.63062  1.0000
  C   C1428     1.0  0.24274  0.89753  0.54215  1.0000
  H   H1130     1.0  0.24182  0.83436  0.57047  1.0000
  H   H1131     1.0  0.27930  0.82592  0.59689  1.0000
  H   H1132     1.0  0.30950  0.84082  0.62086  1.0000
  H   H1133     1.0  0.30266  0.86401  0.61739  1.0000
  H   H1134     1.0  0.23419  0.85755  0.56771  1.0000
  H   H1135     1.0  0.27046  0.90348  0.62961  1.0000
  H   H1136     1.0  0.30532  0.91714  0.63534  1.0000
  H   H1137     1.0  0.34279  0.91126  0.60365  1.0000
  H   H1138     1.0  0.34527  0.89156  0.56554  1.0000
  H   H1139     1.0  0.31058  0.87759  0.55985  1.0000
  H   H1140     1.0  0.21050  0.88278  0.58956  1.0000
  H   H1141     1.0  0.18151  0.88509  0.63972  1.0000
  H   H1142     1.0  0.19508  0.88601  0.70454  1.0000
  H   H1143     1.0  0.23809  0.88411  0.71907  1.0000
  H   H1144     1.0  0.26737  0.88132  0.66904  1.0000
  C   C1429     1.0  0.21875  0.93383  0.94207  1.0000
  H   H1145     1.0  0.21056  0.95576  0.61239  1.0000
  H   H1146     1.0  0.17915  0.93981  0.60793  1.0000
  H   H1147     1.0  0.04362  0.86519  0.85499  1.0000
  C   C1430     1.0  0.00125  0.96471  0.91186  1.0000
  H   H1148     1.0  0.02616  0.90741  0.66886  1.0000
  H   H1149     1.0  0.28834  0.80760  0.51261  1.0000
  H   H1150     1.0  0.13576  0.73988  0.84975  1.0000
  C   C1431     1.0  0.47096  0.87376  0.71328  1.0000
  H   H1151     1.0  0.45225  0.96655  0.75515  1.0000
  H   H1152     1.0  0.19189  0.87134  0.49921  1.0000
  C   C1432     1.0  0.37546  0.86714  0.57028  1.0000
  C   C1433     1.0  0.20532  0.92918  0.91274  1.0000
  H   H1153     1.0  0.47907  0.87805  0.65695  1.0000
  C   C1434     1.0  0.10566  0.73700  0.88481  1.0000
  H   H1154     1.0  0.25689  0.86704  0.51608  1.0000
  C   C1435     1.0  0.28600  0.82780  0.50266  1.0000
  C   C1436     1.0  0.00482  0.86282  0.92192  1.0000
  H   H1155     1.0  0.48752  0.74296  0.59748  1.0000
  C   C1437     1.0  0.48653  0.84066  0.57918  1.0000
  H   H1156     1.0  0.14238  0.84592  0.50361  1.0000
  H   H1157     1.0  0.44711  0.74861  0.61707  1.0000
  C   C1438     1.0  0.09602  0.73775  0.61079  1.0000
  C   C1439     1.0  0.12972  0.74523  0.96914  1.0000
  C   C1440     1.0  0.23088  0.98078  0.60409  1.0000
  Fe  Fe94      1.0  0.99484  0.80307  0.97040  1.0000
  C   C1441     1.0  0.20830  0.94206  0.96801  1.0000
  C   C1442     1.0  0.13298  0.82071  0.49519  1.0000
  C   C1443     1.0  0.35550  0.78338  0.49456  1.0000
  C   C1444     1.0  0.12005  0.75853  0.50178  1.0000
  C   C1445     1.0  0.15108  0.73656  0.51368  1.0000
  H   H1158     1.0  0.38434  0.73956  0.93995  1.0000
  C   C1446     1.0  0.49087  0.96533  0.49486  1.0000
  H   H1159     1.0  0.20311  0.97303  0.96130  1.0000
  H   H1160     1.0  0.12317  0.94837  0.97784  1.0000
  H   H1161     1.0  0.39893  0.73888  0.87565  1.0000
  C   C1447     1.0  0.12100  0.78513  0.49506  1.0000
  H   H1162     1.0  0.45712  0.97560  0.49172  1.0000
  C   C1448     1.0  0.18435  0.94585  0.96457  1.0000
  H   H1163     1.0  0.26588  0.97215  0.77314  1.0000
  C   C1449     1.0  0.25481  0.97354  0.74901  1.0000
  C   C1450     1.0  0.22805  0.97817  0.68520  1.0000
  H   H1164     1.0  0.48212  0.82549  0.50258  1.0000
  H   H1165     1.0  0.12165  0.79533  0.49220  1.0000
  C   C1451     1.0  0.16958  0.74298  0.49634  1.0000
  H   H1166     1.0  0.99947  0.74308  0.66177  1.0000
  H   H1167     1.0  0.99904  0.75292  0.81283  1.0000
  H   H1168     1.0  0.20737  0.74474  0.49035  1.0000
  S   S193      1.0  0.30496  0.98204  0.66672  1.0000
  H   H1169     1.0  0.47955  0.74397  0.48564  1.0000
  C   C1452     1.0  0.10585  0.97830  0.95384  1.0000
  Fe  Fe95      1.0  0.21768  0.77782  0.47979  1.0000
  H   H1170     1.0  0.27428  0.94113  0.48348  1.0000
  H   H1171     1.0  0.19503  0.94498  0.48029  1.0000
  S   S194      1.0  0.24632  0.79269  0.47883  1.0000
  Fe  Fe96      1.0  0.97118  0.17541  0.06230  1.0000
  S   S195      1.0  0.94170  0.16242  0.04706  1.0000
  S   S196      1.0  0.96940  0.19013  0.10876  1.0000
  C   C1453     1.0  0.50636  0.09500  0.32762  1.0000
  Fe  Fe97      1.0  0.96937  0.14672  0.04452  1.0000
  S   S197      1.0  0.96867  0.12806  0.07724  1.0000
  H   H1172     1.0  0.76283  0.12625  0.40503  1.0000
  Fe  Fe98      1.0  0.81836  0.22154  0.28701  1.0000
  S   S198      1.0  0.85645  0.21717  0.30122  1.0000
  S   S199      1.0  0.78683  0.21609  0.32280  1.0000
  Fe  Fe99      1.0  0.86192  0.21539  0.23969  1.0000
  S   S200      1.0  0.87880  0.19807  0.21093  1.0000
  S   S201      1.0  0.82311  0.21825  0.22609  1.0000
  C   C1454     1.0  0.75862  0.01017  0.24136  1.0000
  H   H1173     1.0  0.70206  0.01863  0.42293  1.0000
  C   C1455     1.0  0.50965  0.11464  0.36300  1.0000
  H   H1174     1.0  0.92021  0.18189  0.10125  1.0000
  H   H1175     1.0  0.88481  0.18598  0.14005  1.0000
  S   S202      1.0  0.77255  0.16420  0.40943  1.0000
  S   S203      1.0  0.97952  0.18064  0.00388  1.0000
  Fe  Fe100     1.0  0.80847  0.03043  0.42851  1.0000
  S   S204      1.0  0.84097  0.03171  0.38995  1.0000
  S   S205      1.0  0.77035  0.03377  0.41273  1.0000
  Fe  Fe101     1.0  0.94013  0.03787  0.14574  1.0000
  S   S206      1.0  0.91001  0.02446  0.15257  1.0000
  C   C1456     1.0  0.89936  0.00461  0.33046  1.0000
  Fe  Fe102     1.0  0.90898  0.05864  0.11189  1.0000
  S   S207      1.0  0.87626  0.04656  0.11657  1.0000
  S   S208      1.0  0.90493  0.07807  0.08348  1.0000
  Fe  Fe103     1.0  0.88885  0.04144  0.17370  1.0000
  S   S209      1.0  0.85875  0.04039  0.21710  1.0000
  Fe  Fe104     1.0  0.89888  0.03027  0.09531  1.0000
  S   S210      1.0  0.88432  0.01400  0.05943  1.0000
  S   S211      1.0  0.91994  0.05474  0.17042  1.0000
  S   S212      1.0  0.93084  0.04252  0.08702  1.0000
  C   C1457     1.0  0.87805  0.01357  0.01123  1.0000
  H   H1176     1.0  0.62780  0.10616  0.39310  1.0000
  H   H1177     1.0  0.79120  0.14044  0.37452  1.0000
  C   C1458     1.0  0.69649  0.00999  0.40940  1.0000
  C   C1459     1.0  0.96934  0.02741  0.26181  1.0000
  C   C1460     1.0  0.82031  0.08183  0.46908  1.0000
  H   H1178     1.0  0.68961  0.04360  0.26487  1.0000
  C   C1461     1.0  0.89576  0.99807  0.21798  1.0000
  H   H1179     1.0  0.87140  0.98652  0.07173  1.0000
  H   H1180     1.0  0.85529  0.99738  0.01577  1.0000
  C   C1462     1.0  0.71195  0.99943  0.40804  1.0000
  C   C1463     1.0  0.88361  0.00597  0.35995  1.0000
  C   C1464     1.0  0.71013  0.03340  0.34771  1.0000
  H   H1181     1.0  0.71347  0.20933  0.43024  1.0000
  S   S213      1.0  0.74089  0.99973  0.42743  1.0000
  C   C1465     1.0  0.84536  0.03442  0.34184  1.0000
  C   C1466     1.0  0.86871  0.03487  0.32807  1.0000
  C   C1467     1.0  0.87321  0.03663  0.29022  1.0000
  C   C1468     1.0  0.85437  0.03810  0.26540  1.0000
  C   C1469     1.0  0.83101  0.03784  0.27925  1.0000
  C   C1470     1.0  0.82651  0.03601  0.31708  1.0000
  H   H1182     1.0  0.88350  0.03386  0.34687  1.0000
  H   H1183     1.0  0.89127  0.03696  0.28038  1.0000
  H   H1184     1.0  0.81623  0.03919  0.26061  1.0000
  H   H1185     1.0  0.80848  0.03593  0.32710  1.0000
  H   H1186     1.0  0.52725  0.11906  0.27483  1.0000
  C   C1471     1.0  0.51282  0.01548  0.31898  1.0000
  C   C1472     1.0  0.52549  0.00386  0.31450  1.0000
  H   H1187     1.0  0.87949  0.16002  0.99840  1.0000
  C   C1473     1.0  0.52482  0.04804  0.26662  1.0000
  H   H1188     1.0  0.52224  0.02435  0.31815  1.0000
  H   H1189     1.0  0.54446  0.00384  0.30997  1.0000
  H   H1190     1.0  0.96050  0.00830  0.16394  1.0000
  H   H1191     1.0  0.50732  0.11979  0.38874  1.0000
  H   H1192     1.0  0.75040  0.01204  0.14849  1.0000
  H   H1193     1.0  0.70029  0.07697  0.44240  1.0000
  H   H1194     1.0  0.97762  0.01485  0.08714  1.0000
  C   C1474     1.0  0.78376  0.20177  0.34779  1.0000
  C   C1475     1.0  0.76589  0.20103  0.37462  1.0000
  C   C1476     1.0  0.76255  0.18972  0.39448  1.0000
  C   C1477     1.0  0.77691  0.17898  0.38732  1.0000
  C   C1478     1.0  0.79494  0.17978  0.36083  1.0000
  C   C1479     1.0  0.79847  0.19112  0.34132  1.0000
  H   H1195     1.0  0.75441  0.20921  0.37977  1.0000
  H   H1196     1.0  0.74844  0.18920  0.41449  1.0000
  H   H1197     1.0  0.80614  0.17153  0.35513  1.0000
  H   H1198     1.0  0.81230  0.19157  0.32082  1.0000
  C   C1480     1.0  0.95059  0.11427  0.07821  1.0000
  C   C1481     1.0  0.95539  0.10486  0.10471  1.0000
  C   C1482     1.0  0.94208  0.09361  0.10614  1.0000
  C   C1483     1.0  0.92338  0.09171  0.08148  1.0000
  C   C1484     1.0  0.91833  0.10121  0.05532  1.0000
  C   C1485     1.0  0.93196  0.11235  0.05342  1.0000
  H   H1199     1.0  0.96965  0.10620  0.12412  1.0000
  H   H1200     1.0  0.94608  0.08649  0.12666  1.0000
  H   H1201     1.0  0.90382  0.09990  0.03622  1.0000
  H   H1202     1.0  0.92806  0.11943  0.03274  1.0000
  C   C1486     1.0  0.94320  0.19342  0.13444  1.0000
  C   C1487     1.0  0.94439  0.20145  0.16549  1.0000
  C   C1488     1.0  0.92433  0.20363  0.18795  1.0000
  C   C1489     1.0  0.90280  0.19787  0.17938  1.0000
  C   C1490     1.0  0.90141  0.19026  0.14748  1.0000
  C   C1491     1.0  0.92147  0.18800  0.12519  1.0000
  H   H1203     1.0  0.96112  0.20569  0.17280  1.0000
  H   H1204     1.0  0.92575  0.20935  0.21265  1.0000
  H   H1205     1.0  0.72619  0.10752  0.35486  1.0000
  Fe  Fe105     1.0  0.76207  0.01682  0.44754  1.0000
  H   H1206     1.0  0.86483  0.98681  0.27345  1.0000
  C   C1492     1.0  0.66306  0.05544  0.40476  1.0000
  H   H1207     1.0  0.58842  0.19740  0.46841  1.0000
  C   C1493     1.0  0.86143  0.07859  0.30000  1.0000
  C   C1494     1.0  0.85259  0.07208  0.26944  1.0000
  C   C1495     1.0  0.82820  0.07030  0.26577  1.0000
  C   C1496     1.0  0.81259  0.07494  0.29277  1.0000
  C   C1497     1.0  0.82133  0.08145  0.32374  1.0000
  C   C1498     1.0  0.84589  0.08327  0.32706  1.0000
  P   P50       1.0  0.80177  0.08646  0.36075  1.0000
  C   C1499     1.0  0.79841  0.10361  0.36404  1.0000
  C   C1500     1.0  0.77258  0.08020  0.35302  1.0000
  C   C1501     1.0  0.75697  0.08639  0.32856  1.0000
  C   C1502     1.0  0.73405  0.08184  0.32302  1.0000
  C   C1503     1.0  0.72663  0.07107  0.34175  1.0000
  C   C1504     1.0  0.74228  0.06468  0.36538  1.0000
  C   C1505     1.0  0.76520  0.06921  0.37103  1.0000
  C   C1506     1.0  0.77956  0.10897  0.38455  1.0000
  C   C1507     1.0  0.77701  0.12218  0.38829  1.0000
  C   C1508     1.0  0.81163  0.12496  0.35019  1.0000
  C   C1509     1.0  0.81433  0.11172  0.34658  1.0000
  C   C1510     1.0  0.81396  0.08020  0.40310  1.0000
  C   C1511     1.0  0.81012  0.08655  0.43676  1.0000
  H   H1208     1.0  0.81160  0.02184  0.21257  1.0000
  H   H1209     1.0  0.65915  0.12451  0.42944  1.0000
  C   C1512     1.0  0.83808  0.06429  0.43487  1.0000
  C   C1513     1.0  0.82766  0.06887  0.40258  1.0000
  H   H1210     1.0  0.88040  0.07977  0.30305  1.0000
  H   H1211     1.0  0.86463  0.06815  0.24885  1.0000
  H   H1212     1.0  0.82156  0.06499  0.24234  1.0000
  H   H1213     1.0  0.79388  0.07309  0.28970  1.0000
  H   H1214     1.0  0.85308  0.08799  0.35110  1.0000
  H   H1215     1.0  0.76252  0.09476  0.31391  1.0000
  H   H1216     1.0  0.72200  0.08672  0.30439  1.0000
  H   H1217     1.0  0.70876  0.06770  0.33806  1.0000
  H   H1218     1.0  0.73665  0.05634  0.38007  1.0000
  H   H1219     1.0  0.77687  0.06422  0.38998  1.0000
  H   H1220     1.0  0.76708  0.10292  0.39836  1.0000
  H   H1221     1.0  0.82408  0.13120  0.33706  1.0000
  H   H1222     1.0  0.82889  0.10792  0.33036  1.0000
  H   H1223     1.0  0.68151  0.13882  0.39028  1.0000
  C   C1514     1.0  0.95184  0.00030  0.07759  1.0000
  H   H1224     1.0  0.54544  0.00174  0.38749  1.0000
  P   P51       1.0  0.49783  0.07851  0.32443  1.0000
  H   H1225     1.0  0.83030  0.06346  0.37737  1.0000
  C   C1515     1.0  0.93054  0.21858  0.34838  1.0000
  C   C1516     1.0  0.95437  0.22044  0.35730  1.0000
  C   C1517     1.0  0.96100  0.22246  0.39389  1.0000
  C   C1518     1.0  0.94381  0.22262  0.42156  1.0000
  C   C1519     1.0  0.91975  0.22104  0.41274  1.0000
  C   C1520     1.0  0.91327  0.21893  0.37591  1.0000
  C   C1521     1.0  0.50322  0.10187  0.36060  1.0000
  H   H1226     1.0  0.96319  0.00014  0.38500  1.0000
  C   C1522     1.0  0.66612  0.99807  0.37601  1.0000
  C   C1523     1.0  0.75922  0.01275  0.17491  1.0000
  H   H1227     1.0  0.80553  0.01205  0.37601  1.0000
  C   C1524     1.0  0.51753  0.07382  0.39344  1.0000
  H   H1228     1.0  0.69967  0.05465  0.42241  1.0000
  C   C1525     1.0  0.85561  0.21554  0.41225  1.0000
  P   P52       1.0  0.74263  0.00621  0.28283  1.0000
  C   C1526     1.0  0.95595  0.00673  0.28104  1.0000
  H   H1229     1.0  0.98093  0.98738  0.17356  1.0000
  H   H1230     1.0  0.79157  0.01997  0.15213  1.0000
  C   C1527     1.0  0.86926  0.22523  0.42811  1.0000
  H   H1231     1.0  0.62659  0.08145  0.41150  1.0000
  H   H1232     1.0  0.92531  0.21707  0.32003  1.0000
  C   C1528     1.0  0.61218  0.14667  0.45246  1.0000
  P   P53       1.0  0.89764  0.22133  0.44874  1.0000
  H   H1233     1.0  0.98313  0.03445  0.26015  1.0000
  H   H1234     1.0  0.89492  0.21773  0.36806  1.0000
  H   H1235     1.0  0.97157  0.17182  0.18980  1.0000
  C   C1529     1.0  0.74731  0.00933  0.20696  1.0000
  C   C1530     1.0  0.79306  0.13018  0.37118  1.0000
  H   H1236     1.0  0.86138  0.17373  0.04683  1.0000
  H   H1237     1.0  0.86156  0.20569  0.41308  1.0000
  H   H1238     1.0  0.93206  0.19993  0.45552  1.0000
  H   H1239     1.0  0.57265  0.06713  0.25941  1.0000
  C   C1531     1.0  0.54737  0.05202  0.25648  1.0000
  C   C1532     1.0  0.72427  0.02310  0.33590  1.0000
  C   C1533     1.0  0.71117  0.11110  0.37053  1.0000
  C   C1534     1.0  0.89680  0.22487  0.11474  1.0000
  C   C1535     1.0  0.68180  0.98528  0.27913  1.0000
  C   C1536     1.0  0.51696  0.06857  0.29608  1.0000
  C   C1537     1.0  0.92992  0.02049  0.24537  1.0000
  H   H1240     1.0  0.80591  0.20396  0.44149  1.0000
  C   C1538     1.0  0.90326  0.99184  0.18558  1.0000
  C   C1539     1.0  0.69839  0.99459  0.28787  1.0000
  P   P54       1.0  0.91261  0.99630  0.26008  1.0000
  C   C1540     1.0  0.69755  0.04075  0.32218  1.0000
  C   C1541     1.0  0.83461  0.21856  0.39355  1.0000
  C   C1542     1.0  0.94746  0.02973  0.24482  1.0000
  H   H1241     1.0  0.91636  0.00921  0.33213  1.0000
  C   C1543     1.0  0.68383  0.06057  0.41916  1.0000
  H   H1242     1.0  0.86975  0.01136  0.24105  1.0000
  H   H1243     1.0  0.66272  0.04550  0.39647  1.0000
  C   C1544     1.0  0.89389  0.22119  0.01007  1.0000
  H   H1244     1.0  0.49561  0.09748  0.38455  1.0000
  H   H1245     1.0  0.61724  0.14030  0.43022  1.0000
  C   C1545     1.0  0.77826  0.98404  0.35812  1.0000
  C   C1546     1.0  0.69952  0.03798  0.28470  1.0000
  H   H1246     1.0  0.77777  0.01936  0.32814  1.0000
  C   C1547     1.0  0.66336  0.21216  0.39022  1.0000
  C   C1548     1.0  0.65505  0.21201  0.35383  1.0000
  P   P55       1.0  0.66855  0.19729  0.41369  1.0000
  S   S214      1.0  0.97720  0.14986  0.98446  1.0000
  C   C1549     1.0  0.63949  0.19081  0.42105  1.0000
  H   H1247     1.0  0.55910  0.04560  0.24132  1.0000
  C   C1550     1.0  0.66359  0.08105  0.42820  1.0000
  C   C1551     1.0  0.79378  0.00530  0.36301  1.0000
  C   C1552     1.0  0.91859  0.20335  0.99001  1.0000
  C   C1553     1.0  0.97948  0.00784  0.16841  1.0000
  C   C1554     1.0  0.63399  0.10357  0.45133  1.0000
  C   C1555     1.0  0.70620  0.20597  0.45588  1.0000
  C   C1556     1.0  0.58778  0.14907  0.45959  1.0000
  C   C1557     1.0  0.87538  0.00598  0.21696  1.0000
  C   C1558     1.0  0.68799  0.18691  0.38723  1.0000
  C   C1559     1.0  0.70181  0.19169  0.35852  1.0000
  C   C1560     1.0  0.71810  0.18374  0.34010  1.0000
  C   C1561     1.0  0.72115  0.17106  0.35076  1.0000
  C   C1562     1.0  0.70774  0.16630  0.37960  1.0000
  C   C1563     1.0  0.69123  0.17417  0.39779  1.0000
  C   C1564     1.0  0.90811  0.19566  0.01632  1.0000
  H   H1248     1.0  0.89683  0.98896  0.12780  1.0000
  H   H1249     1.0  0.57438  0.14461  0.44281  1.0000
  H   H1250     1.0  0.77763  0.18927  0.46993  1.0000
  H   H1251     1.0  0.65217  0.20304  0.33971  1.0000
  H   H1252     1.0  0.68600  0.04846  0.33144  1.0000
  C   C1565     1.0  0.63204  0.17991  0.40196  1.0000
  C   C1566     1.0  0.71382  0.02775  0.27276  1.0000
  H   H1253     1.0  0.88832  0.01167  0.38376  1.0000
  C   C1567     1.0  0.88789  0.02216  0.98659  1.0000
  C   C1568     1.0  0.74363  0.08998  0.45940  1.0000
  C   C1569     1.0  0.77814  0.00940  0.33555  1.0000
  Fe  Fe106     1.0  0.95142  0.16665  0.98812  1.0000
  H   H1254     1.0  0.70073  0.20163  0.35096  1.0000
  H   H1255     1.0  0.72920  0.18757  0.31868  1.0000
  H   H1256     1.0  0.73460  0.16509  0.33767  1.0000
  H   H1257     1.0  0.71071  0.15661  0.38867  1.0000
  H   H1258     1.0  0.68141  0.17042  0.42074  1.0000
  C   C1570     1.0  0.89184  0.14575  0.03643  1.0000
  C   C1571     1.0  0.68426  0.19983  0.45637  1.0000
  C   C1572     1.0  0.87003  0.16484  0.05430  1.0000
  C   C1573     1.0  0.87164  0.16127  0.09121  1.0000
  C   C1574     1.0  0.88333  0.14986  0.10106  1.0000
  C   C1575     1.0  0.89376  0.14224  0.07332  1.0000
  P   P56       1.0  0.88758  0.14582  0.14895  1.0000
  C   C1576     1.0  0.86187  0.15112  0.17531  1.0000
  C   C1577     1.0  0.89126  0.12875  0.15315  1.0000
  C   C1578     1.0  0.87748  0.12049  0.13166  1.0000
  C   C1579     1.0  0.88050  0.10730  0.13467  1.0000
  C   C1580     1.0  0.89708  0.10224  0.15936  1.0000
  C   C1581     1.0  0.91081  0.11036  0.18092  1.0000
  C   C1582     1.0  0.90791  0.12357  0.17791  1.0000
  C   C1583     1.0  0.84421  0.14250  0.18515  1.0000
  C   C1584     1.0  0.82462  0.14661  0.20598  1.0000
  C   C1585     1.0  0.82251  0.15933  0.21729  1.0000
  C   C1586     1.0  0.83988  0.16797  0.20750  1.0000
  C   C1587     1.0  0.85928  0.16393  0.18630  1.0000
  C   C1588     1.0  0.91464  0.15335  0.16381  1.0000
  C   C1589     1.0  0.93463  0.15283  0.14089  1.0000
  C   C1590     1.0  0.95515  0.15935  0.15051  1.0000
  C   C1591     1.0  0.95603  0.16631  0.18330  1.0000
  C   C1592     1.0  0.93664  0.16638  0.20716  1.0000
  C   C1593     1.0  0.91616  0.15974  0.19781  1.0000
  C   C1594     1.0  0.53993  0.07237  0.28675  1.0000
  C   C1595     1.0  0.72629  0.02021  0.29827  1.0000
  H   H1259     1.0  0.90030  0.13994  0.01527  1.0000
  H   H1260     1.0  0.86413  0.16757  0.11190  1.0000
  H   H1261     1.0  0.90399  0.13375  0.08011  1.0000
  H   H1262     1.0  0.86462  0.12424  0.11220  1.0000
  H   H1263     1.0  0.87049  0.10093  0.11715  1.0000
  H   H1264     1.0  0.89975  0.09199  0.16086  1.0000
  H   H1265     1.0  0.92404  0.10639  0.19940  1.0000
  H   H1266     1.0  0.91886  0.12970  0.19463  1.0000
  H   H1267     1.0  0.84547  0.13259  0.17703  1.0000
  H   H1268     1.0  0.81114  0.13989  0.21356  1.0000
  H   H1269     1.0  0.80750  0.16249  0.23381  1.0000
  H   H1270     1.0  0.83853  0.17782  0.21668  1.0000
  H   H1271     1.0  0.87249  0.17081  0.17923  1.0000
  H   H1272     1.0  0.93437  0.14752  0.11530  1.0000
  H   H1273     1.0  0.97012  0.15930  0.13193  1.0000
  C   C1596     1.0  0.51447  0.10138  0.29643  1.0000
  H   H1274     1.0  0.93725  0.17184  0.23250  1.0000
  H   H1275     1.0  0.90157  0.15982  0.21700  1.0000
  C   C1597     1.0  0.49917  0.07093  0.36870  1.0000
  P   P57       1.0  0.66390  0.09730  0.44549  1.0000
  H   H1276     1.0  0.82279  0.22164  0.47787  1.0000
  H   H1277     1.0  0.79917  0.09508  0.43855  1.0000
  C   C1598     1.0  0.67383  0.00935  0.39299  1.0000
  C   C1599     1.0  0.67326  0.12054  0.41248  1.0000
  C   C1600     1.0  0.76272  0.00079  0.31853  1.0000
  C   C1601     1.0  0.87034  0.99210  0.29757  1.0000
  C   C1602     1.0  0.84524  0.20723  0.08870  1.0000
  S   S215      1.0  0.80070  0.01261  0.46038  1.0000
  H   H1278     1.0  0.64373  0.17489  0.38309  1.0000
  C   C1603     1.0  0.72125  0.99401  0.27253  1.0000
  H   H1279     1.0  0.64439  0.22325  0.30711  1.0000
  H   H1280     1.0  0.66216  0.01764  0.39351  1.0000
  C   C1604     1.0  0.96366  0.99048  0.37426  1.0000
  C   C1605     1.0  0.84503  0.20638  0.12715  1.0000
  C   C1606     1.0  0.83322  0.19643  0.14414  1.0000
  C   C1607     1.0  0.82162  0.18727  0.12303  1.0000
  C   C1608     1.0  0.82156  0.18814  0.08475  1.0000
  C   C1609     1.0  0.83322  0.19812  0.06762  1.0000
  C   C1610     1.0  0.97348  0.01599  0.28038  1.0000
  H   H1281     1.0  0.57579  0.17801  0.43534  1.0000
  C   C1611     1.0  0.70422  0.98815  0.39114  1.0000
  H   H1282     1.0  0.71462  0.02555  0.24370  1.0000
  H   H1283     1.0  0.83295  0.19875  0.03791  1.0000
  C   C1612     1.0  0.93431  0.00876  0.26247  1.0000
  C   C1613     1.0  0.75261  0.07913  0.47753  1.0000
  C   C1614     1.0  0.88012  0.15709  0.02693  1.0000
  H   H1284     1.0  0.70324  0.09286  0.39277  1.0000
  C   C1615     1.0  0.86256  0.00744  0.18427  1.0000
  H   H1285     1.0  0.84747  0.01396  0.18327  1.0000
  H   H1286     1.0  0.91311  0.02251  0.23203  1.0000
  H   H1287     1.0  0.94434  0.03858  0.23035  1.0000
  H   H1288     1.0  0.73305  0.01723  0.35635  1.0000
  H   H1289     1.0  0.85386  0.21335  0.14424  1.0000
  S   S216      1.0  0.74640  0.06381  0.45901  1.0000
  H   H1290     1.0  0.83311  0.19586  0.17382  1.0000
  H   H1291     1.0  0.81256  0.17957  0.13642  1.0000
  H   H1292     1.0  0.81237  0.18112  0.06834  1.0000
  H   H1293     1.0  0.88301  0.19457  0.05996  1.0000
  S   S217      1.0  0.50222  0.14579  0.42598  1.0000
  C   C1616     1.0  0.51868  0.12077  0.33230  1.0000
  C   C1617     1.0  0.94813  0.98779  0.06586  1.0000
  C   C1618     1.0  0.60912  0.17535  0.40707  1.0000
  H   H1294     1.0  0.79135  0.01556  0.26872  1.0000
  C   C1619     1.0  0.69813  0.10281  0.39229  1.0000
  H   H1295     1.0  0.97967  0.07264  0.07666  1.0000
  H   H1296     1.0  0.96766  0.22040  0.33583  1.0000
  C   C1620     1.0  0.65053  0.22342  0.33535  1.0000
  C   C1621     1.0  0.64280  0.07583  0.41345  1.0000
  C   C1622     1.0  0.68608  0.12874  0.39034  1.0000
  S   S218      1.0  0.97886  0.03422  0.16163  1.0000
  H   H1297     1.0  0.51906  0.03851  0.25968  1.0000
  C   C1623     1.0  0.50436  0.05737  0.43449  1.0000
  H   H1298     1.0  0.73490  0.08886  0.43325  1.0000
  C   C1624     1.0  0.64260  0.06310  0.40169  1.0000
  H   H1299     1.0  0.94925  0.22409  0.44980  1.0000
  C   C1625     1.0  0.55496  0.06416  0.26664  1.0000
  S   S219      1.0  0.72728  0.14194  0.45587  1.0000
  H   H1300     1.0  0.52348  0.13071  0.33429  1.0000
  C   C1626     1.0  0.52084  0.11419  0.29889  1.0000
  H   H1301     1.0  0.69319  0.00217  0.30668  1.0000
  C   C1627     1.0  0.88242  0.21335  0.03532  1.0000
  C   C1628     1.0  0.66608  0.22390  0.40842  1.0000
  C   C1629     1.0  0.86120  0.00054  0.35813  1.0000
  H   H1302     1.0  0.84854  0.05552  0.43424  1.0000
  H   H1303     1.0  0.89903  0.02969  0.99684  1.0000
  C   C1630     1.0  0.51350  0.99232  0.31516  1.0000
  H   H1304     1.0  0.54652  0.08150  0.29563  1.0000
  H   H1305     1.0  0.73831  0.11046  0.46093  1.0000
  C   C1631     1.0  0.94279  0.98352  0.37232  1.0000
  H   H1306     1.0  0.57418  0.00394  0.43868  1.0000
  H   H1307     1.0  0.97946  0.22398  0.40079  1.0000
  C   C1632     1.0  0.86356  0.00389  0.99712  1.0000
  H   H1308     1.0  0.53018  0.08112  0.38716  1.0000
  C   C1633     1.0  0.89026  0.20064  0.03911  1.0000
  C   C1634     1.0  0.55750  0.98987  0.47232  1.0000
  C   C1635     1.0  0.83442  0.07077  0.46811  1.0000
  C   C1636     1.0  0.70516  0.12406  0.36957  1.0000
  C   C1637     1.0  0.55970  0.99736  0.44099  1.0000
  H   H1309     1.0  0.80517  0.98964  0.39691  1.0000
  H   H1310     1.0  0.71547  0.13051  0.35316  1.0000
  H   H1311     1.0  0.90346  0.21541  0.10767  1.0000
  S   S220      1.0  0.63793  0.99803  0.35400  1.0000
  C   C1638     1.0  0.91160  0.21613  0.98703  1.0000
  H   H1312     1.0  0.70858  0.03546  0.37680  1.0000
  C   C1639     1.0  0.89276  0.99775  0.29888  1.0000
  C   C1640     1.0  0.62346  0.19724  0.44450  1.0000
  C   C1641     1.0  0.68132  0.98738  0.37570  1.0000
  C   C1642     1.0  0.89627  0.20590  0.47025  1.0000
  H   H1313     1.0  0.72919  0.00612  0.20479  1.0000
  C   C1643     1.0  0.67908  0.10748  0.41361  1.0000
  H   H1314     1.0  0.93702  0.00617  0.08719  1.0000
  C   C1644     1.0  0.87000  0.00111  0.15230  1.0000
  C   C1645     1.0  0.99108  0.99601  0.17414  1.0000
  C   C1646     1.0  0.99012  0.98530  0.05141  1.0000
  H   H1315     1.0  0.93039  0.98399  0.06650  1.0000
  C   C1647     1.0  0.83639  0.22859  0.04222  1.0000
  C   C1648     1.0  0.78200  0.01464  0.24299  1.0000
  C   C1649     1.0  0.78241  0.01720  0.17691  1.0000
  H   H1316     1.0  0.60356  0.16678  0.39296  1.0000
  C   C1650     1.0  0.79374  0.01818  0.21094  1.0000
  H   H1317     1.0  0.67157  0.22430  0.43690  1.0000
  C   C1651     1.0  0.50976  0.05623  0.28656  1.0000
  H   H1318     1.0  0.84882  0.00201  0.38061  1.0000
  H   H1319     1.0  0.86058  0.00270  0.12666  1.0000
  P   P58       1.0  0.86006  0.22001  0.06580  1.0000
  C   C1652     1.0  0.85459  0.99357  0.32701  1.0000
  C   C1653     1.0  0.68413  0.07330  0.43058  1.0000
  H   H1320     1.0  0.97966  0.08911  0.02839  1.0000
  H   H1321     1.0  0.66413  0.98584  0.29088  1.0000
  Fe  Fe107     1.0  0.74844  0.15993  0.45794  1.0000
  H   H1322     1.0  0.95951  0.99790  0.29532  1.0000
  S   S221      1.0  0.66064  0.14947  0.46190  1.0000
  C   C1654     1.0  0.59343  0.18168  0.43095  1.0000
  C   C1655     1.0  0.51979  0.06723  0.42654  1.0000
  C   C1656     1.0  0.60060  0.19261  0.44969  1.0000
  H   H1323     1.0  0.51573  0.09649  0.27019  1.0000
  H   H1324     1.0  0.61935  0.00882  0.45757  1.0000
  C   C1657     1.0  0.54346  0.99618  0.41220  1.0000
  H   H1325     1.0  0.62643  0.05908  0.39077  1.0000
  C   C1658     1.0  0.59799  0.11287  0.42495  1.0000
  H   H1326     1.0  0.88908  0.23119  0.00807  1.0000
  H   H1327     1.0  0.84980  0.22546  0.98684  1.0000
  H   H1328     1.0  0.92615  0.98776  0.38164  1.0000
  C   C1659     1.0  0.89042  0.99337  0.15295  1.0000
  H   H1329     1.0  0.58787  0.11597  0.40120  1.0000
  C   C1660     1.0  0.62057  0.10731  0.42050  1.0000
  C   C1661     1.0  0.98518  0.98494  0.36276  1.0000
  H   H1330     1.0  0.57141  0.11937  0.46368  1.0000
  C   C1662     1.0  0.97471  0.00522  0.07717  1.0000
  Fe  Fe108     1.0  0.76725  0.04505  0.46578  1.0000
  H   H1331     1.0  0.82455  0.21111  0.38042  1.0000
  C   C1663     1.0  0.76287  0.98805  0.33012  1.0000
  H   H1332     1.0  0.99043  0.01425  0.29368  1.0000
  C   C1664     1.0  0.62860  0.99988  0.46275  1.0000
  H   H1333     1.0  0.49260  0.05284  0.29504  1.0000
  C   C1665     1.0  0.52502  0.98751  0.41467  1.0000
  H   H1334     1.0  0.91929  0.98605  0.18502  1.0000
  H   H1335     1.0  0.91390  0.18582  0.01898  1.0000
  H   H1336     1.0  0.51311  0.98645  0.39150  1.0000
  H   H1337     1.0  0.62869  0.20580  0.45895  1.0000
  H   H1338     1.0  0.53367  0.06969  0.44583  1.0000
  C   C1666     1.0  0.79372  0.99266  0.37455  1.0000
  H   H1339     1.0  0.61118  0.98998  0.41866  1.0000
  H   H1340     1.0  0.50627  0.05216  0.45988  1.0000
  C   C1667     1.0  0.82705  0.23123  0.39034  1.0000
  C   C1668     1.0  0.87584  0.22971  0.09867  1.0000
  C   C1669     1.0  0.62400  0.98926  0.44076  1.0000
  C   C1670     1.0  0.58867  0.11478  0.46015  1.0000
  C   C1671     1.0  0.91575  0.19738  0.46896  1.0000
  H   H1341     1.0  0.95902  0.22778  0.22280  1.0000
  H   H1342     1.0  0.92523  0.22825  0.15297  1.0000
  H   H1343     1.0  0.95767  0.98766  0.22801  1.0000
  C   C1672     1.0  0.72740  0.98378  0.24906  1.0000
  H   H1344     1.0  0.83706  0.98952  0.32546  1.0000
  H   H1345     1.0  0.92284  0.23179  0.26019  1.0000
  C   C1673     1.0  0.90923  0.23212  0.14050  1.0000
  C   C1674     1.0  0.83598  0.22968  0.00371  1.0000
  C   C1675     1.0  0.80075  0.20542  0.46990  1.0000
  H   H1346     1.0  0.81642  0.23236  0.09218  1.0000
  C   C1676     1.0  0.74578  0.10226  0.47489  1.0000
  C   C1677     1.0  0.63008  0.15251  0.47352  1.0000
  H   H1347     1.0  0.74502  0.98303  0.23733  1.0000
  Fe  Fe109     1.0  0.51241  0.15598  0.47820  1.0000
  H   H1348     1.0  0.76736  0.00777  0.72656  1.0000
  Fe  Fe110     1.0  0.83827  0.21153  0.71793  1.0000
  S   S222      1.0  0.87610  0.21816  0.71904  1.0000
  S   S223      1.0  0.83025  0.19839  0.66892  1.0000
  Fe  Fe111     1.0  0.82568  0.22796  0.78579  1.0000
  C   C1678     1.0  0.82647  0.02085  0.75827  1.0000
  H   H1349     1.0  0.74076  0.20410  0.78019  1.0000
  Fe  Fe112     1.0  0.87493  0.21575  0.78072  1.0000
  S   S224      1.0  0.90748  0.20714  0.81032  1.0000
  H   H1350     1.0  0.78243  0.07701  0.79850  1.0000
  S   S225      1.0  0.83846  0.20752  0.77888  1.0000
  H   H1351     1.0  0.81207  0.04072  0.63924  1.0000
  Fe  Fe113     1.0  0.73459  0.16546  0.53770  1.0000
  S   S226      1.0  0.76562  0.15512  0.51209  1.0000
  S   S227      1.0  0.73669  0.17947  0.58631  1.0000
  H   H1352     1.0  0.80789  0.03998  0.82898  1.0000
  H   H1353     1.0  0.86030  0.20871  0.48977  1.0000
  Fe  Fe114     1.0  0.69817  0.15313  0.48533  1.0000
  C   C1679     1.0  0.75110  0.99641  0.76762  1.0000
  S   S228      1.0  0.71864  0.17147  0.48319  1.0000
  S   S229      1.0  0.71230  0.14781  0.54133  1.0000
  C   C1680     1.0  0.53841  0.22583  0.80929  1.0000
  H   H1354     1.0  0.84845  0.99497  0.94871  1.0000
  C   C1681     1.0  0.86492  0.17326  0.78931  1.0000
  C   C1682     1.0  0.85352  0.23112  0.60575  1.0000
  C   C1683     1.0  0.74850  0.06881  0.81012  1.0000
  C   C1684     1.0  0.84276  0.03172  0.82361  1.0000
  Fe  Fe115     1.0  0.79515  0.02489  0.51089  1.0000
  S   S230      1.0  0.81422  0.02088  0.56643  1.0000
  C   C1685     1.0  0.77192  0.06848  0.79751  1.0000
  H   H1355     1.0  0.92219  0.00382  0.89295  1.0000
  C   C1686     1.0  0.78793  0.13008  0.82368  1.0000
  C   C1687     1.0  0.84964  0.01833  0.77016  1.0000
  H   H1356     1.0  0.82003  0.01621  0.73374  1.0000
  S   S231      1.0  0.80978  0.98975  0.71905  1.0000
  Fe  Fe116     1.0  0.84665  0.99378  0.85378  1.0000
  S   S232      1.0  0.86467  0.00992  0.88590  1.0000
  C   C1688     1.0  0.81274  0.01171  0.60801  1.0000
  C   C1689     1.0  0.79304  0.00445  0.61744  1.0000
  C   C1690     1.0  0.79256  0.99781  0.65123  1.0000
  C   C1691     1.0  0.81172  0.99822  0.67627  1.0000
  C   C1692     1.0  0.83149  0.00538  0.66665  1.0000
  C   C1693     1.0  0.83190  0.01209  0.63302  1.0000
  H   H1357     1.0  0.77806  0.00406  0.59887  1.0000
  H   H1358     1.0  0.77713  0.99235  0.65810  1.0000
  H   H1359     1.0  0.89424  0.22290  0.52999  1.0000
  H   H1360     1.0  0.73912  0.20987  0.90764  1.0000
  S   S233      1.0  0.81062  0.99529  0.82675  1.0000
  C   C1694     1.0  0.84255  0.16799  0.78374  1.0000
  H   H1361     1.0  0.78485  0.12250  0.84305  1.0000
  H   H1362     1.0  0.68257  0.19266  0.54765  1.0000
  S   S234      1.0  0.55026  0.16152  0.49716  1.0000
  C   C1695     1.0  0.74386  0.18374  0.77287  1.0000
  C   C1696     1.0  0.76462  0.08074  0.51086  1.0000
  H   H1363     1.0  0.88144  0.23217  0.64599  1.0000
  H   H1364     1.0  0.71666  0.05810  0.81786  1.0000
  C   C1697     1.0  0.79668  0.03830  0.65542  1.0000
  H   H1365     1.0  0.63650  0.16540  0.51850  1.0000
  C   C1698     1.0  0.77518  0.03589  0.63775  1.0000
  H   H1366     1.0  0.73381  0.03810  0.79273  1.0000
  C   C1699     1.0  0.77780  0.19895  0.52225  1.0000
  H   H1367     1.0  0.84206  0.06703  0.49325  1.0000
  H   H1368     1.0  0.87263  0.17358  0.81662  1.0000
  H   H1369     1.0  0.78980  0.16236  0.81996  1.0000
  C   C1700     1.0  0.80384  0.19316  0.64706  1.0000
  C   C1701     1.0  0.78120  0.19728  0.65820  1.0000
  C   C1702     1.0  0.76087  0.19296  0.63945  1.0000
  C   C1703     1.0  0.76288  0.18447  0.60942  1.0000
  C   C1704     1.0  0.78554  0.18036  0.59834  1.0000
  C   C1705     1.0  0.80584  0.18470  0.61703  1.0000
  H   H1370     1.0  0.77937  0.20379  0.68117  1.0000
  H   H1371     1.0  0.74346  0.19620  0.64829  1.0000
  H   H1372     1.0  0.78743  0.17382  0.57540  1.0000
  H   H1373     1.0  0.82324  0.18144  0.60818  1.0000
  C   C1706     1.0  0.91639  0.18142  0.91262  1.0000
  C   C1707     1.0  0.93603  0.18682  0.89567  1.0000
  C   C1708     1.0  0.93288  0.19473  0.86473  1.0000
  C   C1709     1.0  0.91011  0.19754  0.85054  1.0000
  C   C1710     1.0  0.89041  0.19238  0.86804  1.0000
  C   C1711     1.0  0.89358  0.18430  0.89864  1.0000
  H   H1374     1.0  0.95368  0.18469  0.90590  1.0000
  H   H1375     1.0  0.94827  0.19865  0.85150  1.0000
  H   H1376     1.0  0.87278  0.19449  0.85769  1.0000
  H   H1377     1.0  0.87823  0.18023  0.91154  1.0000
  C   C1712     1.0  0.81012  0.21544  0.49062  1.0000
  H   H1378     1.0  0.75219  0.16391  0.76410  1.0000
  C   C1713     1.0  0.79857  0.03712  0.69356  1.0000
  P   P59       1.0  0.80221  0.16242  0.74182  1.0000
  C   C1714     1.0  0.70431  0.09974  0.55576  1.0000
  H   H1379     1.0  0.50258  0.20026  0.62877  1.0000
  C   C1715     1.0  0.76842  0.04600  0.78248  1.0000
  H   H1380     1.0  0.89975  0.98641  0.86390  1.0000
  H   H1381     1.0  0.83734  0.17301  0.69167  1.0000
  C   C1716     1.0  0.86942  0.01108  0.93434  1.0000
  C   C1717     1.0  0.77897  0.03331  0.71429  1.0000
  P   P60       1.0  0.78119  0.03154  0.76355  1.0000
  C   C1718     1.0  0.74235  0.23158  0.76474  1.0000
  C   C1719     1.0  0.76164  0.00747  0.75491  1.0000
  H   H1382     1.0  0.77578  0.09415  0.55250  1.0000
  C   C1720     1.0  0.62438  0.10542  0.48660  1.0000
  H   H1383     1.0  0.87555  0.02154  0.81270  1.0000
  C   C1721     1.0  0.84228  0.22358  0.57907  1.0000
  C   C1722     1.0  0.85025  0.21097  0.57344  1.0000
  C   C1723     1.0  0.86969  0.20615  0.59324  1.0000
  C   C1724     1.0  0.88115  0.21384  0.61901  1.0000
  H   H1384     1.0  0.49612  0.03727  0.51550  1.0000
  C   C1725     1.0  0.81499  0.14956  0.67713  1.0000
  C   C1726     1.0  0.77569  0.15930  0.67724  1.0000
  H   H1385     1.0  0.64896  0.00724  0.50805  1.0000
  H   H1386     1.0  0.84103  0.20471  0.55480  1.0000
  H   H1387     1.0  0.87534  0.19632  0.58966  1.0000
  H   H1388     1.0  0.89576  0.21002  0.63515  1.0000
  C   C1727     1.0  0.86721  0.17821  0.72471  1.0000
  C   C1728     1.0  0.68757  0.10997  0.50196  1.0000
  C   C1729     1.0  0.87714  0.17850  0.75991  1.0000
  H   H1389     1.0  0.72074  0.20389  0.54656  1.0000
  C   C1730     1.0  0.90215  0.23151  0.51993  1.0000
  C   C1731     1.0  0.70272  0.22980  0.73982  1.0000
  C   C1732     1.0  0.83232  0.16776  0.74847  1.0000
  C   C1733     1.0  0.71914  0.20761  0.48837  1.0000
  H   H1390     1.0  0.75476  0.15620  0.62839  1.0000
  H   H1391     1.0  0.77820  0.22790  0.67656  1.0000
  C   C1734     1.0  0.72976  0.22518  0.94485  1.0000
  C   C1735     1.0  0.81083  0.14463  0.64189  1.0000
  H   H1392     1.0  0.78191  0.20807  0.75957  1.0000
  H   H1393     1.0  0.59475  0.11276  0.51820  1.0000
  H   H1394     1.0  0.84886  0.03542  0.84981  1.0000
  H   H1395     1.0  0.80791  0.19019  0.74025  1.0000
  H   H1396     1.0  0.72583  0.18201  0.78153  1.0000
  C   C1736     1.0  0.74474  0.04646  0.79441  1.0000
  Fe  Fe117     1.0  0.74250  0.13782  0.51146  1.0000
  C   C1737     1.0  0.68298  0.08729  0.51067  1.0000
  H   H1397     1.0  0.92929  0.17876  0.48363  1.0000
  C   C1738     1.0  0.80321  0.21735  0.52741  1.0000
  S   S235      1.0  0.91936  0.17075  0.95048  1.0000
  H   H1398     1.0  0.83322  0.16439  0.80724  1.0000
  H   H1399     1.0  0.83181  0.14750  0.69050  1.0000
  H   H1400     1.0  0.76187  0.16506  0.69003  1.0000
  P   P61       1.0  0.81656  0.22977  0.55492  1.0000
  C   C1739     1.0  0.75714  0.10384  0.50879  1.0000
  H   H1401     1.0  0.84727  0.01763  0.62630  1.0000
  S   S236      1.0  0.75597  0.02821  0.49968  1.0000
  C   C1740     1.0  0.75884  0.17351  0.76300  1.0000
  S   S237      1.0  0.86371  0.98567  0.80189  1.0000
  C   C1741     1.0  0.85784  0.02382  0.80276  1.0000
  C   C1742     1.0  0.60185  0.11104  0.49091  1.0000
  H   H1402     1.0  0.85755  0.18722  0.51649  1.0000
  H   H1403     1.0  0.67618  0.07816  0.50225  1.0000
  C   C1743     1.0  0.75539  0.03250  0.65828  1.0000
  H   H1404     1.0  0.78577  0.14313  0.59715  1.0000
  H   H1405     1.0  0.70666  0.11974  0.54473  1.0000
  H   H1406     1.0  0.76462  0.02384  0.83596  1.0000
  S   S238      1.0  0.80584  0.04257  0.47995  1.0000
  H   H1407     1.0  0.74171  0.02869  0.71201  1.0000
  H   H1408     1.0  0.89122  0.02765  0.92972  1.0000
  H   H1409     1.0  0.74651  0.00405  0.85821  1.0000
  C   C1744     1.0  0.81955  0.03426  0.81169  1.0000
  C   C1745     1.0  0.78715  0.20891  0.54319  1.0000
  C   C1746     1.0  0.88351  0.02094  0.94845  1.0000
  S   S239      1.0  0.79530  0.23133  0.82634  1.0000
  H   H1410     1.0  0.73877  0.03060  0.64447  1.0000
  C   C1747     1.0  0.78907  0.14696  0.62445  1.0000
  C   C1748     1.0  0.77152  0.15426  0.64217  1.0000
  C   C1749     1.0  0.49658  0.22732  0.79277  1.0000
  C   C1750     1.0  0.73489  0.05782  0.80842  1.0000
  H   H1411     1.0  0.59369  0.16972  0.53100  1.0000
  H   H1412     1.0  0.77407  0.03644  0.60804  1.0000
  H   H1413     1.0  0.73810  0.98646  0.81484  1.0000
  H   H1414     1.0  0.73616  0.21223  0.48773  1.0000
  H   H1415     1.0  0.63438  0.10279  0.51090  1.0000
  C   C1751     1.0  0.76571  0.01770  0.77902  1.0000
  H   H1416     1.0  0.69929  0.07953  0.55943  1.0000
  C   C1752     1.0  0.58080  0.15742  0.48794  1.0000
  C   C1753     1.0  0.87387  0.19012  0.50351  1.0000
  H   H1417     1.0  0.74085  0.07759  0.82100  1.0000
  C   C1754     1.0  0.59873  0.16320  0.50911  1.0000
  H   H1418     1.0  0.74834  0.98856  0.74884  1.0000
  C   C1755     1.0  0.62312  0.16076  0.50208  1.0000
  C   C1756     1.0  0.76022  0.01641  0.81643  1.0000
  H   H1419     1.0  0.89408  0.18300  0.76462  1.0000
  C   C1757     1.0  0.78230  0.17568  0.75199  1.0000
  C   C1758     1.0  0.81144  0.02905  0.77842  1.0000
  H   H1420     1.0  0.80191  0.13438  0.73405  1.0000
  H   H1421     1.0  0.74397  0.98629  0.50006  1.0000
  C   C1759     1.0  0.67943  0.09819  0.48898  1.0000
  C   C1760     1.0  0.87305  0.22632  0.62522  1.0000
  C   C1761     1.0  0.74995  0.00524  0.82915  1.0000
  H   H1422     1.0  0.77161  0.07250  0.52519  1.0000
  C   C1762     1.0  0.79341  0.12714  0.78711  1.0000
  C   C1763     1.0  0.69986  0.11071  0.53528  1.0000
  C   C1764     1.0  0.91956  0.99505  0.90777  1.0000
  C   C1765     1.0  0.69574  0.08805  0.54359  1.0000
  C   C1766     1.0  0.78657  0.14278  0.83529  1.0000
  C   C1767     1.0  0.78180  0.05714  0.78347  1.0000
  C   C1768     1.0  0.79748  0.15698  0.69507  1.0000
  H   H1423     1.0  0.78245  0.14506  0.86369  1.0000
  S   S240      1.0  0.82271  0.23118  0.72482  1.0000
  H   H1424     1.0  0.82440  0.13895  0.62810  1.0000
  H   H1425     1.0  0.57037  0.99059  0.49436  1.0000
  H   H1426     1.0  0.78198  0.20986  0.57174  1.0000
  H   H1427     1.0  0.84652  0.00577  0.68511  1.0000
  H   H1428     1.0  0.79989  0.05705  0.77336  1.0000
  C   C1769     1.0  0.73047  0.21911  0.91053  1.0000
  H   H1429     1.0  0.72099  0.22015  0.85361  1.0000
  C   C1770     1.0  0.78468  0.19715  0.48577  1.0000
  S   S241      1.0  0.75925  0.11900  0.53066  1.0000
  H   H1430     1.0  0.76530  0.19250  0.53432  1.0000
  C   C1771     1.0  0.79022  0.18824  0.74986  1.0000
  H   H1431     1.0  0.86098  0.01182  0.75464  1.0000
  H   H1432     1.0  0.50303  0.18752  0.68577  1.0000
  C   C1772     1.0  0.74530  0.99526  0.80471  1.0000
  H   H1433     1.0  0.87635  0.18258  0.70203  1.0000
  C   C1773     1.0  0.79072  0.15256  0.81039  1.0000
  C   C1774     1.0  0.75719  0.03133  0.69647  1.0000
  H   H1434     1.0  0.81543  0.03903  0.70657  1.0000
  C   C1775     1.0  0.79633  0.14971  0.77359  1.0000
  C   C1776     1.0  0.79761  0.13690  0.76214  1.0000
  C   C1777     1.0  0.76687  0.09304  0.52635  1.0000
  C   C1778     1.0  0.75219  0.19619  0.77189  1.0000
  C   C1779     1.0  0.84500  0.17278  0.71896  1.0000
  C   C1780     1.0  0.71043  0.20297  0.52150  1.0000
  C   C1781     1.0  0.68879  0.19669  0.52215  1.0000
  Fe  Fe118     1.0  0.82672  0.98574  0.77659  1.0000
  H   H1435     1.0  0.79454  0.11729  0.77811  1.0000
  H   H1436     1.0  0.89206  0.17230  0.51395  1.0000
  H   H1437     1.0  0.71471  0.10032  0.58079  1.0000
  C   C1782     1.0  0.77534  0.19844  0.76027  1.0000
  H   H1438     1.0  0.52296  0.21574  0.76404  1.0000
  C   C1783     1.0  0.85949  0.00254  0.95900  1.0000
  C   C1784     1.0  0.87543  0.20224  0.48810  1.0000
  H   H1439     1.0  0.73776  0.22064  0.96860  1.0000
  H   H1440     1.0  0.80586  0.22050  0.62859  1.0000
  H   H1441     1.0  0.81698  0.08670  0.49499  1.0000
  C   C1785     1.0  0.89330  0.18168  0.50199  1.0000
  C   C1786     1.0  0.67578  0.19502  0.48970  1.0000
  H   H1442     1.0  0.69101  0.22710  0.71753  1.0000
  C   C1787     1.0  0.92828  0.99368  0.94350  1.0000
  H   H1443     1.0  0.68467  0.11861  0.48644  1.0000
  H   H1444     1.0  0.73461  0.22418  0.71076  1.0000
  H   H1445     1.0  0.55605  0.22193  0.80434  1.0000
  H   H1446     1.0  0.65966  0.18958  0.49066  1.0000
  C   C1788     1.0  0.90669  0.98526  0.89147  1.0000
  C   C1789     1.0  0.79448  0.22872  0.62327  1.0000
  C   C1790     1.0  0.91426  0.18533  0.48487  1.0000
  C   C1791     1.0  0.72035  0.22506  0.87983  1.0000
  C   C1792     1.0  0.64537  0.99901  0.49095  1.0000
  H   H1447     1.0  0.93790  0.00138  0.95633  1.0000
  H   H1448     1.0  0.62225  0.22678  0.89169  1.0000
  H   H1449     1.0  0.76144  0.23036  0.76205  1.0000
  H   H1450     1.0  0.67051  0.98705  0.51908  1.0000
  C   C1793     1.0  0.65780  0.98755  0.49678  1.0000
  H   H1451     1.0  0.66566  0.22798  0.88611  1.0000
  H   H1452     1.0  0.91996  0.22209  0.96683  1.0000
  C   C1794     1.0  0.72727  0.22816  0.73595  1.0000
  H   H1453     1.0  0.93224  0.19938  0.97211  1.0000
  C   C1795     1.0  0.49751  0.19746  0.68677  1.0000
  C   C1796     1.0  0.51953  0.22234  0.78644  1.0000
  C   C1797     1.0  0.77873  0.23287  0.65063  1.0000
  C   C1798     1.0  0.49726  0.20464  0.65462  1.0000
  C   C1799     1.0  0.97279  0.41578  0.38346  1.0000
  H   H1454     1.0  0.62692  0.43337  0.02892  1.0000
  H   H1455     1.0  0.87218  0.24567  0.43505  1.0000
  C   C1800     1.0  0.75707  0.31333  0.08512  1.0000
  H   H1456     1.0  0.85159  0.24601  0.09698  1.0000
  Fe  Fe119     1.0  0.79066  0.42007  0.01371  1.0000
  S   S242      1.0  0.79090  0.43289  0.06597  1.0000
  C   C1801     1.0  0.96229  0.39274  0.34855  1.0000
  Fe  Fe120     1.0  0.87262  0.47275  0.32224  1.0000
  S   S243      1.0  0.87170  0.45154  0.31436  1.0000
  C   C1802     1.0  0.81700  0.23343  0.06256  1.0000
  Fe  Fe121     1.0  0.81854  0.47446  0.31932  1.0000
  S   S244      1.0  0.81468  0.45326  0.31215  1.0000
  C   C1803     1.0  0.81710  0.29044  0.04476  1.0000
  Fe  Fe122     1.0  0.84276  0.45179  0.35633  1.0000
  S   S245      1.0  0.84156  0.43616  0.39978  1.0000
  Fe  Fe123     1.0  0.84387  0.45462  0.27048  1.0000
  S   S246      1.0  0.84738  0.44189  0.21845  1.0000
  S   S247      1.0  0.84445  0.47287  0.36648  1.0000
  S   S248      1.0  0.84682  0.47600  0.27531  1.0000
  H   H1457     1.0  0.91729  0.27801  0.43005  1.0000
  Fe  Fe124     1.0  0.86250  0.23817  0.29345  1.0000
  C   C1804     1.0  0.98576  0.40471  0.39207  1.0000
  H   H1458     1.0  0.88489  0.28006  0.18188  1.0000
  H   H1459     1.0  0.96226  0.25313  0.36569  1.0000
  Fe  Fe125     1.0  0.72594  0.27957  0.03175  1.0000
  C   C1805     1.0  0.88008  0.24916  0.13456  1.0000
  S   S249      1.0  0.73115  0.26639  0.08110  1.0000
  H   H1460     1.0  0.91003  0.24968  0.17129  1.0000
  S   S250      1.0  0.71701  0.32798  0.01784  1.0000
  C   C1806     1.0  0.79100  0.33852  0.08993  1.0000
  S   S251      1.0  0.69455  0.29327  0.03007  1.0000
  C   C1807     1.0  0.78534  0.45456  0.43184  1.0000
  H   H1461     1.0  0.62836  0.30106  0.98616  1.0000
  H   H1462     1.0  0.85999  0.45633  0.44762  1.0000
  S   S252      1.0  0.82456  0.25208  0.17298  1.0000
  H   H1463     1.0  0.82089  0.27410  0.24154  1.0000
  S   S253      1.0  0.87615  0.25162  0.33863  1.0000
  C   C1808     1.0  0.65388  0.23507  0.35329  1.0000
  S   S254      1.0  0.96814  0.27153  0.42350  1.0000
  C   C1809     1.0  0.90208  0.25692  0.36176  1.0000
  C   C1810     1.0  0.89958  0.26621  0.38967  1.0000
  C   C1811     1.0  0.91951  0.27079  0.40891  1.0000
  C   C1812     1.0  0.94225  0.26606  0.40055  1.0000
  C   C1813     1.0  0.94475  0.25679  0.37258  1.0000
  C   C1814     1.0  0.92483  0.25227  0.35322  1.0000
  H   H1464     1.0  0.88209  0.26994  0.39636  1.0000
  H   H1465     1.0  0.76294  0.47282  0.23596  1.0000
  C   C1815     1.0  0.64316  0.45127  0.01681  1.0000
  C   C1816     1.0  0.75743  0.26241  0.10588  1.0000
  C   C1817     1.0  0.75593  0.25421  0.13617  1.0000
  C   C1818     1.0  0.77626  0.25086  0.15692  1.0000
  C   C1819     1.0  0.79836  0.25570  0.14758  1.0000
  C   C1820     1.0  0.79993  0.26382  0.11713  1.0000
  C   C1821     1.0  0.77960  0.26716  0.09635  1.0000
  H   H1466     1.0  0.73887  0.25047  0.14374  1.0000
  H   H1467     1.0  0.77477  0.24460  0.18023  1.0000
  H   H1468     1.0  0.81699  0.26751  0.10957  1.0000
  H   H1469     1.0  0.78094  0.27341  0.07302  1.0000
  C   C1822     1.0  0.62982  0.44054  0.00827  1.0000
  C   C1823     1.0  0.90770  0.42468  0.28753  1.0000
  H   H1470     1.0  0.77886  0.35803  0.09592  1.0000
  C   C1824     1.0  0.91954  0.29460  0.30126  1.0000
  C   C1825     1.0  0.93704  0.29101  0.13685  1.0000
  H   H1471     1.0  0.84078  0.31383  0.20605  1.0000
  H   H1472     1.0  0.92318  0.45274  0.30883  1.0000
  H   H1473     1.0  0.92634  0.27345  0.16091  1.0000
  C   C1826     1.0  0.57083  0.46693  0.06947  1.0000
  H   H1474     1.0  0.85629  0.30481  0.07411  1.0000
  C   C1827     1.0  0.80800  0.35633  0.05808  1.0000
  C   C1828     1.0  0.80683  0.43506  0.10839  1.0000
  C   C1829     1.0  0.82707  0.42783  0.11769  1.0000
  C   C1830     1.0  0.83908  0.43006  0.15134  1.0000
  C   C1831     1.0  0.83111  0.43950  0.17645  1.0000
  C   C1832     1.0  0.81079  0.44669  0.16726  1.0000
  C   C1833     1.0  0.79883  0.44449  0.13355  1.0000
  H   H1475     1.0  0.83357  0.42056  0.09884  1.0000
  H   H1476     1.0  0.85475  0.42442  0.15789  1.0000
  H   H1477     1.0  0.80435  0.45400  0.18602  1.0000
  H   H1478     1.0  0.78326  0.45018  0.12681  1.0000
  H   H1479     1.0  0.81971  0.28649  0.07186  1.0000
  C   C1834     1.0  0.73951  0.47301  0.99255  1.0000
  C   C1835     1.0  0.92259  0.25206  0.25166  1.0000
  H   H1480     1.0  0.93753  0.28711  0.10918  1.0000
  C   C1836     1.0  0.80683  0.30819  0.00532  1.0000
  C   C1837     1.0  0.92743  0.29934  0.33509  1.0000
  H   H1481     1.0  0.52255  0.47047  0.01452  1.0000
  H   H1482     1.0  0.95812  0.38379  0.33519  1.0000
  C   C1838     1.0  0.81120  0.30340  0.04066  1.0000
  H   H1483     1.0  0.91728  0.30671  0.34936  1.0000
  C   C1839     1.0  0.87637  0.27866  0.20798  1.0000
  C   C1840     1.0  0.95318  0.45829  0.27719  1.0000
  C   C1841     1.0  0.73446  0.29883  0.12208  1.0000
  Fe  Fe126     1.0  0.97261  0.28399  0.47521  1.0000
  H   H1484     1.0  0.75489  0.28551  0.15435  1.0000
  C   C1842     1.0  0.75555  0.29354  0.13586  1.0000
  H   H1485     1.0  0.77827  0.33511  0.10958  1.0000
  C   C1843     1.0  0.85292  0.27421  0.27408  1.0000
  C   C1844     1.0  0.77482  0.34707  0.98112  1.0000
  H   H1486     1.0  0.78319  0.24335  0.06080  1.0000
  C   C1845     1.0  0.73523  0.30878  0.09691  1.0000
  H   H1487     1.0  0.84396  0.27207  0.29956  1.0000
  C   C1846     1.0  0.77743  0.29811  0.12427  1.0000
  C   C1847     1.0  0.85488  0.43611  0.44409  1.0000
  H   H1488     1.0  0.97719  0.28096  0.34557  1.0000
  C   C1848     1.0  0.57978  0.45536  0.05554  1.0000
  Fe  Fe127     1.0  0.83173  0.23899  0.22205  1.0000
  H   H1489     1.0  0.71889  0.31272  0.08561  1.0000
  C   C1849     1.0  0.67878  0.48187  0.07127  1.0000
  H   H1490     1.0  0.88475  0.42161  0.24082  1.0000
  H   H1491     1.0  0.59591  0.45125  0.06696  1.0000
  H   H1492     1.0  0.76371  0.45682  0.99105  1.0000
  C   C1850     1.0  0.53842  0.46616  0.02590  1.0000
  C   C1851     1.0  0.93359  0.26231  0.23449  1.0000
  H   H1493     1.0  0.93514  0.40319  0.31974  1.0000
  C   C1852     1.0  0.56801  0.44917  0.02674  1.0000
  Fe  Fe128     1.0  0.71971  0.30681  0.00272  1.0000
  C   C1853     1.0  0.94257  0.30377  0.14304  1.0000
  C   C1854     1.0  0.54723  0.45457  0.01163  1.0000
  C   C1855     1.0  0.98046  0.39319  0.37471  1.0000
  H   H1494     1.0  0.70970  0.47520  0.31254  1.0000
  C   C1856     1.0  0.69636  0.47859  0.21241  1.0000
  C   C1857     1.0  0.91570  0.24475  0.47025  1.0000
  C   C1858     1.0  0.83995  0.27538  0.24151  1.0000
  H   H1495     1.0  0.80127  0.26021  0.45410  1.0000
  H   H1496     1.0  0.83652  0.35180  0.02093  1.0000
  H   H1497     1.0  0.95413  0.29788  0.37757  1.0000
  C   C1859     1.0  0.93582  0.30108  0.20824  1.0000
  C   C1860     1.0  0.85166  0.27774  0.20857  1.0000
  S   S255      1.0  0.82399  0.24265  0.28178  1.0000
  C   C1861     1.0  0.70354  0.45505  0.99511  1.0000
  C   C1862     1.0  0.85752  0.42449  0.46280  1.0000
  C   C1863     1.0  0.79829  0.24116  0.00681  1.0000
  C   C1864     1.0  0.75236  0.46754  0.38788  1.0000
  H   H1498     1.0  0.57998  0.47183  0.09150  1.0000
  C   C1865     1.0  0.86768  0.24197  0.10855  1.0000
  H   H1499     1.0  0.74525  0.47929  0.43479  1.0000
  C   C1866     1.0  0.87760  0.27535  0.27369  1.0000
  C   C1867     1.0  0.98575  0.24445  0.47531  1.0000
  H   H1500     1.0  0.78367  0.24610  0.99323  1.0000
  C   C1868     1.0  0.94927  0.40378  0.33988  1.0000
  H   H1501     1.0  0.76382  0.32743  0.98362  1.0000
  C   C1869     1.0  0.94138  0.45041  0.30157  1.0000
  C   C1870     1.0  0.73399  0.46782  0.20005  1.0000
  C   C1871     1.0  0.96374  0.24762  0.21042  1.0000
  H   H1502     1.0  0.97143  0.24514  0.45546  1.0000
  C   C1872     1.0  0.69755  0.46810  0.99620  1.0000
  C   C1873     1.0  0.76558  0.45736  0.37324  1.0000
  H   H1503     1.0  0.67781  0.47993  0.20555  1.0000
  C   C1874     1.0  0.74759  0.36268  0.00715  1.0000
  C   C1875     1.0  0.93085  0.28328  0.16629  1.0000
  C   C1876     1.0  0.73754  0.34004  0.00699  1.0000
  H   H1504     1.0  0.98570  0.42853  0.31681  1.0000
  H   H1505     1.0  0.65041  0.24392  0.33890  1.0000
  H   H1506     1.0  0.76361  0.45477  0.34453  1.0000
  H   H1507     1.0  0.96427  0.26785  0.20291  1.0000
  C   C1877     1.0  0.97643  0.43683  0.30618  1.0000
  C   C1878     1.0  0.92366  0.43652  0.45680  1.0000
  C   C1879     1.0  0.76904  0.35988  0.98930  1.0000
  C   C1880     1.0  0.97649  0.45536  0.26679  1.0000
  H   H1508     1.0  0.99037  0.38458  0.38164  1.0000
  H   H1509     1.0  0.79902  0.44969  0.44764  1.0000
  C   C1881     1.0  0.84408  0.31177  0.17727  1.0000
  H   H1510     1.0  0.80802  0.36642  0.05195  1.0000
  H   H1511     1.0  0.74047  0.47295  0.37033  1.0000
  C   C1882     1.0  0.82582  0.31340  0.15154  1.0000
  H   H1512     1.0  0.88833  0.30191  0.11975  1.0000
  P   P62       1.0  0.80644  0.31319  0.08106  1.0000
  C   C1883     1.0  0.93028  0.28824  0.20230  1.0000
  H   H1513     1.0  0.92709  0.24522  0.33171  1.0000
  C   C1884     1.0  0.95294  0.43971  0.31667  1.0000
  C   C1885     1.0  0.95434  0.41537  0.35746  1.0000
  C   C1886     1.0  0.90941  0.42516  0.32610  1.0000
  P   P63       1.0  0.93699  0.42960  0.34779  1.0000
  H   H1514     1.0  0.71522  0.35511  0.02913  1.0000
  S   S256      1.0  0.75147  0.29366  0.00881  1.0000
  H   H1515     1.0  0.58588  0.30763  0.99190  1.0000
  H   H1516     1.0  0.80856  0.31686  0.16068  1.0000
  H   H1517     1.0  0.71754  0.29495  0.12999  1.0000
  H   H1518     1.0  0.96353  0.27241  0.28613  1.0000
  C   C1887     1.0  0.82357  0.33496  0.04751  1.0000
  H   H1519     1.0  0.88078  0.30646  0.18578  1.0000
  H   H1520     1.0  0.93544  0.30519  0.23559  1.0000
  H   H1521     1.0  0.79257  0.44307  0.38375  1.0000
  H   H1522     1.0  0.84154  0.27837  0.18324  1.0000
  H   H1523     1.0  0.97980  0.24590  0.19468  1.0000
  C   C1888     1.0  0.86660  0.30760  0.16584  1.0000
  C   C1889     1.0  0.96128  0.28487  0.33281  1.0000
  S   S257      1.0  0.81676  0.40618  0.98708  1.0000
  H   H1524     1.0  0.90689  0.25360  0.26836  1.0000
  H   H1525     1.0  0.57530  0.44027  0.01627  1.0000
  H   H1526     1.0  0.74302  0.37244  0.01420  1.0000
  C   C1890     1.0  0.73188  0.35282  0.01573  1.0000
  C   C1891     1.0  0.75530  0.47115  0.42462  1.0000
  H   H1527     1.0  0.83623  0.32869  0.03380  1.0000
  H   H1528     1.0  0.54335  0.48137  0.06517  1.0000
  P   P64       1.0  0.92164  0.27830  0.24020  1.0000
  C   C1892     1.0  0.92639  0.44966  0.46021  1.0000
  S   S258      1.0  0.91067  0.47873  0.33543  1.0000
  H   H1529     1.0  0.83535  0.25076  0.40161  1.0000
  C   C1893     1.0  0.80667  0.33006  0.07165  1.0000
  H   H1530     1.0  0.65061  0.45225  0.04413  1.0000
  H   H1531     1.0  0.93807  0.45684  0.37161  1.0000
  H   H1532     1.0  0.85181  0.41579  0.44965  1.0000
  C   C1894     1.0  0.71000  0.46988  0.19167  1.0000
  H   H1533     1.0  0.88734  0.27418  0.29916  1.0000
  C   C1895     1.0  0.94824  0.29444  0.35092  1.0000
  C   C1896     1.0  0.88639  0.42137  0.27052  1.0000
  C   C1897     1.0  0.90079  0.24423  0.15058  1.0000
  H   H1534     1.0  0.92258  0.42711  0.27041  1.0000
  H   H1535     1.0  0.69865  0.46594  0.37187  1.0000
  C   C1898     1.0  0.82985  0.31066  0.11424  1.0000
  C   C1899     1.0  0.85258  0.30661  0.10289  1.0000
  C   C1900     1.0  0.95335  0.28001  0.29917  1.0000
  H   H1536     1.0  0.66386  0.24434  0.40385  1.0000
  H   H1537     1.0  0.91842  0.24640  0.44126  1.0000
  C   C1901     1.0  0.69438  0.47905  0.32691  1.0000
  C   C1902     1.0  0.94192  0.30880  0.17870  1.0000
  H   H1538     1.0  0.79351  0.29345  0.13398  1.0000
  C   C1903     1.0  0.87084  0.30502  0.12868  1.0000
  H   H1539     1.0  0.70198  0.46466  0.16919  1.0000
  C   C1904     1.0  0.68827  0.47379  0.36074  1.0000
  C   C1905     1.0  0.93158  0.45687  0.42926  1.0000
  C   C1906     1.0  0.93420  0.45095  0.39493  1.0000
  C   C1907     1.0  0.93185  0.43769  0.39130  1.0000
  C   C1908     1.0  0.92625  0.43055  0.42253  1.0000
  H   H1540     1.0  0.80114  0.31798  0.00144  1.0000
  C   C1909     1.0  0.79150  0.35158  0.08277  1.0000
  H   H1541     1.0  0.90332  0.29847  0.28946  1.0000
  H   H1542     1.0  0.75728  0.32063  0.06428  1.0000
  C   C1910     1.0  0.95471  0.26005  0.21482  1.0000
  H   H1543     1.0  0.98696  0.45884  0.36419  1.0000
  C   C1911     1.0  0.86676  0.41826  0.29173  1.0000
  C   C1912     1.0  0.86849  0.41833  0.33002  1.0000
  C   C1913     1.0  0.88967  0.42182  0.34723  1.0000
  C   C1914     1.0  0.93231  0.28478  0.28323  1.0000
  S   S259      1.0  0.75972  0.40688  0.00539  1.0000
  C   C1915     1.0  0.82405  0.34804  0.04051  1.0000
  C   C1916     1.0  0.95213  0.23742  0.22642  1.0000
  C   C1917     1.0  0.93173  0.23966  0.24739  1.0000
  H   H1544     1.0  0.93342  0.46710  0.43171  1.0000
  C   C1918     1.0  0.88958  0.27754  0.24064  1.0000
  H   H1545     1.0  0.92392  0.42036  0.42049  1.0000
  C   C1919     1.0  0.77835  0.30822  0.09929  1.0000
  H   H1546     1.0  0.85003  0.41614  0.27842  1.0000
  H   H1547     1.0  0.85311  0.41613  0.34646  1.0000
  H   H1548     1.0  0.89019  0.42221  0.37691  1.0000
  H   H1549     1.0  0.94406  0.46665  0.26636  1.0000
  C   C1920     1.0  0.86209  0.44732  0.46152  1.0000
  H   H1550     1.0  0.87308  0.25839  0.14307  1.0000
  H   H1551     1.0  0.97699  0.42464  0.39729  1.0000
  H   H1552     1.0  0.66439  0.47480  0.40692  1.0000
  C   C1921     1.0  0.66047  0.47909  0.04635  1.0000
  H   H1553     1.0  0.81485  0.47654  0.44370  1.0000
  C   C1922     1.0  0.98809  0.44460  0.28117  1.0000
  H   H1554     1.0  0.94622  0.31870  0.18348  1.0000
  H   H1555     1.0  0.74457  0.46104  0.18411  1.0000
  C   C1923     1.0  0.84055  0.24091  0.40584  1.0000
  C   C1924     1.0  0.78197  0.45084  0.39528  1.0000
  H   H1556     1.0  0.54427  0.42086  0.99281  1.0000
  H   H1557     1.0  0.98542  0.46144  0.24752  1.0000
  C   C1925     1.0  0.64760  0.46041  0.98984  1.0000
  H   H1558     1.0  0.69720  0.48040  0.06380  1.0000
  C   C1926     1.0  0.77170  0.46462  0.44708  1.0000
  H   H1559     1.0  0.94738  0.30977  0.12021  1.0000
  H   H1560     1.0  0.81114  0.23355  0.37474  1.0000
  C   C1927     1.0  0.81878  0.28240  0.01403  1.0000
  C   C1928     1.0  0.49557  0.44222  0.02375  1.0000
  H   H1561     1.0  0.62236  0.47879  0.03877  1.0000
  P   P65       1.0  0.66695  0.47348  0.00020  1.0000
  C   C1929     1.0  0.50574  0.43920  0.98947  1.0000
  C   C1930     1.0  0.74435  0.47445  0.22918  1.0000
  C   C1931     1.0  0.74530  0.46001  0.99220  1.0000
  C   C1932     1.0  0.79810  0.23969  0.04490  1.0000
  C   C1933     1.0  0.55010  0.47230  0.05472  1.0000
  S   S260      1.0  0.87089  0.23602  0.23296  1.0000
  H   H1562     1.0  0.82264  0.27233  0.01746  1.0000
  C   C1934     1.0  0.66153  0.23530  0.38986  1.0000
  C   C1935     1.0  0.72732  0.45105  0.99332  1.0000
  C   C1936     1.0  0.86158  0.23795  0.42469  1.0000
  C   C1937     1.0  0.66890  0.47872  0.38044  1.0000
  C   C1938     1.0  0.81376  0.25710  0.47503  1.0000
  C   C1939     1.0  0.81714  0.23609  0.98620  1.0000
  H   H1563     1.0  0.69007  0.44785  0.99536  1.0000
  H   H1564     1.0  0.73182  0.44096  0.99248  1.0000
  H   H1565     1.0  0.89285  0.47661  0.41136  1.0000
  C   C1940     1.0  0.71574  0.47706  0.99447  1.0000
  C   C1941     1.0  0.63677  0.48092  0.05745  1.0000
  H   H1566     1.0  0.84005  0.27085  0.46058  1.0000
  H   H1567     1.0  0.75351  0.47993  0.99148  1.0000
  H   H1568     1.0  0.98236  0.47306  0.41860  1.0000
  H   H1569     1.0  0.50301  0.44946  0.04138  1.0000
  C   C1942     1.0  0.75922  0.33721  0.99005  1.0000
  C   C1943     1.0  0.81458  0.28725  0.97893  1.0000
  Fe  Fe129     1.0  0.64011  0.47434  0.83109  1.0000
  Fe  Fe130     1.0  0.80771  0.41546  0.93273  1.0000
  S   S261      1.0  0.83701  0.42044  0.89127  1.0000
  S   S262      1.0  0.77779  0.40238  0.92009  1.0000
  Fe  Fe131     1.0  0.59034  0.46505  0.81671  1.0000
  S   S263      1.0  0.57070  0.44628  0.81819  1.0000
  S   S264      1.0  0.67857  0.46975  0.84603  1.0000
  Fe  Fe132     1.0  0.75447  0.41653  0.95077  1.0000
  S   S265      1.0  0.62234  0.46694  0.77990  1.0000
  Fe  Fe133     1.0  0.89956  0.42065  0.60370  1.0000
  S   S266      1.0  0.93790  0.41397  0.60743  1.0000
  S   S267      1.0  0.88752  0.43531  0.56050  1.0000
  Fe  Fe134     1.0  0.88755  0.41046  0.68150  1.0000
  S   S268      1.0  0.92502  0.40346  0.68996  1.0000
  S   S269      1.0  0.85651  0.40669  0.72106  1.0000
  Fe  Fe135     1.0  0.93688  0.42189  0.66488  1.0000
  Fe  Fe136     1.0  0.68718  0.28565  0.97336  1.0000
  Fe  Fe137     1.0  0.92340  0.39587  0.63168  1.0000
  S   S270      1.0  0.94025  0.37572  0.62736  1.0000
  S   S271      1.0  0.89929  0.42941  0.66052  1.0000
  S   S272      1.0  0.88502  0.40200  0.62405  1.0000
  C   C1944     1.0  0.81500  0.43675  0.55418  1.0000
  H   H1570     1.0  0.69595  0.37117  0.84558  1.0000
  S   S273      1.0  0.71054  0.29996  0.94591  1.0000
  H   H1571     1.0  0.70122  0.39493  0.96384  1.0000
  S   S274      1.0  0.76883  0.28360  0.90865  1.0000
  Fe  Fe138     1.0  0.96603  0.30876  0.51990  1.0000
  S   S275      1.0  0.94839  0.32855  0.51468  1.0000
  C   C1945     1.0  0.50662  0.43053  0.83855  1.0000
  H   H1572     1.0  0.74485  0.23890  0.81964  1.0000
  Fe  Fe139     1.0  0.96914  0.28315  0.55912  1.0000
  S   S276      1.0  0.96128  0.26888  0.60446  1.0000
  S   S277      1.0  0.94455  0.29069  0.51521  1.0000
  H   H1573     1.0  0.69521  0.37693  0.78033  1.0000
  C   C1946     1.0  0.91955  0.25200  0.53319  1.0000
  H   H1574     1.0  0.50857  0.24589  0.86774  1.0000
  S   S278      1.0  0.86742  0.25522  0.69286  1.0000
  H   H1575     1.0  0.85192  0.28151  0.71632  1.0000
  H   H1576     1.0  0.85672  0.31353  0.64437  1.0000
  C   C1947     1.0  0.89354  0.25872  0.66788  1.0000
  C   C1948     1.0  0.91456  0.25160  0.67208  1.0000
  C   C1949     1.0  0.93505  0.25487  0.65238  1.0000
  C   C1950     1.0  0.93476  0.26523  0.62812  1.0000
  C   C1951     1.0  0.91366  0.27226  0.62346  1.0000
  C   C1952     1.0  0.89319  0.26903  0.64335  1.0000
  C   C1953     1.0  0.78074  0.24584  0.58393  1.0000
  H   H1577     1.0  0.95128  0.24937  0.65618  1.0000
  H   H1578     1.0  0.91315  0.28023  0.60482  1.0000
  P   P66       1.0  0.53201  0.44712  0.97352  1.0000
  H   H1579     1.0  0.78127  0.25108  0.55857  1.0000
  C   C1954     1.0  0.76705  0.25738  0.89819  1.0000
  C   C1955     1.0  0.77683  0.26888  0.88727  1.0000
  C   C1956     1.0  0.79326  0.26878  0.85821  1.0000
  C   C1957     1.0  0.79961  0.25734  0.83987  1.0000
  C   C1958     1.0  0.53337  0.33236  0.74248  1.0000
  H   H1580     1.0  0.75447  0.25731  0.92056  1.0000
  H   H1581     1.0  0.80098  0.27763  0.84961  1.0000
  H   H1582     1.0  0.81201  0.25743  0.81723  1.0000
  C   C1959     1.0  0.94217  0.36280  0.59530  1.0000
  C   C1960     1.0  0.95624  0.35205  0.60436  1.0000
  C   C1961     1.0  0.95799  0.34140  0.58051  1.0000
  C   C1962     1.0  0.94600  0.34146  0.54680  1.0000
  C   C1963     1.0  0.93214  0.35227  0.53754  1.0000
  C   C1964     1.0  0.93013  0.36286  0.56165  1.0000
  H   H1583     1.0  0.96593  0.35200  0.63003  1.0000
  H   H1584     1.0  0.96890  0.33323  0.58793  1.0000
  H   H1585     1.0  0.92281  0.35245  0.51154  1.0000
  H   H1586     1.0  0.91924  0.37103  0.55423  1.0000
  C   C1965     1.0  0.87463  0.43520  0.51586  1.0000
  C   C1966     1.0  0.52277  0.34907  0.88241  1.0000
  C   C1967     1.0  0.71867  0.23712  0.94857  1.0000
  H   H1587     1.0  0.99015  0.33071  0.67296  1.0000
  H   H1588     1.0  0.65526  0.31469  0.85990  1.0000
  C   C1968     1.0  0.97190  0.39220  0.54830  1.0000
  H   H1589     1.0  0.78925  0.42830  0.66397  1.0000
  H   H1590     1.0  0.59602  0.24129  0.85579  1.0000
  C   C1969     1.0  0.70586  0.43481  0.91032  1.0000
  C   C1970     1.0  0.72092  0.44484  0.90213  1.0000
  C   C1971     1.0  0.71208  0.45557  0.88316  1.0000
  C   C1972     1.0  0.68827  0.45635  0.87176  1.0000
  C   C1973     1.0  0.67314  0.44639  0.88020  1.0000
  C   C1974     1.0  0.68189  0.43570  0.89951  1.0000
  H   H1591     1.0  0.73938  0.44433  0.91036  1.0000
  H   H1592     1.0  0.72373  0.46333  0.87723  1.0000
  H   H1593     1.0  0.65478  0.44686  0.87149  1.0000
  C   C1975     1.0  0.84206  0.41629  0.84402  1.0000
  C   C1976     1.0  0.82609  0.40909  0.82326  1.0000
  C   C1977     1.0  0.83090  0.40620  0.78591  1.0000
  C   C1978     1.0  0.85172  0.41040  0.76867  1.0000
  C   C1979     1.0  0.86763  0.41762  0.78942  1.0000
  C   C1980     1.0  0.86277  0.42056  0.82668  1.0000
  H   H1594     1.0  0.81007  0.40574  0.83599  1.0000
  H   H1595     1.0  0.81841  0.40066  0.77023  1.0000
  H   H1596     1.0  0.88366  0.42098  0.77673  1.0000
  H   H1597     1.0  0.87525  0.42615  0.84230  1.0000
  H   H1598     1.0  0.56920  0.40428  0.96271  1.0000
  H   H1599     1.0  0.74172  0.38664  0.95120  1.0000
  C   C1981     1.0  0.52373  0.45461  0.82002  1.0000
  C   C1982     1.0  0.53987  0.44458  0.82591  1.0000
  C   C1983     1.0  0.53121  0.43256  0.83546  1.0000
  H   H1600     1.0  0.50018  0.42123  0.84562  1.0000
  H   H1601     1.0  0.53018  0.46388  0.81260  1.0000
  H   H1602     1.0  0.54355  0.42471  0.83983  1.0000
  C   C1984     1.0  0.92277  0.25398  0.49567  1.0000
  C   C1985     1.0  0.65866  0.31878  0.91761  1.0000
  C   C1986     1.0  0.62072  0.43890  0.97284  1.0000
  C   C1987     1.0  0.49994  0.34101  0.70842  1.0000
  H   H1603     1.0  0.74433  0.45831  0.54812  1.0000
  H   H1604     1.0  0.50256  0.42744  0.94049  1.0000
  H   H1605     1.0  0.87701  0.45558  0.51072  1.0000
  H   H1606     1.0  0.92410  0.45422  0.48683  1.0000
  H   H1607     1.0  0.68401  0.33086  0.84112  1.0000
  H   H1608     1.0  0.97751  0.40762  0.68144  1.0000
  H   H1609     1.0  0.54904  0.23699  0.85644  1.0000
  S   S279      1.0  0.96434  0.43493  0.69164  1.0000
  H   H1610     1.0  0.76261  0.35592  0.86581  1.0000
  Fe  Fe140     1.0  0.86059  0.23772  0.72834  1.0000
  C   C1988     1.0  0.59052  0.29885  0.97773  1.0000
  C   C1989     1.0  0.62496  0.25045  0.82865  1.0000
  H   H1611     1.0  0.72947  0.32355  0.91550  1.0000
  H   H1612     1.0  0.67009  0.42801  0.90579  1.0000
  H   H1613     1.0  0.67202  0.36197  0.91125  1.0000
  C   C1990     1.0  0.66971  0.32627  0.94430  1.0000
  C   C1991     1.0  0.64962  0.25121  0.82534  1.0000
  H   H1614     1.0  0.93681  0.39675  0.52830  1.0000
  C   C1992     1.0  0.86752  0.42400  0.49836  1.0000
  H   H1615     1.0  0.72791  0.34090  0.75190  1.0000
  C   C1993     1.0  0.50761  0.48080  0.57031  1.0000
  C   C1994     1.0  0.74488  0.32836  0.90536  1.0000
  C   C1995     1.0  0.70243  0.36773  0.78846  1.0000
  C   C1996     1.0  0.76359  0.34654  0.87796  1.0000
  C   C1997     1.0  0.70272  0.26186  0.84776  1.0000
  C   C1998     1.0  0.68691  0.27010  0.86659  1.0000
  C   C1999     1.0  0.69160  0.28308  0.86974  1.0000
  C   C2000     1.0  0.71238  0.28793  0.85498  1.0000
  C   C2001     1.0  0.72840  0.27980  0.83676  1.0000
  C   C2002     1.0  0.72364  0.26683  0.83312  1.0000
  C   C2003     1.0  0.66462  0.24324  0.84623  1.0000
  H   H1616     1.0  0.49266  0.34511  0.68349  1.0000
  C   C2004     1.0  0.63860  0.45863  0.95421  1.0000
  C   C2005     1.0  0.98631  0.38804  0.69352  1.0000
  C   C2006     1.0  0.68409  0.37884  0.93854  1.0000
  H   H1617     1.0  0.67114  0.26655  0.87970  1.0000
  H   H1618     1.0  0.67940  0.28928  0.88479  1.0000
  H   H1619     1.0  0.71649  0.29790  0.85878  1.0000
  H   H1620     1.0  0.74502  0.28347  0.82677  1.0000
  H   H1621     1.0  0.87701  0.27459  0.63983  1.0000
  C   C2007     1.0  0.56770  0.41369  0.95079  1.0000
  C   C2008     1.0  0.71046  0.36265  0.91181  1.0000
  C   C2009     1.0  0.69129  0.44602  0.78004  1.0000
  C   C2010     1.0  0.71208  0.43961  0.79085  1.0000
  C   C2011     1.0  0.73391  0.44243  0.77446  1.0000
  C   C2012     1.0  0.73456  0.45200  0.74770  1.0000
  P   P67       1.0  0.76134  0.43537  0.79147  1.0000
  C   C2013     1.0  0.77164  0.44496  0.82951  1.0000
  C   C2014     1.0  0.75658  0.41920  0.80641  1.0000
  C   C2015     1.0  0.74450  0.41698  0.83935  1.0000
  C   C2016     1.0  0.73980  0.40455  0.85033  1.0000
  C   C2017     1.0  0.74807  0.39419  0.82944  1.0000
  C   C2018     1.0  0.76073  0.39628  0.79714  1.0000
  C   C2019     1.0  0.76484  0.40871  0.78550  1.0000
  C   C2020     1.0  0.78784  0.43980  0.85492  1.0000
  C   C2021     1.0  0.79706  0.44744  0.88297  1.0000
  C   C2022     1.0  0.78969  0.46015  0.88660  1.0000
  C   C2023     1.0  0.77337  0.46532  0.86169  1.0000
  C   C2024     1.0  0.76448  0.45780  0.83308  1.0000
  C   C2025     1.0  0.78347  0.43504  0.75551  1.0000
  C   C2026     1.0  0.77698  0.43189  0.71929  1.0000
  C   C2027     1.0  0.79420  0.43100  0.69169  1.0000
  C   C2028     1.0  0.81799  0.43322  0.70005  1.0000
  C   C2029     1.0  0.82455  0.43642  0.73591  1.0000
  C   C2030     1.0  0.80745  0.43725  0.76362  1.0000
  C   C2031     1.0  0.80876  0.30014  0.97458  1.0000
  Fe  Fe141     1.0  0.50381  0.28938  0.96093  1.0000
  H   H1622     1.0  0.67467  0.44411  0.79372  1.0000
  H   H1623     1.0  0.71098  0.43281  0.81284  1.0000
  H   H1624     1.0  0.90686  0.23933  0.57458  1.0000
  H   H1625     1.0  0.73874  0.42486  0.85666  1.0000
  H   H1626     1.0  0.73030  0.40297  0.87572  1.0000
  H   H1627     1.0  0.74508  0.38458  0.83873  1.0000
  H   H1628     1.0  0.76766  0.38827  0.78131  1.0000
  H   H1629     1.0  0.77487  0.41002  0.76058  1.0000
  H   H1630     1.0  0.79377  0.42996  0.85264  1.0000
  H   H1631     1.0  0.81008  0.44349  0.90188  1.0000
  C   C2032     1.0  0.69134  0.33727  0.89669  1.0000
  C   C2033     1.0  0.62500  0.44797  0.94590  1.0000
  H   H1632     1.0  0.75189  0.46205  0.81414  1.0000
  H   H1633     1.0  0.75871  0.42982  0.71260  1.0000
  C   C2034     1.0  0.72655  0.38135  0.94182  1.0000
  H   H1634     1.0  0.83152  0.43210  0.67907  1.0000
  H   H1635     1.0  0.84313  0.43773  0.74253  1.0000
  H   H1636     1.0  0.81326  0.43925  0.79138  1.0000
  C   C2035     1.0  0.78567  0.34030  0.88056  1.0000
  C   C2036     1.0  0.78730  0.32802  0.89495  1.0000
  C   C2037     1.0  0.76686  0.32201  0.90703  1.0000
  H   H1637     1.0  0.80153  0.34502  0.87140  1.0000
  H   H1638     1.0  0.80437  0.32316  0.89680  1.0000
  H   H1639     1.0  0.76798  0.31246  0.91810  1.0000
  C   C2038     1.0  0.65457  0.23424  0.86961  1.0000
  C   C2039     1.0  0.98256  0.31115  0.66006  1.0000
  C   C2040     1.0  0.79568  0.23518  0.58966  1.0000
  C   C2041     1.0  0.50154  0.42806  0.70878  1.0000
  C   C2042     1.0  0.97041  0.47793  0.84935  1.0000
  H   H1640     1.0  0.61350  0.25689  0.81333  1.0000
  H   H1641     1.0  0.67603  0.46069  0.74597  1.0000
  S   S280      1.0  0.98871  0.30157  0.56648  1.0000
  H   H1642     1.0  0.73675  0.26078  0.81985  1.0000
  P   P68       1.0  0.69644  0.24503  0.84391  1.0000
  C   C2043     1.0  0.77345  0.24594  0.87992  1.0000
  C   C2044     1.0  0.49531  0.42980  0.96733  1.0000
  S   S281      1.0  0.60915  0.47115  0.86846  1.0000
  C   C2045     1.0  0.49753  0.32644  0.87895  1.0000
  C   C2046     1.0  0.51877  0.33067  0.77301  1.0000
  C   C2047     1.0  0.52385  0.45093  0.69101  1.0000
  H   H1643     1.0  0.61651  0.44670  0.70895  1.0000
  H   H1644     1.0  0.78751  0.42493  0.53217  1.0000
  C   C2048     1.0  0.73000  0.36980  0.92309  1.0000
  S   S282      1.0  0.78382  0.43033  0.96008  1.0000
  H   H1645     1.0  0.76751  0.47516  0.86457  1.0000
  C   C2049     1.0  0.79093  0.45702  0.51945  1.0000
  H   H1646     1.0  0.76579  0.23711  0.88855  1.0000
  H   H1647     1.0  0.52635  0.32666  0.79785  1.0000
  C   C2050     1.0  0.49459  0.33417  0.77149  1.0000
  H   H1648     1.0  0.82480  0.42890  0.56663  1.0000
  C   C2051     1.0  0.70979  0.23724  0.88316  1.0000
  H   H1649     1.0  0.86881  0.26358  0.50800  1.0000
  C   C2052     1.0  0.60294  0.27637  0.94095  1.0000
  C   C2053     1.0  0.83559  0.26309  0.47863  1.0000
  C   C2054     1.0  0.74886  0.47508  0.51466  1.0000
  C   C2055     1.0  0.71370  0.45840  0.73697  1.0000
  C   C2056     1.0  0.70831  0.23839  0.80150  1.0000
  H   H1650     1.0  0.55202  0.32971  0.74398  1.0000
  C   C2057     1.0  0.69324  0.23492  0.77240  1.0000
  H   H1651     1.0  0.89768  0.47651  0.47915  1.0000
  C   C2058     1.0  0.55356  0.42310  0.96771  1.0000
  H   H1652     1.0  0.79670  0.46595  0.90870  1.0000
  C   C2059     1.0  0.66376  0.32057  0.88045  1.0000
  H   H1653     1.0  0.51570  0.32147  0.92921  1.0000
  C   C2060     1.0  0.68006  0.32977  0.86995  1.0000
  H   H1654     1.0  0.69484  0.34095  0.95509  1.0000
  C   C2061     1.0  0.81178  0.45919  0.53971  1.0000
  H   H1655     1.0  0.61829  0.44662  0.91823  1.0000
  C   C2062     1.0  0.57965  0.41634  0.91822  1.0000
  H   H1656     1.0  0.71116  0.36189  0.73317  1.0000
  C   C2063     1.0  0.73713  0.46751  0.54030  1.0000
  H   H1657     1.0  0.86955  0.41499  0.51231  1.0000
  C   C2064     1.0  0.61915  0.46197  0.67008  1.0000
  C   C2065     1.0  0.52560  0.47146  0.57058  1.0000
  C   C2066     1.0  0.95084  0.48094  0.82720  1.0000
  C   C2067     1.0  0.52416  0.45948  0.94121  1.0000
  H   H1658     1.0  0.91916  0.43100  0.48078  1.0000
  H   H1659     1.0  0.81701  0.23701  0.95651  1.0000
  C   C2068     1.0  0.55116  0.43525  0.95205  1.0000
  Fe  Fe142     1.0  0.74071  0.28582  0.95346  1.0000
  C   C2069     1.0  0.51225  0.47598  0.74066  1.0000
  C   C2070     1.0  0.82372  0.44908  0.55694  1.0000
  C   C2071     1.0  0.54026  0.46923  0.93416  1.0000
  H   H1660     1.0  0.50660  0.44862  0.63798  1.0000
  C   C2072     1.0  0.85180  0.25899  0.50530  1.0000
  P   P69       1.0  0.77659  0.46977  0.49402  1.0000
  S   S283      1.0  0.78937  0.37190  0.97687  1.0000
  C   C2073     1.0  0.53452  0.23430  0.83859  1.0000
  C   C2074     1.0  0.56335  0.43786  0.91942  1.0000
  C   C2075     1.0  0.57758  0.42843  0.90272  1.0000
  C   C2076     1.0  0.61472  0.29514  0.97447  1.0000
  C   C2077     1.0  0.51591  0.43411  0.73459  1.0000
  C   C2078     1.0  0.95562  0.39855  0.52557  1.0000
  C   C2079     1.0  0.74302  0.34070  0.89086  1.0000
  H   H1661     1.0  0.81931  0.46857  0.54158  1.0000
  C   C2080     1.0  0.87169  0.44686  0.49733  1.0000
  H   H1662     1.0  0.75373  0.25829  0.60701  1.0000
  C   C2081     1.0  0.50953  0.44470  0.66502  1.0000
  C   C2082     1.0  0.50226  0.45947  0.92272  1.0000
  C   C2083     1.0  0.80813  0.24699  0.49806  1.0000
  H   H1663     1.0  0.74799  0.36652  0.91824  1.0000
  C   C2084     1.0  0.56950  0.46420  0.67629  1.0000
  H   H1664     1.0  0.84702  0.24068  0.61203  1.0000
  H   H1665     1.0  0.55741  0.46937  0.94770  1.0000
  H   H1666     1.0  0.76612  0.44271  0.50169  1.0000
  H   H1667     1.0  0.83482  0.29504  0.66704  1.0000
  H   H1668     1.0  0.71437  0.46592  0.71684  1.0000
  C   C2085     1.0  0.79405  0.43453  0.53469  1.0000
  H   H1669     1.0  0.56172  0.44705  0.90629  1.0000
  H   H1670     1.0  0.58673  0.43047  0.87732  1.0000
  H   H1671     1.0  0.93302  0.47936  0.83714  1.0000
  C   C2086     1.0  0.69208  0.45543  0.75322  1.0000
  H   H1672     1.0  0.72895  0.33494  0.81738  1.0000
  C   C2087     1.0  0.57226  0.29130  0.96308  1.0000
  C   C2088     1.0  0.89514  0.32233  0.55151  1.0000
  H   H1673     1.0  0.79146  0.34477  0.96767  1.0000
  H   H1674     1.0  0.96405  0.23656  0.51779  1.0000
  H   H1675     1.0  0.49273  0.41933  0.71594  1.0000
  H   H1676     1.0  0.87272  0.33403  0.51718  1.0000
  C   C2089     1.0  0.90546  0.23341  0.48211  1.0000
  C   C2090     1.0  0.49915  0.45250  0.82211  1.0000
  C   C2091     1.0  0.78199  0.44463  0.51751  1.0000
  S   S284      1.0  0.71615  0.42091  0.93335  1.0000
  H   H1677     1.0  0.91513  0.24368  0.69095  1.0000
  H   H1678     1.0  0.56501  0.27404  0.93328  1.0000
  C   C2092     1.0  0.51335  0.32858  0.90792  1.0000
  C   C2093     1.0  0.53460  0.46695  0.60397  1.0000
  C   C2094     1.0  0.50753  0.48113  0.63691  1.0000
  C   C2095     1.0  0.57870  0.27995  0.94482  1.0000
  C   C2096     1.0  0.71253  0.35258  0.83648  1.0000
  H   H1679     1.0  0.50158  0.46752  0.73975  1.0000
  C   C2097     1.0  0.52578  0.47184  0.63739  1.0000
  C   C2098     1.0  0.73290  0.23654  0.79742  1.0000
  H   H1680     1.0  0.96545  0.38554  0.56827  1.0000
  H   H1681     1.0  0.75127  0.45482  0.73593  1.0000
  C   C2099     1.0  0.98160  0.23969  0.51041  1.0000
  C   C2100     1.0  0.71143  0.35927  0.76191  1.0000
  H   H1682     1.0  0.84022  0.45069  0.57156  1.0000
  H   H1683     1.0  0.65703  0.25826  0.80730  1.0000
  H   H1684     1.0  0.53234  0.35791  0.88401  1.0000
  C   C2101     1.0  0.68743  0.36725  0.91985  1.0000
  C   C2102     1.0  0.96481  0.30230  0.65334  1.0000
  P   P70       1.0  0.71423  0.34830  0.88442  1.0000
  C   C2103     1.0  0.70288  0.36440  0.82559  1.0000
  C   C2104     1.0  0.78957  0.24585  0.85046  1.0000
  C   C2105     1.0  0.94094  0.30612  0.65440  1.0000
  C   C2106     1.0  0.93456  0.31881  0.66294  1.0000
  C   C2107     1.0  0.95252  0.32763  0.66979  1.0000
  P   P71       1.0  0.90362  0.32372  0.66333  1.0000
  C   C2108     1.0  0.89959  0.33788  0.69152  1.0000
  C   C2109     1.0  0.89388  0.32702  0.61695  1.0000
  C   C2110     1.0  0.87628  0.33639  0.61034  1.0000
  C   C2111     1.0  0.86872  0.33893  0.57448  1.0000
  C   C2112     1.0  0.90313  0.31994  0.58722  1.0000
  C   C2113     1.0  0.89009  0.33717  0.72708  1.0000
  C   C2114     1.0  0.88655  0.34826  0.74814  1.0000
  C   C2115     1.0  0.89249  0.36011  0.73392  1.0000
  C   C2116     1.0  0.90211  0.36088  0.69871  1.0000
  C   C2117     1.0  0.90567  0.34984  0.67761  1.0000
  C   C2118     1.0  0.88653  0.31079  0.68142  1.0000
  C   C2119     1.0  0.89578  0.30324  0.70999  1.0000
  C   C2120     1.0  0.88329  0.29274  0.72249  1.0000
  C   C2121     1.0  0.86133  0.28981  0.70703  1.0000
  C   C2122     1.0  0.85178  0.29741  0.67912  1.0000
  C   C2123     1.0  0.86430  0.30787  0.66632  1.0000
  H   H1685     1.0  0.79120  0.24239  0.49466  1.0000
  H   H1686     1.0  0.53534  0.33894  0.68666  1.0000
  H   H1687     1.0  0.80483  0.30374  0.94740  1.0000
  H   H1688     1.0  0.92752  0.29915  0.64831  1.0000
  H   H1689     1.0  0.94826  0.33748  0.67598  1.0000
  H   H1690     1.0  0.86847  0.34183  0.63277  1.0000
  H   H1691     1.0  0.85568  0.34643  0.56948  1.0000
  H   H1692     1.0  0.91672  0.31268  0.59126  1.0000
  H   H1693     1.0  0.88526  0.32812  0.73861  1.0000
  H   H1694     1.0  0.87911  0.34771  0.77549  1.0000
  H   H1695     1.0  0.88962  0.36874  0.75007  1.0000
  H   H1696     1.0  0.90678  0.37008  0.68766  1.0000
  H   H1697     1.0  0.91309  0.35067  0.65030  1.0000
  H   H1698     1.0  0.91286  0.30532  0.72215  1.0000
  H   H1699     1.0  0.89077  0.28670  0.74374  1.0000
  H   H1700     1.0  0.70683  0.46597  0.57605  1.0000
  H   H1701     1.0  0.90274  0.31701  0.52862  1.0000
  C   C2124     1.0  0.49840  0.43334  0.67396  1.0000
  H   H1702     1.0  0.54847  0.45966  0.60375  1.0000
  S   S285      1.0  0.65153  0.27906  0.94876  1.0000
  C   C2125     1.0  0.68595  0.33548  0.93392  1.0000
  C   C2126     1.0  0.52580  0.33994  0.90985  1.0000
  H   H1703     1.0  0.69996  0.25232  0.92142  1.0000
  C   C2127     1.0  0.87821  0.33193  0.54505  1.0000
  H   H1704     1.0  0.60760  0.26766  0.92641  1.0000
  H   H1705     1.0  0.59045  0.40903  0.90485  1.0000
  H   H1706     1.0  0.61628  0.47778  0.63293  1.0000
  H   H1707     1.0  0.96950  0.29251  0.64652  1.0000
  C   C2128     1.0  0.84614  0.24896  0.52856  1.0000
  C   C2129     1.0  0.82419  0.24288  0.52528  1.0000
  C   C2130     1.0  0.62116  0.28390  0.95580  1.0000
  C   C2131     1.0  0.52398  0.33755  0.71022  1.0000
  H   H1708     1.0  0.51829  0.43003  0.76159  1.0000
  S   S286      1.0  0.54204  0.29684  0.96712  1.0000
  C   C2132     1.0  0.97641  0.32380  0.66825  1.0000
  C   C2133     1.0  0.72085  0.34745  0.77246  1.0000
  H   H1709     1.0  0.66621  0.32473  0.97322  1.0000
  H   H1710     1.0  0.92523  0.25914  0.55282  1.0000
  H   H1711     1.0  0.71789  0.24179  0.97526  1.0000
  C   C2134     1.0  0.72140  0.34410  0.80958  1.0000
  C   C2135     1.0  0.96352  0.40743  0.50023  1.0000
  H   H1712     1.0  0.53771  0.34165  0.93271  1.0000
  H   H1713     1.0  0.64240  0.46528  0.93255  1.0000
  C   C2136     1.0  0.70864  0.24311  0.91791  1.0000
  H   H1714     1.0  0.66634  0.38236  0.94462  1.0000
  Fe  Fe143     1.0  0.78517  0.39370  0.97545  1.0000
  C   C2137     1.0  0.52696  0.44550  0.72586  1.0000
  C   C2138     1.0  0.61510  0.24165  0.85255  1.0000
  C   C2139     1.0  0.70367  0.38592  0.94940  1.0000
  C   C2140     1.0  0.53454  0.47879  0.90900  1.0000
  C   C2141     1.0  0.49294  0.23582  0.82228  1.0000
  H   H1715     1.0  0.96775  0.47405  0.87651  1.0000
  C   C2142     1.0  0.49657  0.46911  0.89774  1.0000
  H   H1716     1.0  0.95080  0.41251  0.48317  1.0000
  H   H1717     1.0  0.53769  0.45016  0.74653  1.0000
  H   H1718     1.0  0.64642  0.31147  0.92583  1.0000
  H   H1719     1.0  0.97903  0.38855  0.72102  1.0000
  P   P72       1.0  0.53754  0.46594  0.68041  1.0000
  S   S287      1.0  0.86224  0.23608  0.79028  1.0000
  C   C2143     1.0  0.90925  0.24079  0.54535  1.0000
  S   S288      1.0  0.71704  0.27095  0.97662  1.0000
  C   C2144     1.0  0.50737  0.34682  0.85294  1.0000
  C   C2145     1.0  0.71586  0.47183  0.55633  1.0000
  H   H1720     1.0  0.85904  0.24607  0.54890  1.0000
  C   C2146     1.0  0.58210  0.47249  0.65362  1.0000
  C   C2147     1.0  0.98524  0.39877  0.67111  1.0000
  H   H1721     1.0  0.53262  0.46774  0.54488  1.0000
  H   H1722     1.0  0.57332  0.44851  0.71453  1.0000
  H   H1723     1.0  0.50577  0.35385  0.83144  1.0000
  H   H1724     1.0  0.63831  0.46128  0.66818  1.0000
  C   C2148     1.0  0.76405  0.24352  0.64480  1.0000
  C   C2149     1.0  0.51177  0.23930  0.84503  1.0000
  C   C2150     1.0  0.60674  0.47126  0.65023  1.0000
  H   H1725     1.0  0.93105  0.26261  0.48630  1.0000
  C   C2151     1.0  0.76502  0.24998  0.61143  1.0000
  H   H1726     1.0  0.98734  0.36813  0.53446  1.0000
  C   C2152     1.0  0.58217  0.45486  0.69612  1.0000
  C   C2153     1.0  0.49433  0.33555  0.85121  1.0000
  C   C2154     1.0  0.98774  0.40991  0.49747  1.0000
  C   C2155     1.0  0.60687  0.45377  0.69298  1.0000
  H   H1727     1.0  0.68483  0.47815  0.92617  1.0000
  C   C2156     1.0  0.51272  0.47874  0.89078  1.0000
  C   C2157     1.0  0.53090  0.47768  0.71568  1.0000
  H   H1728     1.0  0.67421  0.23608  0.77471  1.0000
  H   H1729     1.0  0.57305  0.48010  0.63900  1.0000
  H   H1730     1.0  0.49406  0.30796  0.77899  1.0000
  H   H1731     1.0  0.61069  0.43051  0.96611  1.0000
  H   H1732     1.0  0.81513  0.28097  0.95511  1.0000
  H   H1733     1.0  0.75210  0.24682  0.66627  1.0000
  C   C2158     1.0  0.62989  0.23350  0.87282  1.0000
  S   S289      1.0  0.96595  0.53096  0.31965  1.0000
  Fe  Fe144     1.0  0.51408  0.52968  0.15000  1.0000
  S   S290      1.0  0.54635  0.51713  0.15949  1.0000
  Fe  Fe145     1.0  0.54228  0.55070  0.11297  1.0000
  S   S291      1.0  0.57657  0.53939  0.11848  1.0000
  S   S292      1.0  0.54070  0.56955  0.08116  1.0000
  Fe  Fe146     1.0  0.55597  0.52219  0.10116  1.0000
  S   S293      1.0  0.56984  0.50557  0.06552  1.0000
  Fe  Fe147     1.0  0.56490  0.53514  0.17640  1.0000
  S   S294      1.0  0.59467  0.53820  0.21900  1.0000
  S   S295      1.0  0.52263  0.53371  0.09098  1.0000
  S   S296      1.0  0.53165  0.54747  0.17147  1.0000
  Fe  Fe148     1.0  0.64857  0.52489  0.42483  1.0000
  S   S297      1.0  0.67918  0.53793  0.41562  1.0000
  S   S298      1.0  0.62171  0.51850  0.38083  1.0000
  H   H1734     1.0  0.97794  0.55791  0.46426  1.0000
  C   C2159     1.0  0.84964  0.53037  0.43197  1.0000
  H   H1735     1.0  0.57855  0.59637  0.14296  1.0000
  S   S299      1.0  0.51828  0.66014  0.06680  1.0000
  Fe  Fe149     1.0  0.59276  0.71812  0.25525  1.0000
  H   H1736     1.0  0.87796  0.55051  0.40029  1.0000
  S   S300      1.0  0.58523  0.70159  0.21579  1.0000
  C   C2160     1.0  0.49978  0.71832  0.00729  1.0000
  S   S301      1.0  0.64786  0.71783  0.37069  1.0000
  S   S302      1.0  0.58536  0.71776  0.31617  1.0000
  H   H1737     1.0  0.53347  0.69819  0.05897  1.0000
  S   S303      1.0  0.94156  0.65644  0.44684  1.0000
  H   H1738     1.0  0.61179  0.56854  0.15099  1.0000
  S   S304      1.0  0.97963  0.68616  0.41533  1.0000
  Fe  Fe150     1.0  0.62321  0.72379  0.32329  1.0000
  C   C2161     1.0  0.88548  0.49678  0.40879  1.0000
  C   C2162     1.0  0.54146  0.72305  0.00060  1.0000
  S   S305      1.0  0.66874  0.66246  0.43701  1.0000
  Fe  Fe151     1.0  0.66740  0.54754  0.46840  1.0000
  C   C2163     1.0  0.86438  0.52475  0.29392  1.0000
  S   S306      1.0  0.63563  0.53494  0.47637  1.0000
  H   H1739     1.0  0.52367  0.62386  0.30705  1.0000
  C   C2164     1.0  0.65317  0.70233  0.38869  1.0000
  C   C2165     1.0  0.64255  0.69149  0.37387  1.0000
  C   C2166     1.0  0.64744  0.67939  0.38907  1.0000
  C   C2167     1.0  0.66289  0.67796  0.41928  1.0000
  C   C2168     1.0  0.67321  0.68884  0.43442  1.0000
  C   C2169     1.0  0.66846  0.70092  0.41906  1.0000
  H   H1740     1.0  0.63070  0.69242  0.35059  1.0000
  H   H1741     1.0  0.63928  0.67106  0.37722  1.0000
  H   H1742     1.0  0.68474  0.68793  0.45805  1.0000
  H   H1743     1.0  0.67668  0.70923  0.43072  1.0000
  C   C2170     1.0  0.51882  0.69384  0.14538  1.0000
  C   C2171     1.0  0.53933  0.68621  0.14201  1.0000
  C   C2172     1.0  0.55947  0.68879  0.16368  1.0000
  C   C2173     1.0  0.55950  0.69908  0.18862  1.0000
  C   C2174     1.0  0.53921  0.70690  0.19139  1.0000
  C   C2175     1.0  0.51901  0.70429  0.16981  1.0000
  H   H1744     1.0  0.53949  0.67812  0.12346  1.0000
  H   H1745     1.0  0.57500  0.68264  0.16164  1.0000
  H   H1746     1.0  0.53897  0.71485  0.21048  1.0000
  C   C2176     1.0  0.89371  0.48536  0.46511  1.0000
  C   C2177     1.0  0.75110  0.50915  0.41282  1.0000
  C   C2178     1.0  0.73780  0.50639  0.38147  1.0000
  S   S307      1.0  0.67057  0.51067  0.45761  1.0000
  C   C2179     1.0  0.77463  0.50458  0.41524  1.0000
  H   H1747     1.0  0.71959  0.50977  0.37950  1.0000
  C   C2180     1.0  0.75161  0.69815  0.46592  1.0000
  C   C2181     1.0  0.60176  0.53256  0.26402  1.0000
  C   C2182     1.0  0.62181  0.53739  0.28227  1.0000
  C   C2183     1.0  0.62825  0.53323  0.31785  1.0000
  C   C2184     1.0  0.61470  0.52413  0.33574  1.0000
  C   C2185     1.0  0.59473  0.51924  0.31737  1.0000
  C   C2186     1.0  0.58823  0.52345  0.28187  1.0000
  H   H1748     1.0  0.63245  0.54443  0.26880  1.0000
  H   H1749     1.0  0.64363  0.53711  0.33146  1.0000
  H   H1750     1.0  0.58411  0.51219  0.33082  1.0000
  H   H1751     1.0  0.57282  0.51960  0.26830  1.0000
  C   C2187     1.0  0.53022  0.58532  0.09127  1.0000
  C   C2188     1.0  0.97455  0.65821  0.35747  1.0000
  C   C2189     1.0  0.58050  0.69264  0.04630  1.0000
  C   C2190     1.0  0.52068  0.60685  0.06891  1.0000
  C   C2191     1.0  0.52913  0.59428  0.06268  1.0000
  H   H1752     1.0  0.52018  0.61361  0.04667  1.0000
  H   H1753     1.0  0.53479  0.59145  0.03539  1.0000
  C   C2192     1.0  0.57245  0.50584  0.01688  1.0000
  C   C2193     1.0  0.87872  0.61091  0.45305  1.0000
  C   C2194     1.0  0.87219  0.52705  0.32985  1.0000
  H   H1754     1.0  0.92482  0.51758  0.40647  1.0000
  C   C2195     1.0  0.84020  0.70284  0.40549  1.0000
  H   H1755     1.0  0.64046  0.49270  0.38151  1.0000
  C   C2196     1.0  0.64982  0.48891  0.11660  1.0000
  H   H1756     1.0  0.64269  0.48448  0.26172  1.0000
  H   H1757     1.0  0.55981  0.52514  0.01051  1.0000
  H   H1758     1.0  0.95780  0.59707  0.40764  1.0000
  Fe  Fe152     1.0  0.70016  0.52454  0.45198  1.0000
  C   C2197     1.0  0.95047  0.51652  0.32543  1.0000
  C   C2198     1.0  0.92824  0.51510  0.30833  1.0000
  C   C2199     1.0  0.91555  0.50370  0.31156  1.0000
  C   C2200     1.0  0.92511  0.49356  0.33173  1.0000
  C   C2201     1.0  0.94720  0.49504  0.34916  1.0000
  C   C2202     1.0  0.95976  0.50648  0.34629  1.0000
  H   H1759     1.0  0.92094  0.52281  0.29207  1.0000
  H   H1760     1.0  0.89865  0.50265  0.29784  1.0000
  H   H1761     1.0  0.97670  0.50749  0.35993  1.0000
  C   C2203     1.0  0.61501  0.57019  0.20990  1.0000
  C   C2204     1.0  0.59757  0.71061  0.99448  1.0000
  H   H1762     1.0  0.57402  0.72432  0.16284  1.0000
  C   C2205     1.0  0.89090  0.48541  0.42700  1.0000
  C   C2206     1.0  0.49466  0.55912  0.29146  1.0000
  C   C2207     1.0  0.93826  0.54888  0.40104  1.0000
  C   C2208     1.0  0.53501  0.60964  0.26760  1.0000
  C   C2209     1.0  0.72741  0.66382  0.39269  1.0000
  C   C2210     1.0  0.73978  0.65961  0.36159  1.0000
  H   H1763     1.0  0.78840  0.71903  0.39106  1.0000
  H   H1764     1.0  0.60451  0.51071  0.19253  1.0000
  C   C2211     1.0  0.50282  0.65110  0.18568  1.0000
  Fe  Fe153     1.0  0.49391  0.64374  0.07734  1.0000
  C   C2212     1.0  0.53674  0.56316  0.28384  1.0000
  C   C2213     1.0  0.51996  0.72048  0.46402  1.0000
  C   C2214     1.0  0.52942  0.70581  0.03991  1.0000
  H   H1765     1.0  0.63416  0.56910  0.20979  1.0000
  H   H1766     1.0  0.84197  0.51337  0.25907  1.0000
  H   H1767     1.0  0.84041  0.50438  0.37355  1.0000
  H   H1768     1.0  0.71288  0.65830  0.40312  1.0000
  H   H1769     1.0  0.73483  0.65081  0.34811  1.0000
  C   C2215     1.0  0.68094  0.48924  0.31234  1.0000
  H   H1770     1.0  0.61299  0.57124  0.26851  1.0000
  C   C2216     1.0  0.81331  0.48386  0.46475  1.0000
  H   H1771     1.0  0.95760  0.66271  0.36409  1.0000
  H   H1772     1.0  0.50920  0.60468  0.16008  1.0000
  H   H1773     1.0  0.85921  0.70403  0.40327  1.0000
  C   C2217     1.0  0.78489  0.49735  0.38640  1.0000
  C   C2218     1.0  0.88216  0.50817  0.42870  1.0000
  C   C2219     1.0  0.54756  0.71289  0.02381  1.0000
  H   H1774     1.0  0.56278  0.68623  0.99675  1.0000
  C   C2220     1.0  0.72537  0.70690  0.36771  1.0000
  C   C2221     1.0  0.66131  0.49402  0.33221  1.0000
  H   H1775     1.0  0.88376  0.49656  0.37923  1.0000
  C   C2222     1.0  0.58623  0.71961  0.07182  1.0000
  P   P73       1.0  0.68908  0.49645  0.26926  1.0000
  C   C2223     1.0  0.70537  0.51079  0.27905  1.0000
  C   C2224     1.0  0.66239  0.50091  0.24448  1.0000
  C   C2225     1.0  0.79094  0.69981  0.41241  1.0000
  H   H1776     1.0  0.96660  0.64064  0.38442  1.0000
  C   C2226     1.0  0.49924  0.66397  0.19417  1.0000
  C   C2227     1.0  0.64069  0.51550  0.20462  1.0000
  C   C2228     1.0  0.66145  0.51209  0.22354  1.0000
  C   C2229     1.0  0.72426  0.51438  0.25643  1.0000
  C   C2230     1.0  0.73725  0.52525  0.26481  1.0000
  C   C2231     1.0  0.73124  0.53275  0.29540  1.0000
  C   C2232     1.0  0.71205  0.52947  0.31738  1.0000
  C   C2233     1.0  0.69908  0.51859  0.30918  1.0000
  H   H1777     1.0  0.58555  0.48645  0.01352  1.0000
  P   P74       1.0  0.87342  0.52277  0.40583  1.0000
  C   C2234     1.0  0.82567  0.52837  0.42296  1.0000
  H   H1778     1.0  0.87324  0.53926  0.47128  1.0000
  C   C2235     1.0  0.72909  0.70276  0.47684  1.0000
  C   C2236     1.0  0.49785  0.54695  0.27620  1.0000
  H   H1779     1.0  0.88947  0.73028  0.05183  1.0000
  C   C2237     1.0  0.82832  0.49427  0.46344  1.0000
  Fe  Fe154     1.0  0.97175  0.67009  0.45515  1.0000
  H   H1780     1.0  0.82640  0.50069  0.31037  1.0000
  H   H1781     1.0  0.56483  0.66353  0.01291  1.0000
  H   H1782     1.0  0.82064  0.52268  0.39949  1.0000
  H   H1783     1.0  0.60670  0.64236  0.15365  1.0000
  H   H1784     1.0  0.97900  0.51260  0.25848  1.0000
  H   H1785     1.0  0.63968  0.52434  0.18944  1.0000
  H   H1786     1.0  0.67653  0.51830  0.22215  1.0000
  H   H1787     1.0  0.72912  0.50878  0.23243  1.0000
  H   H1788     1.0  0.75210  0.52781  0.24771  1.0000
  H   H1789     1.0  0.74143  0.54110  0.30213  1.0000
  H   H1790     1.0  0.70735  0.53528  0.34110  1.0000
  H   H1791     1.0  0.68433  0.51630  0.32672  1.0000
  H   H1792     1.0  0.91661  0.60911  0.44493  1.0000
  H   H1793     1.0  0.75435  0.72497  0.43116  1.0000
  H   H1794     1.0  0.51470  0.49349  0.98970  1.0000
  C   C2238     1.0  0.84715  0.51021  0.35167  1.0000
  H   H1795     1.0  0.80292  0.49377  0.38862  1.0000
  C   C2239     1.0  0.60243  0.56983  0.17677  1.0000
  C   C2240     1.0  0.50413  0.73052  0.40926  1.0000
  H   H1796     1.0  0.87171  0.66010  0.45886  1.0000
  C   C2241     1.0  0.75233  0.68239  0.39689  1.0000
  H   H1797     1.0  0.98585  0.57943  0.39055  1.0000
  C   C2242     1.0  0.83378  0.66017  0.46932  1.0000
  C   C2243     1.0  0.91851  0.72363  0.14400  1.0000
  C   C2244     1.0  0.58454  0.60665  0.19367  1.0000
  H   H1798     1.0  0.71600  0.70565  0.45668  1.0000
  H   H1799     1.0  0.51106  0.57660  0.30705  1.0000
  H   H1800     1.0  0.51711  0.51004  0.03822  1.0000
  C   C2245     1.0  0.62078  0.50780  0.20638  1.0000
  H   H1801     1.0  0.62456  0.68212  0.22195  1.0000
  S   S308      1.0  0.73919  0.51849  0.44918  1.0000
  C   C2246     1.0  0.50566  0.70849  0.03151  1.0000
  S   S309      1.0  0.63159  0.72274  0.26274  1.0000
  S   S310      1.0  0.66237  0.56925  0.46665  1.0000
  H   H1802     1.0  0.88525  0.53433  0.33431  1.0000
  H   H1803     1.0  0.60600  0.49079  0.22874  1.0000
  C   C2247     1.0  0.73346  0.67524  0.41006  1.0000
  C   C2248     1.0  0.86036  0.61644  0.47429  1.0000
  C   C2249     1.0  0.74246  0.72252  0.40888  1.0000
  H   H1804     1.0  0.52675  0.63515  0.18629  1.0000
  C   C2250     1.0  0.50216  0.50366  0.03754  1.0000
  H   H1805     1.0  0.59948  0.69552  0.09761  1.0000
  H   H1806     1.0  0.55091  0.58894  0.35230  1.0000
  H   H1807     1.0  0.54625  0.57220  0.20985  1.0000
  C   C2251     1.0  0.90247  0.61320  0.46167  1.0000
  H   H1808     1.0  0.73777  0.49751  0.32819  1.0000
  C   C2252     1.0  0.52279  0.58915  0.12642  1.0000
  C   C2253     1.0  0.50077  0.49429  0.01019  1.0000
  H   H1809     1.0  0.73928  0.48815  0.27223  1.0000
  C   C2254     1.0  0.51766  0.72566  0.99206  1.0000
  H   H1810     1.0  0.79557  0.58321  0.37306  1.0000
  C   C2255     1.0  0.53975  0.55087  0.26897  1.0000
  H   H1811     1.0  0.77877  0.68372  0.35401  1.0000
  C   C2256     1.0  0.97662  0.59815  0.41234  1.0000
  C   C2257     1.0  0.85497  0.53769  0.46334  1.0000
  H   H1812     1.0  0.60059  0.67290  0.11365  1.0000
  C   C2258     1.0  0.58293  0.66671  0.06434  1.0000
  C   C2259     1.0  0.57766  0.60554  0.15689  1.0000
  C   C2260     1.0  0.59266  0.67580  0.08795  1.0000
  H   H1813     1.0  0.65133  0.72765  0.46072  1.0000
  H   H1814     1.0  0.65068  0.50194  0.32191  1.0000
  C   C2261     1.0  0.80004  0.71126  0.39912  1.0000
  C   C2262     1.0  0.58097  0.49489  0.99817  1.0000
  H   H1815     1.0  0.95463  0.48727  0.36494  1.0000
  H   H1816     1.0  0.58333  0.65674  0.07169  1.0000
  P   P75       1.0  0.75932  0.69756  0.41756  1.0000
  C   C2263     1.0  0.57245  0.67053  0.03132  1.0000
  H   H1817     1.0  0.84562  0.56774  0.45075  1.0000
  H   H1818     1.0  0.62145  0.71203  0.44732  1.0000
  C   C2264     1.0  0.82045  0.57411  0.40996  1.0000
  H   H1819     1.0  0.80022  0.68075  0.43076  1.0000
  C   C2265     1.0  0.63150  0.48603  0.09216  1.0000
  C   C2266     1.0  0.83603  0.57583  0.43945  1.0000
  C   C2267     1.0  0.74819  0.49942  0.35236  1.0000
  C   C2268     1.0  0.80790  0.58456  0.39560  1.0000
  C   C2269     1.0  0.70670  0.48540  0.24157  1.0000
  H   H1820     1.0  0.50327  0.71027  0.17260  1.0000
  C   C2270     1.0  0.62162  0.49662  0.22691  1.0000
  H   H1821     1.0  0.90335  0.71536  0.19237  1.0000
  C   C2271     1.0  0.59172  0.68871  0.07887  1.0000
  C   C2272     1.0  0.59545  0.55389  0.36940  1.0000
  C   C2273     1.0  0.61162  0.56270  0.38293  1.0000
  C   C2274     1.0  0.61265  0.57479  0.36737  1.0000
  C   C2275     1.0  0.59746  0.57809  0.33833  1.0000
  C   C2276     1.0  0.58097  0.56932  0.32473  1.0000
  C   C2277     1.0  0.58033  0.55711  0.34020  1.0000
  P   P76       1.0  0.56183  0.57364  0.28653  1.0000
  C   C2278     1.0  0.51342  0.61072  0.10402  1.0000
  C   C2279     1.0  0.55071  0.58980  0.29281  1.0000
  C   C2280     1.0  0.51402  0.56721  0.29536  1.0000
  C   C2281     1.0  0.54453  0.59737  0.26244  1.0000
  C   C2282     1.0  0.51750  0.67087  0.21031  1.0000
  H   H1822     1.0  0.87141  0.53021  0.27141  1.0000
  C   C2283     1.0  0.57794  0.57225  0.24370  1.0000
  C   C2284     1.0  0.60286  0.57138  0.24327  1.0000
  C   C2285     1.0  0.57768  0.57070  0.17695  1.0000
  C   C2286     1.0  0.56547  0.57183  0.21024  1.0000
  H   H1823     1.0  0.59494  0.54444  0.38118  1.0000
  H   H1824     1.0  0.62354  0.56012  0.40527  1.0000
  H   H1825     1.0  0.62539  0.58155  0.37783  1.0000
  H   H1826     1.0  0.59870  0.58746  0.32631  1.0000
  H   H1827     1.0  0.56843  0.54996  0.32978  1.0000
  H   H1828     1.0  0.56393  0.61538  0.10951  1.0000
  H   H1829     1.0  0.54667  0.59383  0.23468  1.0000
  C   C2287     1.0  0.62232  0.71070  0.99934  1.0000
  C   C2288     1.0  0.53739  0.60697  0.33347  1.0000
  H   H1830     1.0  0.56794  0.57019  0.15127  1.0000
  H   H1831     1.0  0.54649  0.64466  0.34551  1.0000
  Fe  Fe155     1.0  0.96735  0.64139  0.46757  1.0000
  C   C2289     1.0  0.76461  0.67815  0.36538  1.0000
  S   S311      1.0  0.96401  0.62159  0.44109  1.0000
  C   C2290     1.0  0.77176  0.49485  0.35460  1.0000
  H   H1832     1.0  0.55353  0.67082  0.22819  1.0000
  H   H1833     1.0  0.93300  0.71672  0.14233  1.0000
  H   H1834     1.0  0.78490  0.50664  0.43959  1.0000
  H   H1835     1.0  0.53022  0.61538  0.24397  1.0000
  H   H1836     1.0  0.91291  0.56438  0.39701  1.0000
  C   C2291     1.0  0.84789  0.51524  0.28691  1.0000
  C   C2292     1.0  0.54689  0.59469  0.32841  1.0000
  H   H1837     1.0  0.95922  0.53157  0.40354  1.0000
  C   C2293     1.0  0.92184  0.52780  0.40576  1.0000
  C   C2294     1.0  0.83922  0.50803  0.31582  1.0000
  C   C2295     1.0  0.57547  0.71808  0.10626  1.0000
  H   H1838     1.0  0.63987  0.65556  0.13447  1.0000
  P   P77       1.0  0.57831  0.70921  0.03392  1.0000
  C   C2296     1.0  0.83129  0.69134  0.41806  1.0000
  H   H1839     1.0  0.64571  0.49297  0.14337  1.0000
  H   H1840     1.0  0.53191  0.71351  0.47598  1.0000
  C   C2297     1.0  0.56783  0.62807  0.15583  1.0000
  H   H1841     1.0  0.59217  0.66877  0.24301  1.0000
  H   H1842     1.0  0.98748  0.67458  0.32926  1.0000
  H   H1843     1.0  0.61492  0.64037  0.26047  1.0000
  C   C2298     1.0  0.86362  0.51980  0.35912  1.0000
  C   C2299     1.0  0.57505  0.73244  0.43375  1.0000
  C   C2300     1.0  0.53138  0.61443  0.30309  1.0000
  H   H1844     1.0  0.78481  0.62787  0.44565  1.0000
  H   H1845     1.0  0.55706  0.54756  0.26003  1.0000
  C   C2301     1.0  0.51924  0.72155  0.42573  1.0000
  H   H1846     1.0  0.80080  0.60467  0.39949  1.0000
  H   H1847     1.0  0.53971  0.64590  0.27865  1.0000
  H   H1848     1.0  0.56245  0.71075  0.11033  1.0000
  H   H1849     1.0  0.95358  0.55491  0.39832  1.0000
  C   C2302     1.0  0.89876  0.53304  0.40505  1.0000
  H   H1850     1.0  0.53064  0.71555  0.40869  1.0000
  C   C2303     1.0  0.94147  0.53572  0.40412  1.0000
  C   C2304     1.0  0.60768  0.71900  0.45409  1.0000
  H   H1851     1.0  0.62128  0.63911  0.32752  1.0000
  C   C2305     1.0  0.60243  0.72951  0.06729  1.0000
  C   C2306     1.0  0.58183  0.72581  0.13605  1.0000
  H   H1852     1.0  0.64882  0.67558  0.16813  1.0000
  C   C2307     1.0  0.91533  0.55419  0.40010  1.0000
  H   H1853     1.0  0.56117  0.63625  0.14067  1.0000
  H   H1854     1.0  0.84337  0.68365  0.42573  1.0000
  C   C2308     1.0  0.81099  0.59674  0.41058  1.0000
  C   C2309     1.0  0.88598  0.50813  0.46687  1.0000
  C   C2310     1.0  0.82168  0.62629  0.42852  1.0000
  C   C2311     1.0  0.56944  0.61626  0.13798  1.0000
  C   C2312     1.0  0.80752  0.53366  0.44469  1.0000
  P   P78       1.0  0.82967  0.61405  0.46122  1.0000
  H   H1855     1.0  0.49256  0.50014  0.16928  1.0000
  C   C2313     1.0  0.82683  0.59856  0.43990  1.0000
  C   C2314     1.0  0.98489  0.60948  0.42838  1.0000
  C   C2315     1.0  0.83870  0.63105  0.40431  1.0000
  C   C2316     1.0  0.83256  0.64074  0.37970  1.0000
  C   C2317     1.0  0.80944  0.64577  0.37913  1.0000
  C   C2318     1.0  0.79236  0.64101  0.40287  1.0000
  C   C2319     1.0  0.79836  0.63125  0.42725  1.0000
  C   C2320     1.0  0.56640  0.51666  0.99655  1.0000
  Fe  Fe156     1.0  0.50126  0.66149  0.01076  1.0000
  H   H1856     1.0  0.59105  0.59832  0.20821  1.0000
  H   H1857     1.0  0.76773  0.66362  0.32342  1.0000
  C   C2321     1.0  0.90184  0.72288  0.17222  1.0000
  C   C2322     1.0  0.89561  0.54630  0.40203  1.0000
  S   S312      1.0  0.72433  0.64262  0.47709  1.0000
  C   C2323     1.0  0.97974  0.64586  0.36928  1.0000
  C   C2324     1.0  0.75833  0.66680  0.34783  1.0000
  H   H1858     1.0  0.53446  0.61066  0.36102  1.0000
  H   H1859     1.0  0.83153  0.72163  0.38577  1.0000
  H   H1860     1.0  0.58721  0.64125  0.37013  1.0000
  H   H1861     1.0  0.52341  0.58240  0.14870  1.0000
  C   C2325     1.0  0.74178  0.70994  0.39545  1.0000
  C   C2326     1.0  0.58290  0.61846  0.21174  1.0000
  H   H1862     1.0  0.58815  0.61902  0.24028  1.0000
  H   H1863     1.0  0.85681  0.62747  0.40466  1.0000
  H   H1864     1.0  0.84590  0.64453  0.36163  1.0000
  H   H1865     1.0  0.80488  0.65353  0.36090  1.0000
  H   H1866     1.0  0.77463  0.64518  0.40350  1.0000
  C   C2327     1.0  0.88330  0.73187  0.17457  1.0000
  C   C2328     1.0  0.52043  0.54280  0.26522  1.0000
  H   H1867     1.0  0.52294  0.53339  0.25320  1.0000
  H   H1868     1.0  0.72311  0.67858  0.43322  1.0000
  C   C2329     1.0  0.57124  0.68343  0.02229  1.0000
  C   C2330     1.0  0.57444  0.62928  0.19296  1.0000
  C   C2331     1.0  0.62071  0.67336  0.20727  1.0000
  C   C2332     1.0  0.63433  0.66968  0.17690  1.0000
  C   C2333     1.0  0.62922  0.65844  0.15795  1.0000
  C   C2334     1.0  0.61017  0.65099  0.16891  1.0000
  C   C2335     1.0  0.59630  0.65463  0.19947  1.0000
  C   C2336     1.0  0.60197  0.66583  0.21875  1.0000
  P   P79       1.0  0.57247  0.64472  0.21556  1.0000
  C   C2337     1.0  0.57681  0.64312  0.26452  1.0000
  C   C2338     1.0  0.54376  0.65224  0.20695  1.0000
  C   C2339     1.0  0.52480  0.64519  0.19262  1.0000
  C   C2340     1.0  0.73080  0.48317  0.24983  1.0000
  C   C2341     1.0  0.67344  0.48672  0.10629  1.0000
  H   H1869     1.0  0.87476  0.60508  0.42925  1.0000
  C   C2342     1.0  0.53970  0.66510  0.21639  1.0000
  C   C2343     1.0  0.55757  0.64428  0.28884  1.0000
  C   C2344     1.0  0.56132  0.64356  0.32680  1.0000
  C   C2345     1.0  0.58425  0.64165  0.34070  1.0000
  C   C2346     1.0  0.60346  0.64044  0.31666  1.0000
  C   C2347     1.0  0.59979  0.64118  0.27872  1.0000
  H   H1870     1.0  0.68766  0.48898  0.12522  1.0000
  C   C2348     1.0  0.51460  0.60179  0.13273  1.0000
  C   C2349     1.0  0.80679  0.68978  0.42115  1.0000
  H   H1871     1.0  0.62998  0.71011  0.02663  1.0000
  C   C2350     1.0  0.82458  0.71275  0.39580  1.0000
  C   C2351     1.0  0.83904  0.58798  0.45464  1.0000
  H   H1872     1.0  0.78906  0.53196  0.43773  1.0000
  H   H1873     1.0  0.82914  0.65978  0.44055  1.0000
  S   S313      1.0  0.78401  0.48615  0.31704  1.0000
  C   C2352     1.0  0.64237  0.49314  0.24579  1.0000
  H   H1874     1.0  0.81791  0.56468  0.39847  1.0000
  H   H1875     1.0  0.51472  0.68088  0.21694  1.0000
  H   H1876     1.0  0.72363  0.69724  0.35763  1.0000
  H   H1877     1.0  0.69689  0.71381  0.33308  1.0000
  C   C2353     1.0  0.90305  0.73183  0.99706  1.0000
  H   H1878     1.0  0.84087  0.49491  0.44122  1.0000
  C   C2354     1.0  0.71008  0.71629  0.35359  1.0000
  H   H1879     1.0  0.61036  0.73129  0.04095  1.0000
  H   H1880     1.0  0.63601  0.49681  0.00168  1.0000
  C   C2355     1.0  0.65541  0.48880  0.36612  1.0000
  H   H1881     1.0  0.61318  0.48803  0.09974  1.0000
  H   H1882     1.0  0.89908  0.72207  0.98982  1.0000
  H   H1883     1.0  0.71152  0.48716  0.99487  1.0000
  H   H1884     1.0  0.50398  0.73153  0.37959  1.0000
  H   H1885     1.0  0.87040  0.73130  0.19651  1.0000
  H   H1886     1.0  0.59517  0.71981  0.39828  1.0000
  C   C2356     1.0  0.72730  0.73191  0.39434  1.0000
  C   C2357     1.0  0.59273  0.72335  0.42611  1.0000
  C   C2358     1.0  0.81303  0.54095  0.47568  1.0000
  H   H1887     1.0  0.66041  0.59630  0.45697  1.0000
  H   H1888     1.0  0.49187  0.70285  0.04383  1.0000
  S   S314      1.0  0.50414  0.62670  0.11406  1.0000
  C   C2359     1.0  0.71101  0.72877  0.36687  1.0000
  H   H1889     1.0  0.55511  0.72879  0.98854  1.0000
  S   S315      1.0  0.49239  0.69042  0.12081  1.0000
  H   H1890     1.0  0.85076  0.58913  0.47804  1.0000
  C   C2360     1.0  0.99141  0.66490  0.33777  1.0000
  C   C2361     1.0  0.99134  0.56351  0.47791  1.0000
  H   H1891     1.0  0.67413  0.49744  0.62915  1.0000
  C   C2362     1.0  0.54891  0.69637  0.55902  1.0000
  C   C2363     1.0  0.67633  0.56628  0.64449  1.0000
  H   H1892     1.0  0.61645  0.53877  0.64031  1.0000
  S   S316      1.0  0.58168  0.50636  0.89098  1.0000
  H   H1893     1.0  0.55331  0.71525  0.53821  1.0000
  S   S317      1.0  0.60563  0.49824  0.71550  1.0000
  Fe  Fe157     1.0  0.66007  0.52176  0.50873  1.0000
  S   S318      1.0  0.69077  0.53521  0.50392  1.0000
  S   S319      1.0  0.65896  0.51030  0.56314  1.0000
  C   C2364     1.0  0.71055  0.58000  0.64093  1.0000
  H   H1894     1.0  0.93908  0.48823  0.77498  1.0000
  C   C2365     1.0  0.66743  0.49521  0.90724  1.0000
  Fe  Fe158     1.0  0.59743  0.49095  0.85319  1.0000
  C   C2366     1.0  0.81022  0.50300  0.51857  1.0000
  C   C2367     1.0  0.64998  0.54740  0.69003  1.0000
  H   H1895     1.0  0.77382  0.69100  0.55080  1.0000
  C   C2368     1.0  0.80578  0.62720  0.51694  1.0000
  Fe  Fe159     1.0  0.57624  0.71579  0.81824  1.0000
  S   S320      1.0  0.61154  0.70576  0.81247  1.0000
  S   S321      1.0  0.54846  0.71243  0.86322  1.0000
  Fe  Fe160     1.0  0.62709  0.72542  0.81214  1.0000
  Fe  Fe161     1.0  0.60730  0.70830  0.75109  1.0000
  S   S322      1.0  0.61248  0.69276  0.70717  1.0000
  H   H1896     1.0  0.81506  0.63546  0.50755  1.0000
  S   S323      1.0  0.57033  0.71690  0.75672  1.0000
  C   C2369     1.0  0.66137  0.48619  0.96780  1.0000
  S   S324      1.0  0.95691  0.64448  0.52669  1.0000
  S   S325      1.0  0.65880  0.72856  0.84994  1.0000
  S   S326      1.0  0.73864  0.64941  0.56278  1.0000
  H   H1897     1.0  0.76251  0.61951  0.57734  1.0000
  S   S327      1.0  0.71279  0.61532  0.55103  1.0000
  C   C2370     1.0  0.51632  0.71150  0.54934  1.0000
  H   H1898     1.0  0.63966  0.66461  0.50920  1.0000
  C   C2371     1.0  0.63655  0.67473  0.51337  1.0000
  Fe  Fe162     1.0  0.70846  0.66391  0.56197  1.0000
  S   S328      1.0  0.70254  0.67933  0.60612  1.0000
  H   H1899     1.0  0.64833  0.56707  0.70840  1.0000
  C   C2372     1.0  0.66921  0.72686  0.55040  1.0000
  Fe  Fe163     1.0  0.93230  0.66011  0.50604  1.0000
  H   H1900     1.0  0.59584  0.69787  0.49377  1.0000
  H   H1901     1.0  0.53331  0.72789  0.60412  1.0000
  Fe  Fe164     1.0  0.98562  0.65920  0.52912  1.0000
  H   H1902     1.0  0.56770  0.69401  0.55792  1.0000
  C   C2373     1.0  0.69343  0.57955  0.51871  1.0000
  C   C2374     1.0  0.63748  0.68943  0.67859  1.0000
  C   C2375     1.0  0.63663  0.67912  0.65365  1.0000
  C   C2376     1.0  0.65617  0.67599  0.63086  1.0000
  C   C2377     1.0  0.67685  0.68314  0.63278  1.0000
  C   C2378     1.0  0.67762  0.69350  0.65754  1.0000
  C   C2379     1.0  0.65808  0.69665  0.68027  1.0000
  H   H1903     1.0  0.62081  0.67346  0.65213  1.0000
  H   H1904     1.0  0.65533  0.66795  0.61218  1.0000
  H   H1905     1.0  0.69354  0.69907  0.65940  1.0000
  H   H1906     1.0  0.65902  0.70461  0.69923  1.0000
  C   C2380     1.0  0.54343  0.69891  0.89136  1.0000
  C   C2381     1.0  0.52689  0.69996  0.92026  1.0000
  C   C2382     1.0  0.52176  0.68941  0.94257  1.0000
  C   C2383     1.0  0.53257  0.67753  0.93550  1.0000
  C   C2384     1.0  0.54948  0.67656  0.90713  1.0000
  C   C2385     1.0  0.55507  0.68720  0.88547  1.0000
  H   H1907     1.0  0.66278  0.56058  0.57130  1.0000
  C   C2386     1.0  0.62878  0.55606  0.54886  1.0000
  H   H1908     1.0  0.55812  0.66747  0.90158  1.0000
  H   H1909     1.0  0.56806  0.68627  0.86380  1.0000
  H   H1910     1.0  0.97002  0.58075  0.47860  1.0000
  H   H1911     1.0  0.96380  0.70900  0.64979  1.0000
  C   C2387     1.0  0.70088  0.53459  0.66932  1.0000
  C   C2388     1.0  0.72239  0.51984  0.62954  1.0000
  H   H1912     1.0  0.71645  0.58806  0.55926  1.0000
  H   H1913     1.0  0.74771  0.49317  0.48612  1.0000
  C   C2389     1.0  0.97725  0.48784  0.77910  1.0000
  S   S329      1.0  0.62562  0.72708  0.75052  1.0000
  H   H1914     1.0  0.80895  0.51043  0.53930  1.0000
  H   H1915     1.0  0.60577  0.70259  0.58542  1.0000
  C   C2390     1.0  0.66140  0.57694  0.63869  1.0000
  C   C2391     1.0  0.62122  0.50171  0.67385  1.0000
  C   C2392     1.0  0.69091  0.53325  0.60471  1.0000
  H   H1916     1.0  0.69183  0.70597  0.84394  1.0000
  C   C2393     1.0  0.64398  0.50740  0.60574  1.0000
  C   C2394     1.0  0.62049  0.51135  0.61226  1.0000
  C   C2395     1.0  0.60929  0.50857  0.64600  1.0000
  C   C2396     1.0  0.60340  0.71124  0.92829  1.0000
  H   H1917     1.0  0.84099  0.54855  0.50925  1.0000
  H   H1918     1.0  0.61083  0.51638  0.59102  1.0000
  H   H1919     1.0  0.59109  0.51166  0.65039  1.0000
  H   H1920     1.0  0.60295  0.67482  0.48534  1.0000
  C   C2397     1.0  0.67137  0.69850  0.79897  1.0000
  C   C2398     1.0  0.68495  0.69746  0.83097  1.0000
  C   C2399     1.0  0.68948  0.68549  0.84627  1.0000
  C   C2400     1.0  0.68035  0.67455  0.82964  1.0000
  C   C2401     1.0  0.66641  0.67555  0.79768  1.0000
  C   C2402     1.0  0.66206  0.68761  0.78245  1.0000
  P   P80       1.0  0.65459  0.66159  0.77537  1.0000
  C   C2403     1.0  0.67153  0.65759  0.73457  1.0000
  C   C2404     1.0  0.65663  0.64819  0.80616  1.0000
  C   C2405     1.0  0.67792  0.64106  0.80857  1.0000
  C   C2406     1.0  0.67982  0.63076  0.83258  1.0000
  C   C2407     1.0  0.66054  0.62752  0.85447  1.0000
  C   C2408     1.0  0.63934  0.63460  0.85239  1.0000
  C   C2409     1.0  0.63737  0.64491  0.82839  1.0000
  C   C2410     1.0  0.66867  0.64569  0.71731  1.0000
  C   C2411     1.0  0.68179  0.64245  0.68589  1.0000
  C   C2412     1.0  0.69822  0.65096  0.67194  1.0000
  C   C2413     1.0  0.70161  0.66265  0.68953  1.0000
  C   C2414     1.0  0.68817  0.66604  0.72042  1.0000
  C   C2415     1.0  0.62369  0.66478  0.76465  1.0000
  C   C2416     1.0  0.60952  0.67188  0.78940  1.0000
  C   C2417     1.0  0.58556  0.67433  0.78161  1.0000
  C   C2418     1.0  0.57554  0.66970  0.74914  1.0000
  C   C2419     1.0  0.58947  0.66262  0.72438  1.0000
  C   C2420     1.0  0.61347  0.66020  0.73198  1.0000
  H   H1921     1.0  0.66778  0.70781  0.78727  1.0000
  C   C2421     1.0  0.77924  0.60644  0.53903  1.0000
  H   H1922     1.0  0.70003  0.68473  0.87110  1.0000
  H   H1923     1.0  0.68412  0.66541  0.84197  1.0000
  H   H1924     1.0  0.65143  0.68859  0.75780  1.0000
  H   H1925     1.0  0.69312  0.64352  0.79203  1.0000
  H   H1926     1.0  0.69630  0.62530  0.83429  1.0000
  H   H1927     1.0  0.66203  0.61955  0.87312  1.0000
  H   H1928     1.0  0.62440  0.63213  0.86947  1.0000
  H   H1929     1.0  0.62080  0.65025  0.82744  1.0000
  H   H1930     1.0  0.65609  0.63897  0.72793  1.0000
  H   H1931     1.0  0.67918  0.63340  0.67213  1.0000
  H   H1932     1.0  0.70816  0.64859  0.64726  1.0000
  H   H1933     1.0  0.71425  0.66927  0.67851  1.0000
  H   H1934     1.0  0.69083  0.67530  0.73278  1.0000
  H   H1935     1.0  0.61702  0.67563  0.81459  1.0000
  H   H1936     1.0  0.57486  0.68006  0.80034  1.0000
  H   H1937     1.0  0.55713  0.67188  0.74278  1.0000
  H   H1938     1.0  0.58186  0.65936  0.69873  1.0000
  H   H1939     1.0  0.62397  0.65506  0.71181  1.0000
  C   C2422     1.0  0.58385  0.49484  0.95968  1.0000
  C   C2423     1.0  0.64194  0.54977  0.60985  1.0000
  H   H1940     1.0  0.92102  0.71475  0.65418  1.0000
  C   C2424     1.0  0.67257  0.48585  0.93336  1.0000
  H   H1941     1.0  0.64233  0.57588  0.63695  1.0000
  H   H1942     1.0  0.59553  0.73013  0.67164  1.0000
  C   C2425     1.0  0.71775  0.49133  0.52159  1.0000
  H   H1943     1.0  0.59320  0.70796  0.64834  1.0000
  C   C2426     1.0  0.69945  0.60257  0.52628  1.0000
  C   C2427     1.0  0.60629  0.71243  0.59442  1.0000
  C   C2428     1.0  0.64468  0.53480  0.69933  1.0000
  H   H1944     1.0  0.73423  0.69946  0.56953  1.0000
  H   H1945     1.0  0.71120  0.51959  0.57285  1.0000
  H   H1946     1.0  0.56948  0.70953  0.95369  1.0000
  H   H1947     1.0  0.79884  0.54495  0.49252  1.0000
  C   C2429     1.0  0.64615  0.55587  0.57631  1.0000
  C   C2430     1.0  0.82198  0.66088  0.53294  1.0000
  H   H1948     1.0  0.63207  0.56088  0.52322  1.0000
  H   H1949     1.0  0.73583  0.51245  0.62566  1.0000
  H   H1950     1.0  0.50856  0.48605  0.87080  1.0000
  H   H1951     1.0  0.59605  0.71127  0.90070  1.0000
  C   C2431     1.0  0.64476  0.49776  0.66740  1.0000
  H   H1952     1.0  0.59085  0.48645  0.94575  1.0000
  C   C2432     1.0  0.59926  0.71540  0.63035  1.0000
  C   C2433     1.0  0.98195  0.72822  0.80708  1.0000
  C   C2434     1.0  0.84622  0.66118  0.54327  1.0000
  H   H1953     1.0  0.61980  0.53994  0.78331  1.0000
  C   C2435     1.0  0.86449  0.66094  0.51680  1.0000
  C   C2436     1.0  0.89008  0.62671  0.51242  1.0000
  H   H1954     1.0  0.69806  0.53863  0.69647  1.0000
  H   H1955     1.0  0.70537  0.70654  0.52210  1.0000
  C   C2437     1.0  0.60729  0.54993  0.55421  1.0000
  C   C2438     1.0  0.64008  0.50551  0.94950  1.0000
  H   H1956     1.0  0.80832  0.66108  0.55377  1.0000
  H   H1957     1.0  0.59407  0.54991  0.53254  1.0000
  S   S330      1.0  0.62992  0.49482  0.81936  1.0000
  C   C2439     1.0  0.61585  0.68051  0.49984  1.0000
  H   H1958     1.0  0.97522  0.71775  0.85648  1.0000
  C   C2440     1.0  0.79613  0.60492  0.51109  1.0000
  C   C2441     1.0  0.62024  0.54366  0.61505  1.0000
  C   C2442     1.0  0.70425  0.58989  0.53688  1.0000
  C   C2443     1.0  0.60514  0.72369  0.49017  1.0000
  C   C2444     1.0  0.63740  0.71148  0.96894  1.0000
  C   C2445     1.0  0.54379  0.48897  0.71717  1.0000
  C   C2446     1.0  0.61208  0.69362  0.50429  1.0000
  C   C2447     1.0  0.73898  0.48705  0.50554  1.0000
  C   C2448     1.0  0.95799  0.71671  0.66783  1.0000
  P   P81       1.0  0.62539  0.71816  0.52558  1.0000
  C   C2449     1.0  0.95427  0.48593  0.79217  1.0000
  C   C2450     1.0  0.62828  0.54204  0.75739  1.0000
  C   C2451     1.0  0.67746  0.58178  0.48981  1.0000
  C   C2452     1.0  0.52044  0.49639  0.76912  1.0000
  C   C2453     1.0  0.53858  0.49828  0.74375  1.0000
  H   H1959     1.0  0.97937  0.49177  0.75200  1.0000
  C   C2454     1.0  0.60305  0.54372  0.58725  1.0000
  C   C2455     1.0  0.56914  0.51658  0.95806  1.0000
  C   C2456     1.0  0.72301  0.70340  0.51405  1.0000
  C   C2457     1.0  0.93388  0.71992  0.67043  1.0000
  C   C2458     1.0  0.65597  0.50057  0.63365  1.0000
  H   H1960     1.0  0.89451  0.63311  0.53486  1.0000
  C   C2459     1.0  0.79628  0.48309  0.49263  1.0000
  H   H1961     1.0  0.49320  0.48376  0.78719  1.0000
  Fe  Fe165     1.0  0.71319  0.63627  0.53327  1.0000
  H   H1962     1.0  0.66316  0.70053  0.55037  1.0000
  C   C2460     1.0  0.73926  0.69938  0.54078  1.0000
  C   C2461     1.0  0.63381  0.53215  0.73281  1.0000
  H   H1963     1.0  0.51688  0.50348  0.79028  1.0000
  H   H1964     1.0  0.54919  0.50679  0.74526  1.0000
  H   H1965     1.0  0.55804  0.49061  0.69802  1.0000
  C   C2462     1.0  0.50559  0.72848  0.48614  1.0000
  C   C2463     1.0  0.97461  0.72328  0.68895  1.0000
  C   C2464     1.0  0.62792  0.71184  0.93343  1.0000
  C   C2465     1.0  0.50870  0.69046  0.57346  1.0000
  H   H1966     1.0  0.71299  0.55990  0.65021  1.0000
  C   C2466     1.0  0.57803  0.50573  0.93941  1.0000
  H   H1967     1.0  0.62926  0.56225  0.76756  1.0000
  C   C2467     1.0  0.68373  0.60476  0.49710  1.0000
  S   S331      1.0  0.68239  0.65028  0.53727  1.0000
  H   H1968     1.0  0.83816  0.51199  0.48901  1.0000
  H   H1969     1.0  0.85088  0.66164  0.57210  1.0000
  C   C2468     1.0  0.62939  0.70110  0.52151  1.0000
  C   C2469     1.0  0.78931  0.62864  0.54530  1.0000
  C   C2470     1.0  0.65413  0.72532  0.51991  1.0000
  H   H1970     1.0  0.72961  0.58118  0.64118  1.0000
  Fe  Fe166     1.0  0.74839  0.65641  0.50656  1.0000
  P   P82       1.0  0.66373  0.55056  0.64635  1.0000
  H   H1971     1.0  0.67576  0.49471  0.88045  1.0000
  H   H1972     1.0  0.85290  0.62910  0.52060  1.0000
  H   H1973     1.0  0.56457  0.52505  0.94265  1.0000
  C   C2471     1.0  0.68681  0.53862  0.63950  1.0000
  H   H1974     1.0  0.70305  0.59974  0.62866  1.0000
  H   H1975     1.0  0.78655  0.63790  0.55804  1.0000
  C   C2472     1.0  0.98582  0.71827  0.83177  1.0000
  C   C2473     1.0  0.71856  0.52521  0.66433  1.0000
  H   H1976     1.0  0.72911  0.52202  0.68751  1.0000
  C   C2474     1.0  0.58830  0.71047  0.95860  1.0000
  C   C2475     1.0  0.64441  0.55730  0.71485  1.0000
  H   H1977     1.0  0.58649  0.53884  0.59127  1.0000
  H   H1978     1.0  0.64868  0.52700  0.68046  1.0000
  C   C2476     1.0  0.70864  0.52391  0.59975  1.0000
  H   H1979     1.0  0.63956  0.71245  0.90981  1.0000
  C   C2477     1.0  0.70101  0.56793  0.64609  1.0000
  H   H1980     1.0  0.65429  0.49250  0.68835  1.0000
  C   C2478     1.0  0.82673  0.50386  0.49022  1.0000
  H   H1981     1.0  0.78253  0.49203  0.54228  1.0000
  H   H1982     1.0  0.68005  0.53600  0.58150  1.0000
  C   C2479     1.0  0.63360  0.55460  0.74845  1.0000
  S   S332      1.0  0.71984  0.67173  0.50762  1.0000
  C   C2480     1.0  0.50105  0.60063  0.96754  1.0000
  C   C2481     1.0  0.61451  0.72200  0.57116  1.0000
  C   C2482     1.0  0.67103  0.58897  0.63325  1.0000
  H   H1983     1.0  0.66936  0.67757  0.54256  1.0000
  H   H1984     1.0  0.76821  0.59856  0.54678  1.0000
  H   H1985     1.0  0.64646  0.51198  0.89453  1.0000
  C   C2483     1.0  0.79514  0.49260  0.51998  1.0000
  H   H1986     1.0  0.53936  0.67815  0.58076  1.0000
  C   C2484     1.0  0.69560  0.59048  0.63414  1.0000
  H   H1987     1.0  0.54719  0.48617  0.90322  1.0000
  H   H1988     1.0  0.66373  0.72393  0.57754  1.0000
  H   H1989     1.0  0.71024  0.50056  0.51428  1.0000
  C   C2485     1.0  0.53294  0.68742  0.57187  1.0000
  C   C2486     1.0  0.69181  0.73193  0.54603  1.0000
  C   C2487     1.0  0.66220  0.72884  0.48497  1.0000
  C   C2488     1.0  0.76153  0.69458  0.53021  1.0000
  C   C2489     1.0  0.65339  0.68203  0.53174  1.0000
  H   H1990     1.0  0.65951  0.59706  0.62723  1.0000
  C   C2490     1.0  0.92634  0.72959  0.69455  1.0000
  S   S333      1.0  0.89481  0.66163  0.53191  1.0000
  H   H1991     1.0  0.62953  0.52240  0.73956  1.0000
  H   H1992     1.0  0.49412  0.62071  0.97497  1.0000
  C   C2491     1.0  0.77592  0.61828  0.55622  1.0000
  H   H1993     1.0  0.51785  0.70897  0.92526  1.0000
  C   C2492     1.0  0.64984  0.69515  0.53591  1.0000
  C   C2493     1.0  0.65102  0.50496  0.91517  1.0000
  Fe  Fe167     1.0  0.60996  0.48725  0.77036  1.0000
  C   C2494     1.0  0.50721  0.48526  0.76747  1.0000
  H   H1994     1.0  0.50888  0.69036  0.96445  1.0000
  S   S334      1.0  0.96056  0.67510  0.51311  1.0000
  H   H1995     1.0  0.51559  0.60198  0.94863  1.0000
  S   S335      1.0  0.52495  0.66354  0.96001  1.0000
  C   C2495     1.0  0.70617  0.48373  0.54695  1.0000
  C   C2496     1.0  0.98687  0.57636  0.48608  1.0000
  C   C2497     1.0  0.54068  0.70838  0.54786  1.0000
  H   H1996     1.0  0.69727  0.56989  0.52724  1.0000
  H   H1997     1.0  0.89412  0.49674  0.51452  1.0000
  C   C2498     1.0  0.86630  0.62440  0.50404  1.0000
  C   C2499     1.0  0.81553  0.66044  0.49579  1.0000
  P   P83       1.0  0.50601  0.72717  0.53565  1.0000
  C   C2500     1.0  0.60067  0.72789  0.64355  1.0000
  H   H1998     1.0  0.67979  0.61442  0.48864  1.0000
  H   H1999     1.0  0.62712  0.51300  0.95547  1.0000
  H   H2000     1.0  0.50387  0.58015  0.96580  1.0000
  H   H2001     1.0  0.65646  0.71174  0.97282  1.0000
  C   C2501     1.0  0.49443  0.58835  0.97718  1.0000
  C   C2502     1.0  0.50038  0.70246  0.56225  1.0000
  C   C2503     1.0  0.80960  0.61534  0.49986  1.0000
  C   C2504     1.0  0.76765  0.69389  0.49300  1.0000
  C   C2505     1.0  0.89156  0.49676  0.48500  1.0000
  S   S336      1.0  0.57644  0.48465  0.80376  1.0000
  H   H2002     1.0  0.79801  0.59572  0.49782  1.0000
  H   H2003     1.0  0.92653  0.62302  0.49759  1.0000
  C   C2506     1.0  0.90813  0.62108  0.49134  1.0000
  H   H2004     1.0  0.68965  0.48709  0.55925  1.0000
  H   H2005     1.0  0.49633  0.68353  0.58359  1.0000
  H   H2006     1.0  0.88446  0.51684  0.48277  1.0000
  H   H2007     1.0  0.78476  0.68982  0.48582  1.0000
  C   C2507     1.0  0.83675  0.54296  0.48502  1.0000
  C   C2508     1.0  0.64517  0.49618  0.97573  1.0000
  Fe  Fe168     1.0  0.69526  0.65762  0.48281  1.0000
  S   S337      1.0  0.78519  0.65997  0.48073  1.0000
  H   H2008     1.0  0.50020  0.48494  0.66225  1.0000
  C   C2509     1.0  0.67273  0.59444  0.47920  1.0000
  C   C2510     1.0  0.85802  0.66034  0.47964  1.0000
  H   H2009     1.0  0.50069  0.48432  0.54441  1.0000
  C   C2511     1.0  0.49854  0.48560  0.60345  1.0000
  C   C2512     1.0  0.58731  0.73289  0.49768  1.0000
  H   H2010     1.0  0.90758  0.73186  0.69715  1.0000
  C   C2513     1.0  0.68320  0.82014  0.11220  1.0000
  S   S338      1.0  0.97520  0.80194  0.02400  1.0000
  C   C2514     1.0  0.70102  0.95024  0.38405  1.0000
  H   H2011     1.0  0.88899  0.94208  0.03167  1.0000
  C   C2515     1.0  0.65679  0.88670  0.09501  1.0000
  S   S339      1.0  0.74302  0.79383  0.05558  1.0000
  H   H2012     1.0  0.51116  0.92142  0.43791  1.0000
  H   H2013     1.0  0.58630  0.76535  0.18527  1.0000
  S   S340      1.0  0.59918  0.98089  0.27881  1.0000
  Fe  Fe169     1.0  0.71365  0.77983  0.04486  1.0000
  S   S341      1.0  0.69678  0.76445  0.08090  1.0000
  S   S342      1.0  0.58105  0.73858  0.24875  1.0000
  H   H2014     1.0  0.58347  0.95852  0.44347  1.0000
  C   C2516     1.0  0.73260  0.90932  0.04324  1.0000
  S   S343      1.0  0.61399  0.74480  0.32099  1.0000
  S   S344      1.0  0.54306  0.74724  0.33752  1.0000
  H   H2015     1.0  0.93089  0.98158  0.99056  1.0000
  S   S345      1.0  0.63771  0.75979  0.23075  1.0000
  C   C2517     1.0  0.52253  0.97998  0.44613  1.0000
  H   H2016     1.0  0.56971  0.77227  0.44560  1.0000
  Fe  Fe170     1.0  0.56819  0.97299  0.31007  1.0000
  S   S346      1.0  0.57968  0.95256  0.29882  1.0000
  C   C2518     1.0  0.88144  0.74166  0.14880  1.0000
  H   H2017     1.0  0.54933  0.94356  0.35991  1.0000
  S   S347      1.0  0.63289  0.96062  0.32473  1.0000
  H   H2018     1.0  0.58767  0.77525  0.07100  1.0000
  Fe  Fe171     1.0  0.61206  0.96044  0.27123  1.0000
  S   S348      1.0  0.63333  0.95299  0.22031  1.0000
  Fe  Fe172     1.0  0.59940  0.95418  0.35259  1.0000
  S   S349      1.0  0.59819  0.93771  0.39337  1.0000
  H   H2019     1.0  0.96494  0.95581  0.33674  1.0000
  S   S350      1.0  0.58626  0.97399  0.36501  1.0000
  C   C2519     1.0  0.89776  0.73650  0.03227  1.0000
  C   C2520     1.0  0.68835  0.90970  0.17868  1.0000
  H   H2020     1.0  0.90022  0.97093  0.28794  1.0000
  H   H2021     1.0  0.69372  0.87319  0.01549  1.0000
  C   C2521     1.0  0.63804  0.87120  0.05499  1.0000
  Fe  Fe173     1.0  0.64016  0.91958  0.00816  1.0000
  S   S351      1.0  0.61949  0.92715  0.05953  1.0000
  S   S352      1.0  0.67347  0.90726  0.00745  1.0000
  C   C2522     1.0  0.62894  0.94575  0.17571  1.0000
  C   C2523     1.0  0.64879  0.94332  0.15288  1.0000
  C   C2524     1.0  0.64637  0.93761  0.11761  1.0000
  C   C2525     1.0  0.62397  0.93421  0.10431  1.0000
  C   C2526     1.0  0.60417  0.93655  0.12726  1.0000
  C   C2527     1.0  0.60658  0.94224  0.16253  1.0000
  H   H2022     1.0  0.66622  0.94592  0.16250  1.0000
  H   H2023     1.0  0.66181  0.93602  0.10051  1.0000
  H   H2024     1.0  0.58672  0.93399  0.11756  1.0000
  H   H2025     1.0  0.59108  0.94396  0.17945  1.0000
  C   C2528     1.0  0.65804  0.94702  0.42070  1.0000
  H   H2026     1.0  0.70693  0.90897  0.17131  1.0000
  H   H2027     1.0  0.70361  0.80275  0.10586  1.0000
  H   H2028     1.0  0.97755  0.96672  0.22343  1.0000
  H   H2029     1.0  0.69842  0.82572  0.12005  1.0000
  H   H2030     1.0  0.60740  0.87793  0.02492  1.0000
  H   H2031     1.0  0.95903  0.94772  0.25097  1.0000
  C   C2529     1.0  0.50525  0.94173  0.44118  1.0000
  C   C2530     1.0  0.60794  0.78743  0.10718  1.0000
  C   C2531     1.0  0.53948  0.75740  0.37669  1.0000
  C   C2532     1.0  0.55870  0.76159  0.39772  1.0000
  C   C2533     1.0  0.55472  0.76909  0.42958  1.0000
  C   C2534     1.0  0.53154  0.77247  0.44087  1.0000
  C   C2535     1.0  0.51238  0.76843  0.41960  1.0000
  C   C2536     1.0  0.51639  0.76108  0.38751  1.0000
  H   H2032     1.0  0.57660  0.75896  0.38961  1.0000
  C   C2537     1.0  0.51167  0.95369  0.42766  1.0000
  H   H2033     1.0  0.71123  0.96168  0.43005  1.0000
  C   C2538     1.0  0.64763  0.90306  0.17152  1.0000
  C   C2539     1.0  0.62079  0.88027  0.04516  1.0000
  S   S353      1.0  0.79901  0.77988  0.99265  1.0000
  C   C2540     1.0  0.65392  0.97696  0.47381  1.0000
  P   P84       1.0  0.49952  0.96821  0.44768  1.0000
  H   H2034     1.0  0.55876  0.74443  0.47492  1.0000
  C   C2541     1.0  0.68120  0.91847  0.20579  1.0000
  P   P85       1.0  0.68091  0.89119  0.12479  1.0000
  S   S354      1.0  0.69157  0.79369  0.01165  1.0000
  H   H2035     1.0  0.77773  0.97433  0.36785  1.0000
  C   C2542     1.0  0.68053  0.76342  0.12287  1.0000
  C   C2543     1.0  0.67845  0.77358  0.14781  1.0000
  C   C2544     1.0  0.66530  0.77226  0.18051  1.0000
  C   C2545     1.0  0.65425  0.76074  0.18908  1.0000
  C   C2546     1.0  0.65646  0.75052  0.16430  1.0000
  C   C2547     1.0  0.66947  0.75188  0.13143  1.0000
  H   H2036     1.0  0.68739  0.78237  0.14242  1.0000
  H   H2037     1.0  0.66390  0.78020  0.19955  1.0000
  H   H2038     1.0  0.64833  0.74155  0.17059  1.0000
  H   H2039     1.0  0.67115  0.74389  0.11263  1.0000
  C   C2548     1.0  0.60125  0.81800  0.42751  1.0000
  C   C2549     1.0  0.96720  0.98028  0.05305  1.0000
  H   H2040     1.0  0.97245  0.77090  0.13691  1.0000
  C   C2550     1.0  0.57236  0.73724  0.46945  1.0000
  C   C2551     1.0  0.58626  0.93811  0.43871  1.0000
  C   C2552     1.0  0.68619  0.80722  0.10380  1.0000
  C   C2553     1.0  0.64758  0.76849  0.98161  1.0000
  C   C2554     1.0  0.66690  0.80011  0.09171  1.0000
  C   C2555     1.0  0.76991  0.83404  0.99153  1.0000
  H   H2041     1.0  0.67487  0.96813  0.24839  1.0000
  H   H2042     1.0  0.61152  0.82567  0.43891  1.0000
  H   H2043     1.0  0.87037  0.94626  0.09208  1.0000
  C   C2556     1.0  0.51378  0.84127  0.43866  1.0000
  H   H2044     1.0  0.92780  0.79880  0.08390  1.0000
  H   H2045     1.0  0.55145  0.83941  0.43079  1.0000
  C   C2557     1.0  0.59284  0.77726  0.09911  1.0000
  C   C2558     1.0  0.61469  0.78967  0.14381  1.0000
  H   H2046     1.0  0.69090  0.73634  0.45349  1.0000
  C   C2559     1.0  0.94343  0.97104  0.35879  1.0000
  C   C2560     1.0  0.70421  0.85341  0.02375  1.0000
  C   C2561     1.0  0.87020  0.96666  0.08627  1.0000
  S   S355      1.0  0.52827  0.97744  0.30771  1.0000
  C   C2562     1.0  0.68336  0.94280  0.36817  1.0000
  C   C2563     1.0  0.69070  0.86340  0.00768  1.0000
  C   C2564     1.0  0.65728  0.91962  0.21550  1.0000
  Fe  Fe174     1.0  0.61938  0.74322  0.25951  1.0000
  C   C2565     1.0  0.95583  0.77344  0.12350  1.0000
  H   H2047     1.0  0.62244  0.79795  0.98867  1.0000
  C   C2566     1.0  0.89813  0.74248  0.12036  1.0000
  H   H2048     1.0  0.69062  0.91782  0.10594  1.0000
  H   H2049     1.0  0.63297  0.96983  0.42820  1.0000
  H   H2050     1.0  0.66998  0.86742  0.08525  1.0000
  C   C2567     1.0  0.94953  0.97956  0.24078  1.0000
  C   C2568     1.0  0.67569  0.95450  0.43694  1.0000
  H   H2051     1.0  0.92033  0.94993  0.28300  1.0000
  H   H2052     1.0  0.81331  0.75900  0.04284  1.0000
  C   C2569     1.0  0.69729  0.95599  0.41841  1.0000
  C   C2570     1.0  0.53139  0.93125  0.39724  1.0000
  H   H2053     1.0  0.50143  0.75811  0.37107  1.0000
  C   C2571     1.0  0.67821  0.86817  0.16180  1.0000
  C   C2572     1.0  0.87858  0.79079  0.00190  1.0000
  H   H2054     1.0  0.97155  0.93697  0.03650  1.0000
  H   H2055     1.0  0.57352  0.76144  0.12086  1.0000
  H   H2056     1.0  0.62195  0.91296  0.20569  1.0000
  H   H2057     1.0  0.63434  0.89712  0.15896  1.0000
  H   H2058     1.0  0.65160  0.92666  0.23577  1.0000
  C   C2573     1.0  0.67153  0.90215  0.16069  1.0000
  C   C2574     1.0  0.93070  0.78919  0.09385  1.0000
  H   H2059     1.0  0.64108  0.94581  0.43410  1.0000
  C   C2575     1.0  0.96490  0.96549  0.34705  1.0000
  H   H2060     1.0  0.63804  0.86185  0.04215  1.0000
  C   C2576     1.0  0.88582  0.95183  0.04068  1.0000
  C   C2577     1.0  0.59859  0.73531  0.13161  1.0000
  H   H2061     1.0  0.60231  0.79745  0.35448  1.0000
  H   H2062     1.0  0.62163  0.74469  0.09382  1.0000
  C   C2578     1.0  0.71803  0.91710  0.06527  1.0000
  H   H2063     1.0  0.75074  0.98126  0.31843  1.0000
  C   C2579     1.0  0.70271  0.91166  0.09069  1.0000
  Fe  Fe175     1.0  0.57664  0.73874  0.31065  1.0000
  C   C2580     1.0  0.73185  0.89609  0.04657  1.0000
  C   C2581     1.0  0.91272  0.75711  0.01534  1.0000
  C   C2582     1.0  0.56437  0.82564  0.02546  1.0000
  C   C2583     1.0  0.55713  0.81575  0.04809  1.0000
  C   C2584     1.0  0.57376  0.80682  0.06126  1.0000
  C   C2585     1.0  0.59781  0.80773  0.05180  1.0000
  C   C2586     1.0  0.60488  0.81762  0.02862  1.0000
  P   P86       1.0  0.61987  0.79678  0.07024  1.0000
  C   C2587     1.0  0.63023  0.78570  0.03510  1.0000
  C   C2588     1.0  0.64444  0.80589  0.08775  1.0000
  C   C2589     1.0  0.64131  0.81876  0.09802  1.0000
  C   C2590     1.0  0.66072  0.82589  0.10965  1.0000
  C   C2591     1.0  0.64002  0.77384  0.04535  1.0000
  C   C2592     1.0  0.58007  0.81421  0.44414  1.0000
  C   C2593     1.0  0.60870  0.73725  0.09716  1.0000
  C   C2594     1.0  0.86086  0.79827  0.01948  1.0000
  H   H2064     1.0  0.86597  0.80663  0.03493  1.0000
  H   H2065     1.0  0.68608  0.93845  0.34139  1.0000
  C   C2595     1.0  0.60926  0.81195  0.39531  1.0000
  H   H2066     1.0  0.53865  0.81511  0.05597  1.0000
  H   H2067     1.0  0.56781  0.79941  0.07935  1.0000
  H   H2068     1.0  0.71753  0.95164  0.36961  1.0000
  H   H2069     1.0  0.62403  0.82338  0.09669  1.0000
  H   H2070     1.0  0.65846  0.83592  0.11609  1.0000
  H   H2071     1.0  0.64179  0.77131  0.07405  1.0000
  C   C2596     1.0  0.65613  0.87441  0.07952  1.0000
  C   C2597     1.0  0.70230  0.89837  0.09489  1.0000
  C   C2598     1.0  0.58483  0.76940  0.12719  1.0000
  C   C2599     1.0  0.62921  0.78882  0.99761  1.0000
  H   H2072     1.0  0.62667  0.79724  0.15095  1.0000
  C   C2600     1.0  0.58081  0.94954  0.45711  1.0000
  C   C2601     1.0  0.87580  0.97681  0.06349  1.0000
  C   C2602     1.0  0.62153  0.89255  0.06009  1.0000
  C   C2603     1.0  0.68766  0.85733  0.17895  1.0000
  H   H2073     1.0  0.69407  0.92456  0.21888  1.0000
  H   H2074     1.0  0.74376  0.91356  0.02255  1.0000
  H   H2075     1.0  0.88995  0.98252  0.01205  1.0000
  H   H2076     1.0  0.67594  0.85011  0.18917  1.0000
  C   C2604     1.0  0.68790  0.97527  0.25530  1.0000
  C   C2605     1.0  0.89199  0.96201  0.01799  1.0000
  H   H2077     1.0  0.74249  0.89007  0.02847  1.0000
  C   C2606     1.0  0.92854  0.95824  0.27143  1.0000
  H   H2078     1.0  0.69869  0.73591  0.35626  1.0000
  C   C2607     1.0  0.58824  0.82655  0.01563  1.0000
  H   H2079     1.0  0.92725  0.96562  0.35756  1.0000
  H   H2080     1.0  0.71765  0.85563  0.04394  1.0000
  C   C2608     1.0  0.82629  0.76239  0.06250  1.0000
  C   C2609     1.0  0.82003  0.77216  0.08704  1.0000
  C   C2610     1.0  0.83679  0.77672  0.11202  1.0000
  C   C2611     1.0  0.85988  0.77158  0.11222  1.0000
  C   C2612     1.0  0.86649  0.76202  0.08680  1.0000
  C   C2613     1.0  0.84941  0.75735  0.06224  1.0000
  P   P87       1.0  0.89619  0.75523  0.08733  1.0000
  H   H2081     1.0  0.62566  0.81484  0.38262  1.0000
  C   C2614     1.0  0.90293  0.74915  0.04186  1.0000
  H   H2082     1.0  0.67985  0.82811  0.97991  1.0000
  S   S356      1.0  0.90894  0.79568  0.00475  1.0000
  H   H2083     1.0  0.49274  0.94096  0.46352  1.0000
  H   H2084     1.0  0.96541  0.79299  0.11593  1.0000
  C   C2615     1.0  0.78468  0.82341  0.99719  1.0000
  Fe  Fe176     1.0  0.94828  0.79003  0.99334  1.0000
  C   C2616     1.0  0.52711  0.95424  0.39750  1.0000
  C   C2617     1.0  0.66198  0.94111  0.38665  1.0000
  H   H2085     1.0  0.85387  0.74996  0.04245  1.0000
  H   H2086     1.0  0.60374  0.74114  0.15496  1.0000
  C   C2618     1.0  0.91756  0.76733  0.09860  1.0000
  C   C2619     1.0  0.91360  0.77995  0.08738  1.0000
  C   C2620     1.0  0.71664  0.89062  0.07208  1.0000
  C   C2621     1.0  0.71223  0.85580  0.18288  1.0000
  C   C2622     1.0  0.88655  0.97450  0.02947  1.0000
  C   C2623     1.0  0.93884  0.76415  0.11686  1.0000
  C   C2624     1.0  0.94230  0.94649  0.00926  1.0000
  H   H2087     1.0  0.80226  0.77629  0.08619  1.0000
  H   H2088     1.0  0.83191  0.78432  0.13096  1.0000
  H   H2089     1.0  0.87260  0.77515  0.13192  1.0000
  C   C2625     1.0  0.82949  0.78443  0.99696  1.0000
  H   H2090     1.0  0.53188  0.96325  0.38562  1.0000
  H   H2091     1.0  0.96408  0.97061  0.04389  1.0000
  H   H2092     1.0  0.93340  0.94866  0.03485  1.0000
  H   H2093     1.0  0.56354  0.73579  0.41183  1.0000
  H   H2094     1.0  0.51147  0.84824  0.41712  1.0000
  C   C2626     1.0  0.49423  0.83742  0.45902  1.0000
  H   H2095     1.0  0.53976  0.92267  0.38629  1.0000
  C   C2627     1.0  0.53955  0.82738  0.47484  1.0000
  C   C2628     1.0  0.57476  0.79857  0.39528  1.0000
  H   H2096     1.0  0.55155  0.83268  0.01578  1.0000
  H   H2097     1.0  0.89762  0.78262  0.07255  1.0000
  H   H2098     1.0  0.60852  0.89972  0.05184  1.0000
  C   C2629     1.0  0.56672  0.80459  0.42740  1.0000
  C   C2630     1.0  0.91720  0.97018  0.27423  1.0000
  H   H2099     1.0  0.94271  0.75454  0.12554  1.0000
  C   C2631     1.0  0.60663  0.78179  0.17177  1.0000
  C   C2632     1.0  0.87517  0.95416  0.07482  1.0000
  C   C2633     1.0  0.63963  0.89580  0.08453  1.0000
  S   S357      1.0  0.96750  0.77165  0.00787  1.0000
  H   H2100     1.0  0.65913  0.86927  0.15907  1.0000
  H   H2101     1.0  0.58697  0.91765  0.44320  1.0000
  H   H2102     1.0  0.91609  0.76701  0.02149  1.0000
  H   H2103     1.0  0.72782  0.74159  0.40482  1.0000
  C   C2634     1.0  0.64053  0.91190  0.19846  1.0000
  C   C2635     1.0  0.70049  0.84059  0.01386  1.0000
  S   S358      1.0  0.71747  0.82833  0.03594  1.0000
  H   H2104     1.0  0.65705  0.75641  0.02707  1.0000
  C   C2636     1.0  0.96081  0.96765  0.23802  1.0000
  C   C2637     1.0  0.71072  0.97449  0.24038  1.0000
  H   H2105     1.0  0.71785  0.92732  0.06135  1.0000
  H   H2106     1.0  0.86161  0.96849  0.11244  1.0000
  C   C2638     1.0  0.69332  0.87746  0.14790  1.0000
  C   C2639     1.0  0.53896  0.98123  0.47496  1.0000
  C   C2640     1.0  0.71794  0.87604  0.15292  1.0000
  C   C2641     1.0  0.72734  0.86519  0.17009  1.0000
  C   C2642     1.0  0.53638  0.83624  0.44645  1.0000
  C   C2643     1.0  0.59187  0.77162  0.16348  1.0000
  C   C2644     1.0  0.96414  0.93996  0.01040  1.0000
  C   C2645     1.0  0.95034  0.95698  0.25337  1.0000
  H   H2107     1.0  0.76190  0.83897  0.01480  1.0000
  C   C2646     1.0  0.95185  0.78592  0.11180  1.0000
  H   H2108     1.0  0.72991  0.88327  0.14350  1.0000
  H   H2109     1.0  0.71562  0.88034  0.07332  1.0000
  H   H2110     1.0  0.74638  0.86404  0.17336  1.0000
  H   H2111     1.0  0.64816  0.93544  0.37425  1.0000
  H   H2112     1.0  0.55007  0.80170  0.43931  1.0000
  C   C2647     1.0  0.58277  0.92655  0.45710  1.0000
  H   H2113     1.0  0.86702  0.74855  0.15131  1.0000
  C   C2648     1.0  0.83658  0.79511  0.01719  1.0000
  H   H2114     1.0  0.71615  0.97999  0.38966  1.0000
  Fe  Fe177     1.0  0.76016  0.78668  0.00307  1.0000
  H   H2115     1.0  0.71955  0.84736  0.19596  1.0000
  H   H2116     1.0  0.61250  0.78327  0.19987  1.0000
  H   H2117     1.0  0.64051  0.90551  0.09461  1.0000
  H   H2118     1.0  0.57918  0.74973  0.99561  1.0000
  H   H2119     1.0  0.82337  0.80094  0.03120  1.0000
  C   C2649     1.0  0.63664  0.97785  0.44607  1.0000
  H   H2120     1.0  0.66970  0.79016  0.08487  1.0000
  C   C2650     1.0  0.64862  0.76529  0.01872  1.0000
  H   H2121     1.0  0.78792  0.82001  0.02481  1.0000
  Fe  Fe178     1.0  0.72169  0.80727  0.01882  1.0000
  H   H2122     1.0  0.56440  0.79105  0.38281  1.0000
  C   C2651     1.0  0.59610  0.80219  0.37933  1.0000
  H   H2123     1.0  0.59398  0.83428  0.99835  1.0000
  S   S359      1.0  0.73226  0.77165  0.99481  1.0000
  Fe  Fe179     1.0  0.61827  0.98044  0.33352  1.0000
  C   C2652     1.0  0.53691  0.94306  0.38247  1.0000
  H   H2124     1.0  0.62342  0.81860  0.02127  1.0000
  H   H2125     1.0  0.67566  0.97864  0.36275  1.0000
  H   H2126     1.0  0.97604  0.98227  0.98030  1.0000
  H   H2127     1.0  0.50412  0.97212  0.19154  1.0000
  H   H2128     1.0  0.71536  0.96670  0.22189  1.0000
  C   C2653     1.0  0.68297  0.83789  0.98776  1.0000
  C   C2654     1.0  0.51541  0.93058  0.42640  1.0000
  C   C2655     1.0  0.92768  0.98095  0.25903  1.0000
  C   C2656     1.0  0.67290  0.86068  0.98203  1.0000
  C   C2657     1.0  0.98596  0.97240  0.34889  1.0000
  H   H2129     1.0  0.49448  0.77111  0.42758  1.0000
  H   H2130     1.0  0.92985  0.73390  0.09657  1.0000
  C   C2658     1.0  0.87152  0.78000  0.98211  1.0000
  H   H2131     1.0  0.61620  0.73780  0.97924  1.0000
  C   C2659     1.0  0.91666  0.73337  0.11811  1.0000
  C   C2660     1.0  0.91809  0.75240  0.98024  1.0000
  C   C2661     1.0  0.84723  0.77687  0.97970  1.0000
  H   H2132     1.0  0.70602  0.98173  0.46955  1.0000
  S   S360      1.0  0.58067  0.75355  0.72583  1.0000
  C   C2662     1.0  0.53674  0.73649  0.58897  1.0000
  Fe  Fe180     1.0  0.49451  0.78594  0.51592  1.0000
  H   H2133     1.0  0.58387  0.88114  0.65610  1.0000
  S   S361      1.0  0.96715  0.79206  0.93880  1.0000
  C   C2663     1.0  0.49808  0.93680  0.87972  1.0000
  C   C2664     1.0  0.54981  0.83510  0.81350  1.0000
  H   H2134     1.0  0.98576  0.77302  0.84172  1.0000
  C   C2665     1.0  0.98527  0.85495  0.92825  1.0000
  S   S362      1.0  0.69055  0.78289  0.90984  1.0000
  C   C2666     1.0  0.79997  0.82418  0.78599  1.0000
  H   H2135     1.0  0.54287  0.91325  0.82076  1.0000
  H   H2136     1.0  0.53495  0.74079  0.72208  1.0000
  Fe  Fe181     1.0  0.53647  0.89308  0.60235  1.0000
  S   S363      1.0  0.56994  0.90431  0.61041  1.0000
  S   S364      1.0  0.54035  0.87322  0.57661  1.0000
  H   H2137     1.0  0.58487  0.73677  0.52505  1.0000
  S   S365      1.0  0.53749  0.92595  0.65347  1.0000
  Fe  Fe182     1.0  0.54769  0.92143  0.59436  1.0000
  S   S366      1.0  0.55880  0.93818  0.55843  1.0000
  Fe  Fe183     1.0  0.55742  0.90786  0.66865  1.0000
  S   S367      1.0  0.58182  0.90190  0.71682  1.0000
  Fe  Fe184     1.0  0.80455  0.97556  0.84864  1.0000
  S   S368      1.0  0.52535  0.89569  0.66079  1.0000
  H   H2138     1.0  0.95909  0.76233  0.71522  1.0000
  Fe  Fe185     1.0  0.63485  0.91753  0.92242  1.0000
  S   S369      1.0  0.61191  0.92501  0.87400  1.0000
  S   S370      1.0  0.66806  0.90547  0.91701  1.0000
  C   C2667     1.0  0.49743  0.85851  0.74285  1.0000
  S   S371      1.0  0.87722  0.94844  0.83115  1.0000
  S   S372      1.0  0.76708  0.97200  0.87020  1.0000
  S   S373      1.0  0.81936  0.96605  0.79812  1.0000
  C   C2668     1.0  0.52958  0.75035  0.53703  1.0000
  C   C2669     1.0  0.73486  0.93732  0.92799  1.0000
  C   C2670     1.0  0.72130  0.94834  0.92122  1.0000
  C   C2671     1.0  0.73170  0.95887  0.90413  1.0000
  C   C2672     1.0  0.75545  0.95842  0.89239  1.0000
  C   C2673     1.0  0.76890  0.94729  0.89831  1.0000
  C   C2674     1.0  0.75873  0.93688  0.91649  1.0000
  H   H2139     1.0  0.70301  0.94890  0.93016  1.0000
  H   H2140     1.0  0.72136  0.96752  0.90043  1.0000
  H   H2141     1.0  0.78714  0.94674  0.88918  1.0000
  H   H2142     1.0  0.54573  0.84617  0.57197  1.0000
  C   C2675     1.0  0.58988  0.90857  0.76038  1.0000
  C   C2676     1.0  0.58508  0.92129  0.76983  1.0000
  C   C2677     1.0  0.59250  0.92620  0.80419  1.0000
  C   C2678     1.0  0.60445  0.91844  0.83000  1.0000
  C   C2679     1.0  0.60943  0.90573  0.82042  1.0000
  C   C2680     1.0  0.60228  0.90087  0.78584  1.0000
  H   H2143     1.0  0.57598  0.92738  0.75041  1.0000
  H   H2144     1.0  0.58895  0.93610  0.81082  1.0000
  H   H2145     1.0  0.61869  0.89963  0.83974  1.0000
  H   H2146     1.0  0.60636  0.89105  0.77881  1.0000
  C   C2681     1.0  0.56869  0.93780  0.51189  1.0000
  H   H2147     1.0  0.75236  0.84593  0.95163  1.0000
  H   H2148     1.0  0.55995  0.76393  0.95016  1.0000
  S   S374      1.0  0.62087  0.90612  0.96961  1.0000
  C   C2682     1.0  0.98842  0.84198  0.93770  1.0000
  H   H2149     1.0  0.57133  0.91740  0.50704  1.0000
  C   C2683     1.0  0.51651  0.93506  0.85410  1.0000
  H   H2150     1.0  0.56872  0.95826  0.50780  1.0000
  C   C2684     1.0  0.95827  0.94261  0.84089  1.0000
  C   C2685     1.0  0.94859  0.95480  0.83374  1.0000
  C   C2686     1.0  0.92382  0.95684  0.83161  1.0000
  C   C2687     1.0  0.90846  0.94666  0.83621  1.0000
  C   C2688     1.0  0.91816  0.93452  0.84389  1.0000
  C   C2689     1.0  0.94291  0.93251  0.84649  1.0000
  H   H2151     1.0  0.96031  0.96267  0.82926  1.0000
  H   H2152     1.0  0.91662  0.96619  0.82542  1.0000
  H   H2153     1.0  0.90644  0.92658  0.84734  1.0000
  S   S375      1.0  0.72326  0.92427  0.95271  1.0000
  H   H2154     1.0  0.93789  0.95044  0.91650  1.0000
  Fe  Fe186     1.0  0.85485  0.96676  0.82692  1.0000
  H   H2155     1.0  0.64303  0.84078  0.53169  1.0000
  H   H2156     1.0  0.58163  0.79415  0.49248  1.0000
  C   C2690     1.0  0.56820  0.84301  0.82466  1.0000
  C   C2691     1.0  0.65245  0.95195  0.50875  1.0000
  C   C2692     1.0  0.59036  0.85676  0.52244  1.0000
  C   C2693     1.0  0.88730  0.93794  0.93205  1.0000
  C   C2694     1.0  0.85835  0.95421  0.94962  1.0000
  H   H2157     1.0  0.97004  0.93223  0.76835  1.0000
  C   C2695     1.0  0.98683  0.75908  0.79799  1.0000
  C   C2696     1.0  0.67806  0.96914  0.86240  1.0000
  C   C2697     1.0  0.68337  0.74450  0.89604  1.0000
  C   C2698     1.0  0.81313  0.84195  0.82307  1.0000
  C   C2699     1.0  0.52677  0.76194  0.79358  1.0000
  C   C2700     1.0  0.96458  0.91308  0.74890  1.0000
  H   H2158     1.0  0.81905  0.85169  0.82523  1.0000
  C   C2701     1.0  0.53405  0.74916  0.70494  1.0000
  C   C2702     1.0  0.55385  0.75690  0.70191  1.0000
  C   C2703     1.0  0.55238  0.76774  0.67944  1.0000
  C   C2704     1.0  0.53133  0.77081  0.66016  1.0000
  H   H2159     1.0  0.65549  0.84562  0.95245  1.0000
  C   C2705     1.0  0.51133  0.76321  0.66384  1.0000
  H   H2160     1.0  0.56766  0.77375  0.67683  1.0000
  H   H2161     1.0  0.53048  0.77908  0.64269  1.0000
  C   C2706     1.0  0.54482  0.95405  0.80013  1.0000
  C   C2707     1.0  0.66083  0.75495  0.84802  1.0000
  C   C2708     1.0  0.66810  0.76682  0.86183  1.0000
  C   C2709     1.0  0.68273  0.76764  0.89301  1.0000
  C   C2710     1.0  0.69050  0.75640  0.90996  1.0000
  H   H2162     1.0  0.76262  0.96832  0.70862  1.0000
  H   H2163     1.0  0.64945  0.75448  0.82409  1.0000
  H   H2164     1.0  0.66240  0.77545  0.84830  1.0000
  H   H2165     1.0  0.70189  0.75688  0.93389  1.0000
  H   H2166     1.0  0.55476  0.87230  0.69845  1.0000
  C   C2711     1.0  0.54288  0.76851  0.81560  1.0000
  C   C2712     1.0  0.53472  0.94327  0.74326  1.0000
  C   C2713     1.0  0.58698  0.75082  0.96867  1.0000
  H   H2167     1.0  0.87481  0.78573  0.87296  1.0000
  H   H2168     1.0  0.60661  0.79290  0.87978  1.0000
  H   H2169     1.0  0.50602  0.79761  0.66036  1.0000
  H   H2170     1.0  0.75827  0.97285  0.55164  1.0000
  H   H2171     1.0  0.88146  0.81597  0.95204  1.0000
  C   C2714     1.0  0.77354  0.77700  0.90103  1.0000
  C   C2715     1.0  0.86945  0.93121  0.91401  1.0000
  C   C2716     1.0  0.63433  0.95705  0.53120  1.0000
  H   H2172     1.0  0.56425  0.83537  0.64661  1.0000
  C   C2717     1.0  0.78348  0.79884  0.88679  1.0000
  C   C2718     1.0  0.78949  0.78704  0.90241  1.0000
  P   P88       1.0  0.80254  0.81231  0.89291  1.0000
  C   C2719     1.0  0.83300  0.80754  0.90147  1.0000
  C   C2720     1.0  0.87082  0.81090  0.93202  1.0000
  C   C2721     1.0  0.59592  0.77722  0.84467  1.0000
  C   C2722     1.0  0.59048  0.86337  0.62756  1.0000
  C   C2723     1.0  0.57976  0.87111  0.65436  1.0000
  H   H2173     1.0  0.59112  0.85826  0.80922  1.0000
  C   C2724     1.0  0.56857  0.84531  0.64947  1.0000
  C   C2725     1.0  0.84707  0.81445  0.92625  1.0000
  C   C2726     1.0  0.56440  0.95967  0.74349  1.0000
  C   C2727     1.0  0.54932  0.84505  0.75331  1.0000
  H   H2174     1.0  0.57558  0.84223  0.85210  1.0000
  C   C2728     1.0  0.84333  0.79736  0.88160  1.0000
  C   C2729     1.0  0.79016  0.82110  0.93129  1.0000
  C   C2730     1.0  0.77464  0.83153  0.92573  1.0000
  C   C2731     1.0  0.51318  0.91916  0.78630  1.0000
  C   C2732     1.0  0.53286  0.89834  0.78419  1.0000
  C   C2733     1.0  0.96682  0.94100  0.94420  1.0000
  C   C2734     1.0  0.61433  0.85459  0.53054  1.0000
  C   C2735     1.0  0.60049  0.77090  0.81118  1.0000
  H   H2175     1.0  0.52096  0.76591  0.76758  1.0000
  C   C2736     1.0  0.79459  0.81689  0.96715  1.0000
  C   C2737     1.0  0.81155  0.83450  0.85463  1.0000
  H   H2176     1.0  0.80610  0.78567  0.91698  1.0000
  C   C2738     1.0  0.50558  0.95789  0.51783  1.0000
  C   C2739     1.0  0.56323  0.86603  0.67843  1.0000
  C   C2740     1.0  0.55099  0.95071  0.72445  1.0000
  H   H2177     1.0  0.75538  0.80978  0.86043  1.0000
  C   C2741     1.0  0.69966  0.73538  0.51116  1.0000
  H   H2178     1.0  0.92592  0.75861  0.96010  1.0000
  H   H2179     1.0  0.84211  0.76855  0.96409  1.0000
  H   H2180     1.0  0.56677  0.76405  0.59896  1.0000
  C   C2742     1.0  0.79839  0.81670  0.81751  1.0000
  H   H2181     1.0  0.55446  0.93206  0.84813  1.0000
  H   H2182     1.0  0.76983  0.83452  0.89829  1.0000
  C   C2743     1.0  0.49841  0.91532  0.75718  1.0000
  C   C2744     1.0  0.55560  0.75696  0.58640  1.0000
  C   C2745     1.0  0.56935  0.81067  0.52374  1.0000
  C   C2746     1.0  0.97842  0.92356  0.75793  1.0000
  C   C2747     1.0  0.84611  0.93596  0.91375  1.0000
  C   C2748     1.0  0.91335  0.73976  0.97112  1.0000
  C   C2749     1.0  0.96492  0.87359  0.64515  1.0000
  H   H2183     1.0  0.91755  0.73616  0.94388  1.0000
  S   S376      1.0  0.65401  0.87276  0.96286  1.0000
  P   P89       1.0  0.90435  0.95867  0.97304  1.0000
  P   P90       1.0  0.57341  0.77141  0.87545  1.0000
  H   H2184     1.0  0.77026  0.96692  0.77548  1.0000
  H   H2185     1.0  0.97871  0.84509  0.68442  1.0000
  C   C2750     1.0  0.80374  0.82191  0.85215  1.0000
  C   C2751     1.0  0.54287  0.75127  0.85951  1.0000
  C   C2752     1.0  0.73349  0.97836  0.50930  1.0000
  H   H2186     1.0  0.52446  0.93637  0.72807  1.0000
  H   H2187     1.0  0.55330  0.94945  0.69508  1.0000
  C   C2753     1.0  0.53984  0.93326  0.86705  1.0000
  C   C2754     1.0  0.49491  0.86346  0.58342  1.0000
  H   H2188     1.0  0.61536  0.75449  0.87251  1.0000
  H   H2189     1.0  0.52871  0.78638  0.86666  1.0000
  H   H2190     1.0  0.56280  0.93154  0.91420  1.0000
  C   C2755     1.0  0.86707  0.79380  0.88760  1.0000
  H   H2191     1.0  0.97317  0.83610  0.94228  1.0000
  C   C2756     1.0  0.98013  0.88137  0.66536  1.0000
  H   H2192     1.0  0.53312  0.81341  0.95522  1.0000
  Fe  Fe187     1.0  0.68419  0.91894  0.95828  1.0000
  C   C2757     1.0  0.54447  0.75938  0.55280  1.0000
  C   C2758     1.0  0.57084  0.79421  0.58420  1.0000
  C   C2759     1.0  0.57700  0.85203  0.80047  1.0000
  C   C2760     1.0  0.90197  0.97422  0.91110  1.0000
  H   H2193     1.0  0.65490  0.76202  0.96110  1.0000
  P   P91       1.0  0.51050  0.93515  0.80512  1.0000
  C   C2761     1.0  0.63031  0.78630  0.79609  1.0000
  H   H2194     1.0  0.72760  0.79186  0.85735  1.0000
  C   C2762     1.0  0.64192  0.93066  0.52803  1.0000
  C   C2763     1.0  0.95728  0.77597  0.75950  1.0000
  C   C2764     1.0  0.52865  0.80043  0.90964  1.0000
  C   C2765     1.0  0.57763  0.78976  0.54940  1.0000
  C   C2766     1.0  0.88078  0.80055  0.91288  1.0000
  C   C2767     1.0  0.53335  0.80814  0.68832  1.0000
  C   C2768     1.0  0.62453  0.84251  0.52486  1.0000
  Fe  Fe188     1.0  0.58896  0.73561  0.75905  1.0000
  Fe  Fe189     1.0  0.98823  0.77445  0.95533  1.0000
  C   C2769     1.0  0.53182  0.94472  0.78136  1.0000
  C   C2770     1.0  0.96428  0.86053  0.65218  1.0000
  H   H2195     1.0  0.80850  0.84258  0.76433  1.0000
  H   H2196     1.0  0.76939  0.92840  0.92157  1.0000
  C   C2771     1.0  0.57230  0.94937  0.49356  1.0000
  C   C2772     1.0  0.50607  0.82984  0.67129  1.0000
  C   C2773     1.0  0.74516  0.79045  0.86901  1.0000
  C   C2774     1.0  0.56367  0.80692  0.58897  1.0000
  H   H2197     1.0  0.54681  0.76839  0.53928  1.0000
  Fe  Fe190     1.0  0.71162  0.78616  0.96265  1.0000
  H   H2198     1.0  0.83298  0.79210  0.86172  1.0000
  H   H2199     1.0  0.94551  0.91366  0.75259  1.0000
  H   H2200     1.0  0.62081  0.77045  0.76123  1.0000
  C   C2775     1.0  0.74154  0.97077  0.53826  1.0000
  C   C2776     1.0  0.76099  0.80055  0.87069  1.0000
  C   C2777     1.0  0.61777  0.74539  0.92483  1.0000
  C   C2778     1.0  0.97959  0.77059  0.81430  1.0000
  C   C2779     1.0  0.62379  0.93581  0.54999  1.0000
  H   H2201     1.0  0.55927  0.74392  0.63145  1.0000
  C   C2780     1.0  0.57386  0.92637  0.49332  1.0000
  C   C2781     1.0  0.56759  0.85309  0.76500  1.0000
  H   H2202     1.0  0.61879  0.82321  0.50733  1.0000
  C   C2782     1.0  0.60914  0.78801  0.85387  1.0000
  C   C2783     1.0  0.58488  0.85048  0.62507  1.0000
  H   H2203     1.0  0.95011  0.92308  0.85188  1.0000
  H   H2204     1.0  0.54689  0.89196  0.79360  1.0000
  H   H2205     1.0  0.88469  0.77422  0.96795  1.0000
  H   H2206     1.0  0.51988  0.88518  0.74354  1.0000
  C   C2784     1.0  0.52708  0.83113  0.69173  1.0000
  H   H2207     1.0  0.54288  0.82816  0.83235  1.0000
  C   C2785     1.0  0.96471  0.77902  0.79515  1.0000
  H   H2208     1.0  0.81652  0.83855  0.88099  1.0000
  C   C2786     1.0  0.56326  0.81514  0.55897  1.0000
  H   H2209     1.0  0.94617  0.78264  0.74439  1.0000
  C   C2787     1.0  0.50396  0.86439  0.67954  1.0000
  C   C2788     1.0  0.71633  0.94963  0.73289  1.0000
  C   C2789     1.0  0.72094  0.94862  0.77073  1.0000
  C   C2790     1.0  0.74054  0.95490  0.78581  1.0000
  P   P92       1.0  0.70278  0.93891  0.79990  1.0000
  C   C2791     1.0  0.72178  0.92742  0.82315  1.0000
  C   C2792     1.0  0.68613  0.94871  0.83238  1.0000
  C   C2793     1.0  0.66679  0.94360  0.85123  1.0000
  C   C2794     1.0  0.65356  0.95114  0.87583  1.0000
  C   C2795     1.0  0.65927  0.96387  0.88161  1.0000
  C   C2796     1.0  0.56252  0.80010  0.95062  1.0000
  C   C2797     1.0  0.69143  0.96162  0.83787  1.0000
  C   C2798     1.0  0.74490  0.92474  0.81029  1.0000
  C   C2799     1.0  0.75924  0.91556  0.82755  1.0000
  C   C2800     1.0  0.75043  0.90870  0.85707  1.0000
  C   C2801     1.0  0.72728  0.91100  0.86925  1.0000
  C   C2802     1.0  0.71309  0.92040  0.85269  1.0000
  C   C2803     1.0  0.68139  0.93025  0.77286  1.0000
  C   C2804     1.0  0.68568  0.91747  0.76282  1.0000
  C   C2805     1.0  0.66861  0.91073  0.74301  1.0000
  C   C2806     1.0  0.64726  0.91671  0.73287  1.0000
  C   C2807     1.0  0.64298  0.92945  0.74239  1.0000
  C   C2808     1.0  0.65996  0.93622  0.76225  1.0000
  C   C2809     1.0  0.68486  0.73380  0.48067  1.0000
  H   H2210     1.0  0.64377  0.78969  0.77755  1.0000
  H   H2211     1.0  0.98069  0.89145  0.65934  1.0000
  H   H2212     1.0  0.70145  0.94485  0.72047  1.0000
  H   H2213     1.0  0.74456  0.95418  0.81489  1.0000
  H   H2214     1.0  0.66167  0.93380  0.84682  1.0000
  H   H2215     1.0  0.63886  0.94707  0.89054  1.0000
  H   H2216     1.0  0.60994  0.74714  0.63111  1.0000
  C   C2810     1.0  0.62011  0.94899  0.55173  1.0000
  H   H2217     1.0  0.70601  0.96598  0.82387  1.0000
  H   H2218     1.0  0.75204  0.92967  0.78694  1.0000
  H   H2219     1.0  0.77723  0.91381  0.81811  1.0000
  H   H2220     1.0  0.76155  0.90169  0.87081  1.0000
  H   H2221     1.0  0.72054  0.90576  0.89242  1.0000
  H   H2222     1.0  0.69545  0.92215  0.86329  1.0000
  H   H2223     1.0  0.70201  0.91261  0.77066  1.0000
  H   H2224     1.0  0.67175  0.90080  0.73598  1.0000
  H   H2225     1.0  0.63386  0.91142  0.71806  1.0000
  H   H2226     1.0  0.62623  0.93399  0.73500  1.0000
  H   H2227     1.0  0.65620  0.94604  0.76984  1.0000
  C   C2811     1.0  0.71192  0.97574  0.49202  1.0000
  H   H2228     1.0  0.73874  0.77103  0.88413  1.0000
  C   C2812     1.0  0.54467  0.93303  0.90470  1.0000
  H   H2229     1.0  0.54937  0.77757  0.80626  1.0000
  C   C2813     1.0  0.52623  0.93469  0.92994  1.0000
  H   H2230     1.0  0.77802  0.76807  0.91434  1.0000
  H   H2231     1.0  0.55744  0.82097  0.71462  1.0000
  C   C2814     1.0  0.53056  0.91056  0.79946  1.0000
  C   C2815     1.0  0.66829  0.74372  0.86527  1.0000
  H   H2232     1.0  0.57474  0.86020  0.74707  1.0000
  H   H2233     1.0  0.95251  0.85450  0.63649  1.0000
  H   H2234     1.0  0.80530  0.80840  0.97176  1.0000
  C   C2816     1.0  0.84054  0.94740  0.93180  1.0000
  H   H2235     1.0  0.55827  0.81039  0.61583  1.0000
  H   H2236     1.0  0.61217  0.92959  0.56502  1.0000
  H   H2237     1.0  0.54384  0.79969  0.69484  1.0000
  S   S377      1.0  0.98958  0.94041  0.84066  1.0000
  H   H2238     1.0  0.54238  0.95570  0.82926  1.0000
  S   S378      1.0  0.74040  0.80079  0.96710  1.0000
  H   H2239     1.0  0.60562  0.95288  0.56814  1.0000
  H   H2240     1.0  0.57103  0.78782  0.60743  1.0000
  C   C2817     1.0  0.51082  0.83810  0.57566  1.0000
  C   C2818     1.0  0.50041  0.90301  0.74262  1.0000
  H   H2241     1.0  0.54929  0.74674  0.88430  1.0000
  H   H2242     1.0  0.63081  0.96720  0.53247  1.0000
  H   H2243     1.0  0.90520  0.93409  0.93142  1.0000
  H   H2244     1.0  0.63660  0.80075  0.83710  1.0000
  H   H2245     1.0  0.79568  0.82014  0.75935  1.0000
  C   C2819     1.0  0.88188  0.94955  0.94980  1.0000
  C   C2820     1.0  0.51211  0.80693  0.66880  1.0000
  S   S379      1.0  0.51506  0.91000  0.58231  1.0000
  H   H2246     1.0  0.95371  0.87768  0.62392  1.0000
  C   C2821     1.0  0.53839  0.79010  0.88995  1.0000
  S   S380      1.0  0.83930  0.97489  0.87926  1.0000
  C   C2822     1.0  0.51772  0.89454  0.75592  1.0000
  C   C2823     1.0  0.56026  0.78465  0.90066  1.0000
  C   C2824     1.0  0.55154  0.74557  0.60461  1.0000
  C   C2825     1.0  0.52701  0.84818  0.57511  1.0000
  C   C2826     1.0  0.61751  0.77545  0.78698  1.0000
  C   C2827     1.0  0.51919  0.86091  0.57884  1.0000
  C   C2828     1.0  0.60883  0.73748  0.62063  1.0000
  H   H2247     1.0  0.49745  0.74648  0.68944  1.0000
  C   C2829     1.0  0.97899  0.85523  0.67923  1.0000
  C   C2830     1.0  0.52591  0.73874  0.55476  1.0000
  H   H2248     1.0  0.52232  0.95398  0.50788  1.0000
  H   H2249     1.0  0.60267  0.86748  0.60822  1.0000
  C   C2831     1.0  0.52676  0.74473  0.83735  1.0000
  C   C2832     1.0  0.57627  0.75893  0.94294  1.0000
  Fe  Fe191     1.0  0.65524  0.89467  0.96627  1.0000
  C   C2833     1.0  0.54091  0.82019  0.69959  1.0000
  H   H2250     1.0  0.55810  0.82500  0.56313  1.0000
  H   H2251     1.0  0.52075  0.75261  0.51137  1.0000
  H   H2252     1.0  0.79321  0.80686  0.81474  1.0000
  H   H2253     1.0  0.59279  0.84457  0.60372  1.0000
  C   C2834     1.0  0.75141  0.77868  0.88422  1.0000
  H   H2254     1.0  0.83243  0.93090  0.89896  1.0000
  C   C2835     1.0  0.55766  0.85305  0.67647  1.0000
  C   C2836     1.0  0.62618  0.79255  0.82958  1.0000
  C   C2837     1.0  0.65630  0.93869  0.50764  1.0000
  H   H2255     1.0  0.85381  0.96323  0.96269  1.0000
  H   H2256     1.0  0.89190  0.96679  0.89778  1.0000
  H   H2257     1.0  0.57155  0.96837  0.79606  1.0000
  C   C2838     1.0  0.97870  0.75570  0.76277  1.0000
  H   H2258     1.0  0.51169  0.80454  0.90139  1.0000
  C   C2839     1.0  0.51283  0.75240  0.68636  1.0000
  C   C2840     1.0  0.60735  0.75364  0.89929  1.0000
  C   C2841     1.0  0.70645  0.95785  0.53256  1.0000
  H   H2259     1.0  0.89903  0.79766  0.91828  1.0000
  H   H2260     1.0  0.82251  0.95118  0.93117  1.0000
  H   H2261     1.0  0.96749  0.85891  0.92573  1.0000
  S   S381      1.0  0.50339  0.79429  0.57175  1.0000
  H   H2262     1.0  0.49248  0.95929  0.77304  1.0000
  H   H2263     1.0  0.53005  0.93451  0.95915  1.0000
  C   C2842     1.0  0.96444  0.76441  0.74319  1.0000
  H   H2264     1.0  0.87383  0.92248  0.89929  1.0000
  C   C2843     1.0  0.55118  0.76321  0.84869  1.0000
  H   H2265     1.0  0.58217  0.86603  0.52785  1.0000
  C   C2844     1.0  0.75086  0.96287  0.72581  1.0000
  C   C2845     1.0  0.80724  0.83681  0.78877  1.0000
  C   C2846     1.0  0.73130  0.95673  0.71055  1.0000
  H   H2266     1.0  0.59096  0.76244  0.80347  1.0000
  C   C2847     1.0  0.91005  0.97293  0.94742  1.0000
  H   H2267     1.0  0.50219  0.85313  0.76705  1.0000
  H   H2268     1.0  0.58332  0.77994  0.54556  1.0000
  H   H2269     1.0  0.62209  0.74209  0.56715  1.0000
  H   H2270     1.0  0.71728  0.73915  0.50772  1.0000
  H   H2271     1.0  0.64446  0.92043  0.52627  1.0000
  H   H2272     1.0  0.72784  0.95741  0.68134  1.0000
  H   H2273     1.0  0.57194  0.80394  0.97405  1.0000
  C   C2848     1.0  0.97540  0.90178  0.73624  1.0000
  H   H2274     1.0  0.97632  0.93888  0.91896  1.0000
  H   H2275     1.0  0.68934  0.73586  0.90946  1.0000
  C   C2849     1.0  0.58666  0.76057  0.90824  1.0000
  H   H2276     1.0  0.63807  0.78281  0.94225  1.0000
  S   S382      1.0  0.65189  0.93186  0.96093  1.0000
  H   H2277     1.0  0.64917  0.96960  0.90112  1.0000
  C   C2850     1.0  0.63790  0.78023  0.97104  1.0000
  C   C2851     1.0  0.94501  0.94753  0.94292  1.0000
  H   H2278     1.0  0.57716  0.96533  0.72891  1.0000
  H   H2279     1.0  0.95929  0.78798  0.80781  1.0000
  H   H2280     1.0  0.68265  0.97899  0.86708  1.0000
  C   C2852     1.0  0.56124  0.96138  0.78129  1.0000
  C   C2853     1.0  0.57229  0.78979  0.93104  1.0000
  H   H2281     1.0  0.73438  0.95460  0.57222  1.0000
  C   C2854     1.0  0.72806  0.96050  0.54984  1.0000
  C   C2855     1.0  0.50296  0.93661  0.91746  1.0000
  H   H2282     1.0  0.51402  0.86365  0.65432  1.0000
  C   C2856     1.0  0.51083  0.85732  0.71047  1.0000
  C   C2857     1.0  0.51880  0.75002  0.80435  1.0000
  C   C2858     1.0  0.54028  0.83617  0.77810  1.0000
  H   H2283     1.0  0.96444  0.89363  0.73070  1.0000
  H   H2284     1.0  0.63365  0.73997  0.91763  1.0000
  C   C2859     1.0  0.60777  0.74408  0.95958  1.0000
  C   C2860     1.0  0.98865  0.97589  0.96710  1.0000
  H   H2285     1.0  0.62486  0.86226  0.54164  1.0000
  C   C2861     1.0  0.76464  0.83801  0.95583  1.0000
  H   H2286     1.0  0.69633  0.94985  0.54196  1.0000
  C   C2862     1.0  0.61082  0.83261  0.51076  1.0000
  C   C2863     1.0  0.75531  0.96203  0.76347  1.0000
  H   H2287     1.0  0.52577  0.83009  0.77014  1.0000
  H   H2288     1.0  0.83980  0.82253  0.94131  1.0000
  H   H2289     1.0  0.58927  0.78581  0.93963  1.0000
  H   H2290     1.0  0.50993  0.94921  0.57091  1.0000
  C   C2864     1.0  0.57673  0.79791  0.51919  1.0000
  C   C2865     1.0  0.51971  0.82319  0.49418  1.0000
  H   H2291     1.0  0.53783  0.97543  0.49923  1.0000
  Fe  Fe192     1.0  0.50620  0.91352  0.64196  1.0000
  P   P93       1.0  0.53628  0.84662  0.70798  1.0000
  H   H2292     1.0  0.51699  0.82834  0.57336  1.0000
  C   C2866     1.0  0.54070  0.80543  0.93997  1.0000
  C   C2867     1.0  0.49858  0.95512  0.55368  1.0000
  H   H2293     1.0  0.70338  0.73299  0.56966  1.0000
  C   C2868     1.0  0.49862  0.81778  0.66010  1.0000
  C   C2869     1.0  0.92395  0.98255  0.96298  1.0000
  H   H2294     1.0  0.93663  0.74326  0.73535  1.0000
  H   H2295     1.0  0.51310  0.73327  0.97327  1.0000
  P   P94       1.0  0.56907  0.82167  0.48580  1.0000
  H   H2296     1.0  0.96933  0.97617  0.91579  1.0000
  H   H2297     1.0  0.50680  0.74478  0.78676  1.0000
  C   C2870     1.0  0.66918  0.84786  0.97224  1.0000
  C   C2871     1.0  0.98493  0.97263  0.93022  1.0000
  P   P95       1.0  0.98884  0.74100  0.74134  1.0000
  H   H2298     1.0  0.52147  0.81603  0.51525  1.0000
  C   C2872     1.0  0.93239  0.95014  0.97541  1.0000
  C   C2873     1.0  0.94292  0.73616  0.71582  1.0000
  S   S383      1.0  0.52764  0.78219  0.48074  1.0000
  C   C2874     1.0  0.57666  0.84693  0.50806  1.0000
  S   S384      1.0  0.59207  0.73535  0.82079  1.0000
  C   C2875     1.0  0.69812  0.96552  0.50366  1.0000
  C   C2876     1.0  0.96726  0.73328  0.71244  1.0000
  C   C2877     1.0  0.58690  0.83481  0.50145  1.0000
  C   C2878     1.0  0.61560  0.73458  0.58450  1.0000
  H   H2299     1.0  0.49533  0.83809  0.66384  1.0000
  H   H2300     1.0  0.98876  0.87361  0.77673  1.0000
  H   H2301     1.0  0.52095  0.73536  0.84529  1.0000
  H   H2302     1.0  0.55799  0.84885  0.50318  1.0000
  H   H2303     1.0  0.67013  0.93454  0.49049  1.0000
  C   C2879     1.0  0.97638  0.93720  0.97789  1.0000
  C   C2880     1.0  0.49722  0.82838  0.48662  1.0000
  P   P96       1.0  0.67030  0.96222  0.48083  1.0000
  H   H2304     1.0  0.96785  0.73511  0.81265  1.0000
