data_image0
_chemical_formula_structural       HC3HFeHSC2HSFeHSCS2HC7H3C6H4C2HC2H2C5H3CFeHCSHCHC3H2C2HC2HC3HC2HS2H3CHC2H2CSHSH4PCH4C11FeC2HC4H4CPH3CHCH2C2HCHCH3CHCPCHCH3C3HC2H3CH4C3H3C2HFeC3SFeSCFeSFe3SHFeS2FeSFeS4FeS2FeS2C6H5CHC7H4C6H3SC6H4C2HC3FeC6PC2HC2HCHC3H6CH2CH3CSCH2C4H4C3H3C4SC2SCH5FeCH3C2HC4HC7PC18H14CHCH2SC4HC2HCPCHC3H6SCHC2SC2H2SCHCH4CHCH2FeCHCH2CHC2HCH3C2HC2HSCSC2FeHCS2FeS2FeS2Fe2S3CSC8H2C4HC6H4SCHC4H8CH3C2H2C2HC3HC4PCH2C4PC2HC3PCHCHC4H2C3HCHCHCH2CH5CH3CH2CHFeCPSC3HCHC8H6CH2CFeCHFeH2CH4C5HC3HCHC4H3CH3CH3CHCHSC2HCFeC2SHC2HCHC4H2CH2C2HSHFeS2FeSCFe2S5FeSFeS2FeS2C6HC5PH2CFeC6H5SH2C6H4C7HCHCHCHCHCHC3HC3PCHC2H2C2HCH2C6H2CH3CPHCH2CH2SCHCHCPH2SHSH3CH4C2HCH2CH2CHCSHC3HC5H2CFeHC2H3CHC2HCH3C4HCHC2H2S2C6HC2H2C3H2CHC4HCH2CHCHC2HCHCH4C2H2CHCHC2HCFeCHC2H4C3H3CH2CHC3HCH2C4HFeS2FeS2CFeSCFeS2Fe2S3C2FeS2FeSFeCSPSCHCHC6H6CHCHC7H4C6H4C6H6CHC3H3CH2CHC6PC18H20PHC4PC5HC13H3CH3C2HCHCH8C8HC7HC2HCHC2HCH2C3H2C5SCSH3C3H3C2H5PH3CHC3H2CHCH2C2PH2CHCH3CH2C4HC4HCH2C2HCHC3H2CSCH2C2HC2H2CH3CHCH2SHSCSHCFeS2CHPC3HC4H2C7H4C6H4CH2CH4C3H2SC2H3C7H3CH2C8PH2SCPCH2CHC3HCPHCHCH4CHCH5FeH3C7HC2HFeHC3H3C4HCHC6H3CH2C3HCH5C7HC3HSCHSC3H3C2H2SFeSCS2HFeS2FeSCSHC6H4FeH2C7H4SH3C3HC3FeC10HC3PH3CHC3H6PH2CH2C2H2C5HC6H2C4HCH2C3H2CHSHS2HCHCH2PH2C3HSC6HC2H2C2H3CHCHC6HPH2C2H2C4HCHC2H2CSHC5SCH3C2H4C2H2PH2C4FeC2FeH3CHC2H3CHCH2CHFeS2FeSFe2S3CH2CFeS2H2FeSC2SFeSHCSHC7H4C6HCH2C3HCHC6H4CHC3H5C4H3CHCH3PH2C4H2CHFeSH2CHCH2C7HC6PC3H2C2HSC5H9CH2CH3CSHCHC2HCHC4HCHCH8CHC2HCH2C3PC12HC2H4CH2CH10C2H2CH3C6PC4HC13H7C2H2C3HCH3C4HC4H4CH2CPFeCSH2FeSFeS2HFeSHFeS2FeSFeS5C8H3CHC2H2C6H4C4PCH4C3H2C2SH3C4H2C3HCH2C3HCH2CH5C5H2C4H3C4H2C3HCHCH4CHC11PH2PC3HCH2CH4SCH2CH3C4H2CH2C2HCHC3H3CH2CH2CHC5H2C3H5CHCHSC2H3CH2SCSCHFeC4H2FeSHSHFeS2FeS2FeSFeHS2CFeSH3SC2HCHC3H3SCH3C7H4C5H5C2SC9H3C3HC6HPCSHCH2C4H2C2HC2H2C4SCHC2H2CHCH2C2PC4PC18H2PH4CH12CHC3HCSCH5C7HCSH2CH3C7HC2H3C4H4FeCHC2PCHFeCHCH2C2HCHCH3FeC2SCH2CH4SCH2SFeS2FeSFeSFeS2CSFeS2CHFeCFeS3CH2C9H5CHC6H4C2H2CH3C7H4CHCH2PH2C3SCHCHCHC2HCH2SHFeC3PC9HC9HCH2CH4CH6CHC4H3C2FeH2CH2CH4CHC2HCHC2H2CH2C2SC2HCHCH3C4HCHPC3HCH2CHC2SCHC2HCH5CHSCSHFeCHC3H2CH2CH3FeS2FeS3HCFeCS2C6H4C6H4CHC4H5C2H2CH2C2HC2H3C3HCHCPCHCPHC3HC2H5C2HFeC2HSC2HC2H2C2HC3HC2PHC8HCHC6H2C2FeCH2CH2C6HCH3C3HCH4C3H3C2H8SHC3H3CHCH3C3
_chemical_formula_sum              "H1152 C1440 Fe96 S192 P48"
_cell_length_a       31.8129
_cell_length_b       58.1284
_cell_length_c       56.5084
_cell_angle_alpha    89.6503
_cell_angle_beta     89.8413
_cell_angle_gamma    89.9677

_space_group_name_H-M_alt    "P 1"
_space_group_IT_number       1

loop_
  _space_group_symop_operation_xyz
  'x, y, z'

loop_
  _atom_site_type_symbol
  _atom_site_label
  _atom_site_symmetry_multiplicity
  _atom_site_fract_x
  _atom_site_fract_y
  _atom_site_fract_z
  _atom_site_occupancy
  H   H1        1.0  0.34399  0.29940  0.11267  1.0000
  C   C1        1.0  0.37749  0.02765  0.00044  1.0000
  C   C2        1.0  0.35191  0.30345  0.23333  1.0000
  C   C3        1.0  0.15031  0.32560  0.06168  1.0000
  H   H2        1.0  0.33020  0.31111  0.38208  1.0000
  Fe  Fe1       1.0  0.46921  0.29054  0.08524  1.0000
  H   H3        1.0  0.36379  0.26616  0.38460  1.0000
  S   S1        1.0  0.44626  0.26808  0.05464  1.0000
  C   C4        1.0  0.21646  0.32009  0.08244  1.0000
  C   C5        1.0  0.47820  0.05658  0.33677  1.0000
  H   H4        1.0  0.21156  0.30228  0.12882  1.0000
  S   S2        1.0  0.43363  0.30253  0.11739  1.0000
  Fe  Fe2       1.0  0.32712  0.15226  0.01461  1.0000
  H   H5        1.0  0.45946  0.08810  0.31954  1.0000
  S   S3        1.0  0.33046  0.17856  0.04464  1.0000
  C   C6        1.0  0.08003  0.25125  0.48648  1.0000
  S   S4        1.0  0.28658  0.06605  0.02102  1.0000
  S   S5        1.0  0.36553  0.11971  0.01578  1.0000
  H   H6        1.0  0.42958  0.16642  0.10513  1.0000
  C   C7        1.0  0.36265  0.02006  0.07249  1.0000
  C   C8        1.0  0.32329  0.01307  0.06419  1.0000
  C   C9        1.0  0.30005  0.02755  0.04887  1.0000
  C   C10       1.0  0.31583  0.04913  0.04161  1.0000
  C   C11       1.0  0.35504  0.05615  0.05007  1.0000
  C   C12       1.0  0.37818  0.04172  0.06540  1.0000
  C   C13       1.0  0.34683  0.32105  0.39518  1.0000
  H   H7        1.0  0.26971  0.02197  0.04250  1.0000
  H   H8        1.0  0.36773  0.07262  0.04464  1.0000
  H   H9        1.0  0.40830  0.04747  0.07189  1.0000
  C   C14       1.0  0.41342  0.24335  0.05264  1.0000
  C   C15       1.0  0.40697  0.23355  0.03025  1.0000
  C   C16       1.0  0.38252  0.21351  0.02750  1.0000
  C   C17       1.0  0.36302  0.20337  0.04716  1.0000
  C   C18       1.0  0.36854  0.21351  0.06953  1.0000
  C   C19       1.0  0.39395  0.23324  0.07233  1.0000
  H   H10       1.0  0.42083  0.24168  0.01489  1.0000
  H   H11       1.0  0.37829  0.20612  0.01015  1.0000
  H   H12       1.0  0.35341  0.20590  0.08485  1.0000
  H   H13       1.0  0.39835  0.24062  0.08967  1.0000
  C   C20       1.0  0.08368  0.29882  0.47796  1.0000
  C   C21       1.0  0.27678  0.30171  0.11757  1.0000
  H   H14       1.0  0.48823  0.07184  0.48608  1.0000
  C   C22       1.0  0.39756  0.26901  0.41743  1.0000
  C   C23       1.0  0.27286  0.25228  0.03881  1.0000
  H   H15       1.0  0.35971  0.29497  0.15494  1.0000
  H   H16       1.0  0.47750  0.02670  0.48932  1.0000
  C   C24       1.0  0.35621  0.00671  0.41779  1.0000
  C   C25       1.0  0.36516  0.29262  0.47214  1.0000
  C   C26       1.0  0.43630  0.26610  0.42890  1.0000
  C   C27       1.0  0.29476  0.29623  0.16590  1.0000
  C   C28       1.0  0.25309  0.29834  0.15841  1.0000
  H   H17       1.0  0.32540  0.27024  0.24162  1.0000
  H   H18       1.0  0.28021  0.25031  0.02020  1.0000
  H   H19       1.0  0.12842  0.32056  0.04802  1.0000
  C   C29       1.0  0.48709  0.31237  0.44182  1.0000
  Fe  Fe3       1.0  0.48692  0.30960  0.35883  1.0000
  H   H20       1.0  0.42480  0.25106  0.36223  1.0000
  C   C30       1.0  0.44755  0.17084  0.08943  1.0000
  S   S6        1.0  0.48684  0.32652  0.07364  1.0000
  H   H21       1.0  0.23498  0.21387  0.00336  1.0000
  C   C31       1.0  0.46956  0.07564  0.44953  1.0000
  H   H22       1.0  0.49601  0.23302  0.99862  1.0000
  C   C32       1.0  0.36918  0.26837  0.21258  1.0000
  C   C33       1.0  0.39703  0.28062  0.19812  1.0000
  C   C34       1.0  0.38091  0.25523  0.48909  1.0000
  H   H23       1.0  0.45921  0.08226  0.41253  1.0000
  H   H24       1.0  0.29147  0.32643  0.41700  1.0000
  C   C35       1.0  0.46654  0.25197  0.39213  1.0000
  C   C36       1.0  0.49607  0.01825  0.05074  1.0000
  H   H25       1.0  0.48402  0.13345  0.42335  1.0000
  C   C37       1.0  0.10482  0.26007  0.46790  1.0000
  C   C38       1.0  0.48166  0.08308  0.42688  1.0000
  H   H26       1.0  0.08478  0.31714  0.47448  1.0000
  C   C39       1.0  0.42779  0.25472  0.38093  1.0000
  C   C40       1.0  0.49180  0.09468  0.35231  1.0000
  C   C41       1.0  0.39276  0.27389  0.47463  1.0000
  H   H27       1.0  0.45368  0.09064  0.00871  1.0000
  C   C42       1.0  0.08913  0.18478  0.45874  1.0000
  C   C43       1.0  0.45420  0.17164  0.04671  1.0000
  H   H28       1.0  0.25459  0.21998  0.08809  1.0000
  S   S7        1.0  0.41653  0.31393  0.36686  1.0000
  S   S8        1.0  0.26639  0.13321  0.00787  1.0000
  H   H29       1.0  0.40571  0.31306  0.04881  1.0000
  H   H30       1.0  0.03352  0.15711  0.00085  1.0000
  H   H31       1.0  0.46084  0.32265  0.29736  1.0000
  C   C44       1.0  0.39333  0.26314  0.39359  1.0000
  H   H32       1.0  0.49757  0.18704  0.10872  1.0000
  C   C45       1.0  0.37764  0.32200  0.05459  1.0000
  C   C46       1.0  0.07242  0.20688  0.46220  1.0000
  H   H33       1.0  0.03762  0.23475  0.44575  1.0000
  H   H34       1.0  0.19493  0.29923  0.05321  1.0000
  C   C47       1.0  0.25716  0.25709  0.08727  1.0000
  S   S9        1.0  0.20767  0.32194  0.46703  1.0000
  H   H35       1.0  0.37349  0.30720  0.46108  1.0000
  S   S10       1.0  0.39474  0.00224  0.09081  1.0000
  H   H36       1.0  0.48193  0.03086  0.42279  1.0000
  H   H37       1.0  0.25168  0.25850  0.10610  1.0000
  H   H38       1.0  0.42642  0.01805  0.02429  1.0000
  H   H39       1.0  0.37079  0.27627  0.42655  1.0000
  P   P1        1.0  0.44296  0.27434  0.45947  1.0000
  C   C48       1.0  0.49680  0.14324  0.40867  1.0000
  H   H40       1.0  0.06305  0.17707  0.40093  1.0000
  H   H41       1.0  0.10479  0.17569  0.47296  1.0000
  H   H42       1.0  0.27657  0.28913  0.03765  1.0000
  H   H43       1.0  0.36559  0.24998  0.21027  1.0000
  C   C49       1.0  0.46419  0.30314  0.46088  1.0000
  C   C50       1.0  0.24404  0.30090  0.13431  1.0000
  C   C51       1.0  0.26664  0.23279  0.05298  1.0000
  C   C52       1.0  0.31837  0.29918  0.12524  1.0000
  C   C53       1.0  0.39026  0.32501  0.39228  1.0000
  C   C54       1.0  0.47811  0.23083  0.46662  1.0000
  C   C55       1.0  0.47390  0.09068  0.02405  1.0000
  C   C56       1.0  0.27106  0.27421  0.04881  1.0000
  C   C57       1.0  0.47923  0.25418  0.47295  1.0000
  C   C58       1.0  0.25863  0.23520  0.07714  1.0000
  C   C59       1.0  0.32474  0.32975  0.41494  1.0000
  Fe  Fe4       1.0  0.30652  0.10108  0.00600  1.0000
  C   C60       1.0  0.47086  0.25773  0.41598  1.0000
  C   C61       1.0  0.32735  0.29657  0.14930  1.0000
  H   H44       1.0  0.30184  0.29426  0.18453  1.0000
  C   C62       1.0  0.34657  0.27979  0.23018  1.0000
  C   C63       1.0  0.41867  0.02839  0.00898  1.0000
  C   C64       1.0  0.10648  0.28378  0.46365  1.0000
  C   C65       1.0  0.26380  0.27678  0.07320  1.0000
  H   H45       1.0  0.35419  0.01719  0.00940  1.0000
  H   H46       1.0  0.22776  0.29807  0.17125  1.0000
  H   H47       1.0  0.45325  0.12436  0.03425  1.0000
  H   H48       1.0  0.45448  0.22457  0.45449  1.0000
  C   C66       1.0  0.40252  0.30430  0.20121  1.0000
  P   P2        1.0  0.26579  0.30505  0.08638  1.0000
  H   H49       1.0  0.41497  0.27168  0.18467  1.0000
  H   H50       1.0  0.35961  0.01074  0.45553  1.0000
  H   H51       1.0  0.30559  0.30745  0.48203  1.0000
  C   C67       1.0  0.48910  0.16695  0.40763  1.0000
  H   H52       1.0  0.34812  0.29121  0.06714  1.0000
  C   C68       1.0  0.08584  0.17412  0.43669  1.0000
  H   H53       1.0  0.46586  0.04564  0.32295  1.0000
  H   H54       1.0  0.12276  0.24865  0.45666  1.0000
  C   C69       1.0  0.47476  0.08051  0.33482  1.0000
  C   C70       1.0  0.30817  0.32110  0.07268  1.0000
  H   H55       1.0  0.12544  0.29063  0.44926  1.0000
  C   C71       1.0  0.47368  0.11006  0.03853  1.0000
  H   H56       1.0  0.09901  0.15712  0.43413  1.0000
  C   C72       1.0  0.49415  0.01383  0.42640  1.0000
  H   H57       1.0  0.40216  0.15640  0.06559  1.0000
  H   H58       1.0  0.42510  0.31324  0.19011  1.0000
  H   H59       1.0  0.26890  0.21576  0.04536  1.0000
  C   C73       1.0  0.43206  0.16522  0.06712  1.0000
  H   H60       1.0  0.35206  0.02494  0.41442  1.0000
  C   C74       1.0  0.45816  0.31652  0.48124  1.0000
  P   P3        1.0  0.07529  0.22053  0.49082  1.0000
  C   C75       1.0  0.18809  0.31356  0.06471  1.0000
  H   H61       1.0  0.44069  0.16764  0.02971  1.0000
  C   C76       1.0  0.37984  0.31589  0.21882  1.0000
  H   H62       1.0  0.19650  0.25113  0.00284  1.0000
  H   H63       1.0  0.47048  0.17513  0.42127  1.0000
  H   H64       1.0  0.47157  0.02968  0.05697  1.0000
  C   C77       1.0  0.32653  0.29280  0.48398  1.0000
  C   C78       1.0  0.48576  0.18246  0.09141  1.0000
  C   C79       1.0  0.34463  0.30965  0.06492  1.0000
  H   H65       1.0  0.43809  0.06912  0.45257  1.0000
  C   C80       1.0  0.05154  0.21790  0.44339  1.0000
  C   C81       1.0  0.04835  0.20721  0.42136  1.0000
  H   H66       1.0  0.49352  0.24595  0.38217  1.0000
  H   H67       1.0  0.44725  0.32202  0.25449  1.0000
  H   H68       1.0  0.03245  0.21589  0.40691  1.0000
  C   C82       1.0  0.06555  0.18534  0.41800  1.0000
  H   H69       1.0  0.33471  0.31203  0.24731  1.0000
  H   H70       1.0  0.49455  0.26141  0.21905  1.0000
  H   H71       1.0  0.49147  0.30267  0.42578  1.0000
  H   H72       1.0  0.40146  0.24057  0.49136  1.0000
  C   C83       1.0  0.49276  0.18323  0.04849  1.0000
  C   C84       1.0  0.44829  0.04315  0.99844  1.0000
  C   C85       1.0  0.45620  0.01440  0.49731  1.0000
  H   H73       1.0  0.02090  0.32996  0.35677  1.0000
  H   H74       1.0  0.48927  0.11314  0.35025  1.0000
  H   H75       1.0  0.49819  0.12576  0.07000  1.0000
  C   C86       1.0  0.49775  0.07710  0.46840  1.0000
  C   C87       1.0  0.49828  0.04677  0.35633  1.0000
  H   H76       1.0  0.44042  0.30984  0.49615  1.0000
  Fe  Fe5       1.0  0.49598  0.30004  0.13652  1.0000
  C   C88       1.0  0.42928  0.33361  0.26557  1.0000
  C   C89       1.0  0.05976  0.29024  0.49679  1.0000
  C   C90       1.0  0.48179  0.21855  0.98976  1.0000
  S   S11       1.0  0.38116  0.03049  0.58658  1.0000
  Fe  Fe6       1.0  0.44013  0.03717  0.64753  1.0000
  S   S12       1.0  0.41019  0.06705  0.62785  1.0000
  C   C91       1.0  0.01332  0.16325  0.94212  1.0000
  Fe  Fe7       1.0  0.35533  0.04371  0.62111  1.0000
  S   S13       1.0  0.28672  0.05399  0.62868  1.0000
  Fe  Fe8       1.0  0.43829  0.05190  0.59468  1.0000
  Fe  Fe9       1.0  0.01479  0.15328  0.87102  1.0000
  Fe  Fe10      1.0  0.19191  0.32732  0.50551  1.0000
  S   S14       1.0  0.47220  0.02389  0.61440  1.0000
  H   H77       1.0  0.27295  0.15548  0.89561  1.0000
  Fe  Fe11      1.0  0.11032  0.15060  0.59920  1.0000
  S   S15       1.0  0.11006  0.17990  0.62521  1.0000
  S   S16       1.0  0.17385  0.13623  0.58685  1.0000
  Fe  Fe12      1.0  0.06582  0.19698  0.59929  1.0000
  S   S17       1.0  0.06353  0.23488  0.58760  1.0000
  Fe  Fe13      1.0  0.05289  0.16267  0.64119  1.0000
  S   S18       1.0  0.06839  0.16860  0.57245  1.0000
  S   S19       1.0  0.05559  0.13252  0.61624  1.0000
  S   S20       1.0  0.05608  0.13229  0.89654  1.0000
  S   S21       1.0  0.19712  0.29456  0.52831  1.0000
  Fe  Fe14      1.0  0.37393  0.12482  0.97657  1.0000
  S   S22       1.0  0.31694  0.10440  0.96654  1.0000
  S   S23       1.0  0.44096  0.11967  0.96344  1.0000
  Fe  Fe15      1.0  0.28089  0.13784  0.96910  1.0000
  S   S24       1.0  0.23686  0.15406  0.94130  1.0000
  S   S25       1.0  0.33965  0.15876  0.97607  1.0000
  C   C92       1.0  0.10523  0.13948  0.90982  1.0000
  C   C93       1.0  0.12199  0.12486  0.92741  1.0000
  C   C94       1.0  0.16168  0.12924  0.93765  1.0000
  C   C95       1.0  0.18563  0.14808  0.93004  1.0000
  C   C96       1.0  0.16885  0.16269  0.91249  1.0000
  C   C97       1.0  0.12867  0.15870  0.90274  1.0000
  H   H78       1.0  0.10419  0.10996  0.93311  1.0000
  H   H79       1.0  0.17395  0.11785  0.95118  1.0000
  H   H80       1.0  0.18729  0.17710  0.90621  1.0000
  H   H81       1.0  0.11635  0.17011  0.88926  1.0000
  H   H82       1.0  0.42971  0.03079  0.93319  1.0000
  C   C98       1.0  0.13226  0.21998  0.91039  1.0000
  H   H83       1.0  0.04429  0.24345  0.86937  1.0000
  C   C99       1.0  0.06925  0.18420  0.74027  1.0000
  C   C100      1.0  0.10079  0.25088  0.57057  1.0000
  C   C101      1.0  0.14197  0.24318  0.56701  1.0000
  C   C102      1.0  0.17095  0.25696  0.55433  1.0000
  C   C103      1.0  0.15895  0.27822  0.54436  1.0000
  C   C104      1.0  0.11767  0.28584  0.54777  1.0000
  C   C105      1.0  0.08891  0.27233  0.56094  1.0000
  H   H84       1.0  0.15174  0.22683  0.57439  1.0000
  H   H85       1.0  0.20298  0.25110  0.55224  1.0000
  H   H86       1.0  0.10812  0.30229  0.54053  1.0000
  H   H87       1.0  0.05725  0.27855  0.56370  1.0000
  C   C106      1.0  0.04365  0.17353  0.75753  1.0000
  C   C107      1.0  0.43262  0.08544  0.90097  1.0000
  C   C108      1.0  0.42168  0.09681  0.92201  1.0000
  C   C109      1.0  0.45312  0.10478  0.93712  1.0000
  C   C110      1.0  0.06134  0.23430  0.90505  1.0000
  C   C111      1.0  0.11813  0.18851  0.51882  1.0000
  H   H88       1.0  0.40821  0.07953  0.88922  1.0000
  H   H89       1.0  0.38896  0.09980  0.92630  1.0000
  H   H90       1.0  0.36638  0.11141  0.79421  1.0000
  S   S26       1.0  0.03346  0.18729  0.85539  1.0000
  C   C112      1.0  0.25614  0.07718  0.61696  1.0000
  C   C113      1.0  0.21455  0.08023  0.62505  1.0000
  C   C114      1.0  0.18920  0.09840  0.61644  1.0000
  C   C115      1.0  0.20487  0.11357  0.59923  1.0000
  C   C116      1.0  0.24641  0.11051  0.59112  1.0000
  C   C117      1.0  0.27199  0.09256  0.60002  1.0000
  H   H91       1.0  0.20180  0.06839  0.63803  1.0000
  H   H92       1.0  0.15735  0.10043  0.62283  1.0000
  H   H93       1.0  0.25890  0.12208  0.57780  1.0000
  H   H94       1.0  0.30381  0.09050  0.59358  1.0000
  C   C118      1.0  0.05331  0.22319  0.66282  1.0000
  C   C119      1.0  0.43554  0.20474  0.95899  1.0000
  H   H95       1.0  0.04628  0.30476  0.95189  1.0000
  C   C120      1.0  0.39254  0.14342  0.89089  1.0000
  C   C121      1.0  0.34215  0.25547  0.50094  1.0000
  C   C122      1.0  0.03298  0.16485  0.98336  1.0000
  Fe  Fe16      1.0  0.41340  0.00292  0.60783  1.0000
  C   C123      1.0  0.24665  0.07941  0.92878  1.0000
  C   C124      1.0  0.27392  0.06058  0.92969  1.0000
  C   C125      1.0  0.30400  0.05756  0.91188  1.0000
  C   C126      1.0  0.30633  0.07317  0.89296  1.0000
  C   C127      1.0  0.27817  0.09176  0.89160  1.0000
  C   C128      1.0  0.24927  0.09515  0.91005  1.0000
  P   P4        1.0  0.28377  0.11316  0.86854  1.0000
  C   C129      1.0  0.30247  0.10031  0.84150  1.0000
  C   C130      1.0  0.23408  0.12633  0.86090  1.0000
  H   H96       1.0  0.13551  0.16146  0.78078  1.0000
  C   C131      1.0  0.15735  0.14636  0.84732  1.0000
  C   C132      1.0  0.03339  0.18427  0.93791  1.0000
  H   H97       1.0  0.08862  0.27108  0.94006  1.0000
  C   C133      1.0  0.23319  0.14845  0.85078  1.0000
  H   H98       1.0  0.10027  0.12799  0.76283  1.0000
  C   C134      1.0  0.33051  0.08033  0.79919  1.0000
  C   C135      1.0  0.34437  0.10226  0.80550  1.0000
  C   C136      1.0  0.33010  0.11234  0.82647  1.0000
  H   H99       1.0  0.22432  0.08225  0.94300  1.0000
  H   H100      1.0  0.27233  0.04872  0.94454  1.0000
  H   H101      1.0  0.32595  0.04334  0.91291  1.0000
  H   H102      1.0  0.33054  0.07095  0.87966  1.0000
  H   H103      1.0  0.22924  0.11020  0.91020  1.0000
  H   H104      1.0  0.12959  0.10980  0.72724  1.0000
  C   C137      1.0  0.01436  0.25087  0.63943  1.0000
  H   H105      1.0  0.45837  0.06818  0.97042  1.0000
  H   H106      1.0  0.26547  0.06931  0.84573  1.0000
  C   C138      1.0  0.30630  0.15228  0.89366  1.0000
  H   H107      1.0  0.34073  0.12946  0.83092  1.0000
  H   H108      1.0  0.19425  0.17563  0.83660  1.0000
  H   H109      1.0  0.12756  0.15420  0.84254  1.0000
  C   C139      1.0  0.05365  0.19571  0.95647  1.0000
  S   S27       1.0  0.04752  0.18260  0.78759  1.0000
  C   C140      1.0  0.37789  0.16206  0.90405  1.0000
  H   H110      1.0  0.32308  0.18043  0.91628  1.0000
  H   H111      1.0  0.33282  0.04206  0.97599  1.0000
  C   C141      1.0  0.13109  0.21996  0.96757  1.0000
  C   C142      1.0  0.43626  0.05652  0.97879  1.0000
  C   C143      1.0  0.32073  0.13349  0.88048  1.0000
  C   C144      1.0  0.01465  0.14940  0.72645  1.0000
  H   H112      1.0  0.23080  0.15934  0.72680  1.0000
  H   H113      1.0  0.36178  0.07650  0.71077  1.0000
  H   H114      1.0  0.38537  0.06718  0.95621  1.0000
  H   H115      1.0  0.42590  0.13957  0.89034  1.0000
  C   C145      1.0  0.19624  0.11411  0.86358  1.0000
  C   C146      1.0  0.28783  0.07855  0.83474  1.0000
  C   C147      1.0  0.39487  0.05597  0.97058  1.0000
  H   H116      1.0  0.20717  0.18065  0.98123  1.0000
  H   H117      1.0  0.29098  0.05164  0.80870  1.0000
  H   H118      1.0  0.03048  0.23855  0.91195  1.0000
  C   C148      1.0  0.47708  0.01544  0.91135  1.0000
  C   C149      1.0  0.49547  0.10087  0.93125  1.0000
  C   C150      1.0  0.06265  0.26874  0.95228  1.0000
  C   C151      1.0  0.19035  0.19690  0.98097  1.0000
  S   S28       1.0  0.48682  0.06915  0.86731  1.0000
  C   C152      1.0  0.15313  0.19900  0.96805  1.0000
  C   C153      1.0  0.15296  0.17993  0.53111  1.0000
  S   S29       1.0  0.03565  0.15109  0.67913  1.0000
  C   C154      1.0  0.19492  0.15846  0.84413  1.0000
  H   H119      1.0  0.20097  0.17703  0.76285  1.0000
  H   H120      1.0  0.08920  0.17870  0.51898  1.0000
  H   H121      1.0  0.39989  0.17273  0.91359  1.0000
  H   H122      1.0  0.08757  0.18586  0.70333  1.0000
  H   H123      1.0  0.09069  0.19765  0.74553  1.0000
  Fe  Fe17      1.0  0.01329  0.15310  0.59200  1.0000
  C   C155      1.0  0.14702  0.23879  0.98019  1.0000
  H   H124      1.0  0.12872  0.11506  0.85992  1.0000
  H   H125      1.0  0.19600  0.09683  0.87081  1.0000
  H   H126      1.0  0.01402  0.26404  0.62576  1.0000
  C   C156      1.0  0.49411  0.05263  0.73107  1.0000
  C   C157      1.0  0.02823  0.21413  0.53200  1.0000
  H   H127      1.0  0.37593  0.11409  0.87012  1.0000
  C   C158      1.0  0.30201  0.06855  0.81372  1.0000
  C   C159      1.0  0.49786  0.10802  0.61197  1.0000
  C   C160      1.0  0.05301  0.18592  0.97928  1.0000
  C   C161      1.0  0.15804  0.12422  0.85706  1.0000
  H   H128      1.0  0.14166  0.18422  0.95839  1.0000
  C   C162      1.0  0.06906  0.23711  0.88084  1.0000
  C   C163      1.0  0.19314  0.18271  0.66175  1.0000
  C   C164      1.0  0.21735  0.17913  0.64144  1.0000
  C   C165      1.0  0.23739  0.15804  0.63807  1.0000
  C   C166      1.0  0.23384  0.14063  0.65512  1.0000
  C   C167      1.0  0.21007  0.14413  0.67579  1.0000
  C   C168      1.0  0.18871  0.16515  0.67860  1.0000
  P   P5        1.0  0.20324  0.12104  0.69715  1.0000
  C   C169      1.0  0.16461  0.10164  0.68514  1.0000
  C   C170      1.0  0.25325  0.10664  0.70195  1.0000
  C   C171      1.0  0.26977  0.09194  0.68457  1.0000
  C   C172      1.0  0.30866  0.08119  0.68779  1.0000
  C   C173      1.0  0.33150  0.08483  0.70847  1.0000
  C   C174      1.0  0.31521  0.09912  0.72607  1.0000
  C   C175      1.0  0.27625  0.10993  0.72289  1.0000
  C   C176      1.0  0.16892  0.07770  0.68771  1.0000
  C   C177      1.0  0.13814  0.06295  0.67879  1.0000
  C   C178      1.0  0.10237  0.07200  0.66785  1.0000
  C   C179      1.0  0.09728  0.09580  0.66591  1.0000
  C   C180      1.0  0.12837  0.11059  0.67434  1.0000
  C   C181      1.0  0.18299  0.13297  0.72448  1.0000
  C   C182      1.0  0.14613  0.12418  0.73492  1.0000
  C   C183      1.0  0.12939  0.13437  0.75524  1.0000
  C   C184      1.0  0.14928  0.15331  0.76536  1.0000
  C   C185      1.0  0.18602  0.16211  0.75519  1.0000
  C   C186      1.0  0.20281  0.15203  0.73481  1.0000
  H   H129      1.0  0.17646  0.19881  0.66396  1.0000
  H   H130      1.0  0.21941  0.19239  0.62792  1.0000
  H   H131      1.0  0.25467  0.15488  0.62184  1.0000
  H   H132      1.0  0.24880  0.12433  0.65160  1.0000
  H   H133      1.0  0.16780  0.16795  0.69344  1.0000
  H   H134      1.0  0.25258  0.08855  0.66849  1.0000
  H   H135      1.0  0.32110  0.06999  0.67414  1.0000
  H   H136      1.0  0.33290  0.10186  0.74215  1.0000
  H   H137      1.0  0.26441  0.12072  0.73687  1.0000
  H   H138      1.0  0.19589  0.07032  0.69657  1.0000
  H   H139      1.0  0.14209  0.04450  0.68035  1.0000
  H   H140      1.0  0.07848  0.06061  0.66096  1.0000
  H   H141      1.0  0.06914  0.10290  0.65795  1.0000
  H   H142      1.0  0.12370  0.12900  0.67267  1.0000
  C   C187      1.0  0.36408  0.12903  0.87934  1.0000
  H   H143      1.0  0.34181  0.07245  0.78303  1.0000
  C   C188      1.0  0.47496  0.08203  0.89479  1.0000
  H   H144      1.0  0.28502  0.27459  0.50769  1.0000
  H   H145      1.0  0.26206  0.15797  0.84803  1.0000
  S   S30       1.0  0.46277  0.07251  0.56305  1.0000
  C   C189      1.0  0.10810  0.23111  0.87133  1.0000
  C   C190      1.0  0.45507  0.22293  0.97064  1.0000
  C   C191      1.0  0.00497  0.28521  0.97449  1.0000
  C   C192      1.0  0.36539  0.04168  0.98153  1.0000
  H   H146      1.0  0.03382  0.19109  0.92005  1.0000
  C   C193      1.0  0.05248  0.24672  0.96097  1.0000
  C   C194      1.0  0.45041  0.01617  0.93096  1.0000
  H   H147      1.0  0.15713  0.21327  0.92146  1.0000
  C   C195      1.0  0.03994  0.16019  0.70916  1.0000
  P   P6        1.0  0.08236  0.22206  0.95125  1.0000
  C   C196      1.0  0.06751  0.17758  0.71627  1.0000
  H   H148      1.0  0.08280  0.21508  0.66754  1.0000
  C   C197      1.0  0.15857  0.22194  0.50687  1.0000
  C   C198      1.0  0.09302  0.22586  0.92005  1.0000
  C   C199      1.0  0.13968  0.22253  0.88610  1.0000
  H   H149      1.0  0.05739  0.21664  0.54145  1.0000
  H   H150      1.0  0.48067  0.14190  0.60000  1.0000
  H   H151      1.0  0.21727  0.18572  0.54106  1.0000
  H   H152      1.0  0.11356  0.23283  0.85247  1.0000
  H   H153      1.0  0.46922  0.10022  0.60550  1.0000
  H   H154      1.0  0.15071  0.16383  0.54088  1.0000
  S   S31       1.0  0.46478  0.04537  0.68537  1.0000
  C   C200      1.0  0.03889  0.28788  0.95899  1.0000
  H   H155      1.0  0.16979  0.21762  0.87871  1.0000
  C   C201      1.0  0.05266  0.24116  0.64633  1.0000
  C   C202      1.0  0.33476  0.16648  0.90544  1.0000
  S   S32       1.0  0.00828  0.18237  0.61763  1.0000
  C   C203      1.0  0.01635  0.15603  0.75044  1.0000
  C   C204      1.0  0.45150  0.01370  0.52192  1.0000
  H   H156      1.0  0.04297  0.30200  0.50822  1.0000
  H   H157      1.0  0.00925  0.22745  0.98324  1.0000
  S   S33       1.0  0.38352  0.01424  0.64226  1.0000
  C   C205      1.0  0.19059  0.19227  0.53120  1.0000
  H   H158      1.0  0.08166  0.24700  0.63814  1.0000
  C   C206      1.0  0.02756  0.21468  0.50719  1.0000
  H   H159      1.0  0.41444  0.20814  0.94437  1.0000
  H   H160      1.0  0.46683  0.06360  0.73285  1.0000
  H   H161      1.0  0.01642  0.20078  0.68483  1.0000
  H   H162      1.0  0.33313  0.24114  0.51220  1.0000
  C   C207      1.0  0.05802  0.26656  0.50112  1.0000
  H   H163      1.0  0.03969  0.26035  0.51601  1.0000
  C   C208      1.0  0.01836  0.24419  0.97659  1.0000
  H   H164      1.0  0.46881  0.02556  0.53303  1.0000
  H   H165      1.0  0.22246  0.22293  0.51928  1.0000
  Fe  Fe18      1.0  0.00851  0.17365  0.82078  1.0000
  C   C209      1.0  0.01572  0.21514  0.67264  1.0000
  H   H166      1.0  0.42801  0.16798  0.95729  1.0000
  C   C210      1.0  0.01335  0.15345  0.96473  1.0000
  H   H167      1.0  0.13074  0.25512  0.98023  1.0000
  H   H168      1.0  0.44906  0.24050  0.96511  1.0000
  C   C211      1.0  0.44298  0.18213  0.96635  1.0000
  H   H169      1.0  0.47440  0.16000  0.99108  1.0000
  C   C212      1.0  0.19349  0.21315  0.51893  1.0000
  C   C213      1.0  0.12055  0.20967  0.50671  1.0000
  H   H170      1.0  0.47690  0.02935  0.89846  1.0000
  C   C214      1.0  0.46938  0.17768  0.98558  1.0000
  H   H171      1.0  0.16137  0.23850  0.49816  1.0000
  H   H172      1.0  0.99881  0.13681  0.96765  1.0000
  H   H173      1.0  0.99890  0.15415  0.92759  1.0000
  C   C215      1.0  0.20602  0.21567  0.99345  1.0000
  C   C216      1.0  0.18437  0.23661  0.99308  1.0000
  H   H174      1.0  0.06875  0.19436  0.99381  1.0000
  C   C217      1.0  0.48884  0.19588  0.99758  1.0000
  C   C218      1.0  0.31499  0.27426  0.49842  1.0000
  H   H175      1.0  0.11152  0.35366  0.07390  1.0000
  S   S34       1.0  0.20175  0.37796  0.46021  1.0000
  C   C219      1.0  0.46806  0.36514  0.21772  1.0000
  S   S35       1.0  0.22497  0.62048  0.00754  1.0000
  C   C220      1.0  0.05033  0.62570  0.05184  1.0000
  C   C221      1.0  0.27550  0.38970  0.19857  1.0000
  Fe  Fe19      1.0  0.15708  0.34817  0.46001  1.0000
  H   H176      1.0  0.01070  0.49654  0.18262  1.0000
  C   C222      1.0  0.30631  0.35231  0.20648  1.0000
  S   S36       1.0  0.20709  0.55285  0.01593  1.0000
  S   S37       1.0  0.12626  0.60508  0.01108  1.0000
  Fe  Fe20      1.0  0.10165  0.43460  0.16191  1.0000
  S   S38       1.0  0.11646  0.39845  0.15125  1.0000
  S   S39       1.0  0.08361  0.44781  0.19898  1.0000
  Fe  Fe21      1.0  0.12570  0.45343  0.11219  1.0000
  S   S40       1.0  0.14243  0.41811  0.09822  1.0000
  S   S41       1.0  0.11452  0.48745  0.09196  1.0000
  Fe  Fe22      1.0  0.08386  0.40617  0.11687  1.0000
  Fe  Fe23      1.0  0.17465  0.41219  0.13335  1.0000
  S   S42       1.0  0.22715  0.38627  0.14163  1.0000
  S   S43       1.0  0.06454  0.44140  0.12869  1.0000
  S   S44       1.0  0.16213  0.44840  0.14626  1.0000
  C   C223      1.0  0.00574  0.39869  0.46704  1.0000
  S   S45       1.0  0.41523  0.37084  0.10487  1.0000
  C   C224      1.0  0.12567  0.38702  0.28504  1.0000
  C   C225      1.0  0.02681  0.38711  0.48522  1.0000
  C   C226      1.0  0.27907  0.38226  0.13064  1.0000
  C   C227      1.0  0.29910  0.39852  0.11619  1.0000
  C   C228      1.0  0.34082  0.39479  0.10856  1.0000
  C   C229      1.0  0.36271  0.37464  0.11491  1.0000
  C   C230      1.0  0.34252  0.35827  0.12914  1.0000
  C   C231      1.0  0.30104  0.36213  0.13704  1.0000
  H   H177      1.0  0.28270  0.41410  0.11116  1.0000
  H   H178      1.0  0.35622  0.40759  0.09760  1.0000
  C   C232      1.0  0.33897  0.35740  0.05996  1.0000
  C   C233      1.0  0.06798  0.62904  0.10932  1.0000
  C   C234      1.0  0.19330  0.36884  0.33171  1.0000
  C   C235      1.0  0.13529  0.41779  0.25643  1.0000
  H   H179      1.0  0.25178  0.34127  0.37374  1.0000
  C   C236      1.0  0.18087  0.53478  0.03705  1.0000
  C   C237      1.0  0.20192  0.51541  0.04633  1.0000
  C   C238      1.0  0.18226  0.50062  0.06299  1.0000
  C   C239      1.0  0.14114  0.50502  0.07060  1.0000
  C   C240      1.0  0.11996  0.52425  0.06112  1.0000
  C   C241      1.0  0.13951  0.53893  0.04439  1.0000
  H   H180      1.0  0.23376  0.51183  0.04069  1.0000
  H   H181      1.0  0.19902  0.48590  0.07001  1.0000
  H   H182      1.0  0.08807  0.52772  0.06672  1.0000
  H   H183      1.0  0.12239  0.55327  0.03692  1.0000
  S   S46       1.0  0.32006  0.35409  0.45747  1.0000
  C   C242      1.0  0.16896  0.35097  0.09376  1.0000
  H   H184      1.0  0.02228  0.64118  0.02092  1.0000
  C   C243      1.0  0.07856  0.36357  0.42052  1.0000
  C   C244      1.0  0.08811  0.38637  0.42597  1.0000
  C   C245      1.0  0.06234  0.40424  0.41758  1.0000
  C   C246      1.0  0.18352  0.47183  0.43941  1.0000
  H   H185      1.0  0.41954  0.34824  0.32355  1.0000
  H   H186      1.0  0.11519  0.39026  0.43675  1.0000
  H   H187      1.0  0.06987  0.42177  0.42212  1.0000
  H   H188      1.0  0.39654  0.35576  0.17391  1.0000
  H   H189      1.0  0.03127  0.40633  0.20453  1.0000
  H   H190      1.0  0.10117  0.49955  0.00427  1.0000
  H   H191      1.0  0.19211  0.35403  0.39888  1.0000
  H   H192      1.0  0.12653  0.38231  0.24717  1.0000
  C   C247      1.0  0.11356  0.56406  0.11328  1.0000
  H   H193      1.0  0.12583  0.43376  0.47133  1.0000
  H   H194      1.0  0.31331  0.41894  0.20777  1.0000
  H   H195      1.0  0.21461  0.47355  0.43171  1.0000
  C   C248      1.0  0.14073  0.34427  0.07623  1.0000
  C   C249      1.0  0.20673  0.33904  0.09677  1.0000
  H   H196      1.0  0.25250  0.35068  0.33084  1.0000
  H   H197      1.0  0.00522  0.60395  0.00219  1.0000
  C   C250      1.0  0.06275  0.35751  0.34688  1.0000
  C   C251      1.0  0.17301  0.45191  0.45202  1.0000
  H   H198      1.0  0.35908  0.34280  0.13423  1.0000
  C   C252      1.0  0.04341  0.35880  0.40639  1.0000
  C   C253      1.0  0.37496  0.34587  0.05225  1.0000
  C   C254      1.0  0.49465  0.37796  0.17963  1.0000
  H   H199      1.0  0.16184  0.50473  0.42665  1.0000
  C   C255      1.0  0.14375  0.60918  0.08680  1.0000
  C   C256      1.0  0.12933  0.39448  0.26153  1.0000
  C   C257      1.0  0.03934  0.43453  0.47831  1.0000
  C   C258      1.0  0.07945  0.65176  0.10361  1.0000
  P   P7        1.0  0.08803  0.60538  0.09182  1.0000
  C   C259      1.0  0.31114  0.40034  0.20784  1.0000
  H   H200      1.0  0.23048  0.63428  0.11091  1.0000
  H   H201      1.0  0.03245  0.60790  0.13402  1.0000
  C   C260      1.0  0.02591  0.41733  0.21959  1.0000
  C   C261      1.0  0.38915  0.34680  0.42898  1.0000
  C   C262      1.0  0.05179  0.58405  0.05251  1.0000
  C   C263      1.0  0.13813  0.43364  0.27484  1.0000
  P   P8        1.0  0.38774  0.34614  0.22433  1.0000
  C   C264      1.0  0.01589  0.47126  0.42822  1.0000
  C   C265      1.0  0.06127  0.60510  0.06347  1.0000
  H   H202      1.0  0.14212  0.45175  0.27075  1.0000
  C   C266      1.0  0.07944  0.57781  0.10615  1.0000
  C   C267      1.0  0.45729  0.37098  0.16896  1.0000
  C   C268      1.0  0.04122  0.62513  0.12876  1.0000
  P   P9        1.0  0.11727  0.39337  0.33366  1.0000
  C   C269      1.0  0.47452  0.33882  0.48236  1.0000
  H   H203      1.0  0.00812  0.34797  0.06627  1.0000
  C   C270      1.0  0.02563  0.34473  0.34529  1.0000
  H   H204      1.0  0.45297  0.37339  0.15009  1.0000
  C   C271      1.0  0.19261  0.35818  0.38011  1.0000
  C   C272      1.0  0.02635  0.39947  0.40413  1.0000
  C   C273      1.0  0.03113  0.58364  0.03069  1.0000
  C   C274      1.0  0.10312  0.46720  0.45967  1.0000
  H   H205      1.0  0.03829  0.45865  0.42201  1.0000
  H   H206      1.0  0.02611  0.34038  0.18169  1.0000
  C   C275      1.0  0.01452  0.47731  0.45221  1.0000
  C   C276      1.0  0.02555  0.64364  0.14184  1.0000
  C   C277      1.0  0.06884  0.37705  0.33252  1.0000
  H   H207      1.0  0.13319  0.53085  0.12650  1.0000
  C   C278      1.0  0.13297  0.44952  0.46194  1.0000
  H   H208      1.0  0.44421  0.34172  0.40694  1.0000
  C   C279      1.0  0.10672  0.54181  0.12201  1.0000
  H   H209      1.0  0.28587  0.34940  0.14815  1.0000
  C   C280      1.0  0.01996  0.60422  0.01947  1.0000
  H   H210      1.0  0.06112  0.51558  0.12989  1.0000
  H   H211      1.0  0.02492  0.56737  0.02212  1.0000
  C   C281      1.0  0.34579  0.34279  0.43196  1.0000
  H   H212      1.0  0.14562  0.57002  0.11148  1.0000
  H   H213      1.0  0.13588  0.43896  0.31229  1.0000
  H   H214      1.0  0.14144  0.54882  0.49676  1.0000
  H   H215      1.0  0.13698  0.42367  0.23817  1.0000
  H   H216      1.0  0.40126  0.35552  0.04510  1.0000
  C   C282      1.0  0.13453  0.42626  0.29839  1.0000
  H   H217      1.0  0.16169  0.36551  0.10500  1.0000
  H   H218      1.0  0.47302  0.36308  0.23653  1.0000
  H   H219      1.0  0.03931  0.37203  0.15318  1.0000
  C   C283      1.0  0.11382  0.48711  0.44675  1.0000
  H   H220      1.0  0.40581  0.35685  0.44198  1.0000
  H   H221      1.0  0.24589  0.35767  0.18993  1.0000
  C   C284      1.0  0.03718  0.38342  0.31642  1.0000
  H   H222      1.0  0.10082  0.65522  0.08907  1.0000
  Fe  Fe24      1.0  0.16284  0.63799  0.01456  1.0000
  C   C285      1.0  0.12779  0.40288  0.30367  1.0000
  P   P10       1.0  0.05134  0.46454  0.47279  1.0000
  S   S47       1.0  0.04510  0.37716  0.10117  1.0000
  C   C286      1.0  0.38306  0.36279  0.29491  1.0000
  C   C287      1.0  0.15966  0.37085  0.37018  1.0000
  C   C288      1.0  0.11014  0.41823  0.35234  1.0000
  H   H223      1.0  0.13425  0.37656  0.38154  1.0000
  C   C289      1.0  0.22606  0.35093  0.36593  1.0000
  H   H224      1.0  0.25019  0.40002  0.19122  1.0000
  C   C290      1.0  0.04081  0.45200  0.24130  1.0000
  C   C291      1.0  0.14385  0.42670  0.36580  1.0000
  C   C292      1.0  0.13861  0.44614  0.37996  1.0000
  C   C293      1.0  0.10011  0.45767  0.38030  1.0000
  C   C294      1.0  0.06689  0.44974  0.36648  1.0000
  C   C295      1.0  0.07165  0.42999  0.35272  1.0000
  C   C296      1.0  0.48516  0.66090  0.49059  1.0000
  C   C297      1.0  0.04765  0.43817  0.22124  1.0000
  H   H225      1.0  0.17423  0.41833  0.36546  1.0000
  H   H226      1.0  0.16441  0.45220  0.39069  1.0000
  H   H227      1.0  0.09588  0.47265  0.39134  1.0000
  H   H228      1.0  0.05769  0.46805  0.24290  1.0000
  H   H229      1.0  0.04509  0.42396  0.34257  1.0000
  H   H230      1.0  0.27888  0.35462  0.07667  1.0000
  C   C298      1.0  0.43058  0.35784  0.20703  1.0000
  H   H231      1.0  0.36497  0.37391  0.30641  1.0000
  H   H232      1.0  0.19582  0.43817  0.45426  1.0000
  C   C299      1.0  0.30573  0.34513  0.07022  1.0000
  Fe  Fe25      1.0  0.45489  0.33810  0.10711  1.0000
  C   C300      1.0  0.34226  0.36287  0.21586  1.0000
  H   H233      1.0  0.05849  0.64223  0.05906  1.0000
  Fe  Fe26      1.0  0.25139  0.35204  0.47006  1.0000
  H   H234      1.0  0.04062  0.39848  0.30516  1.0000
  H   H235      1.0  0.18579  0.51869  0.47810  1.0000
  C   C301      1.0  0.15384  0.48938  0.43664  1.0000
  H   H236      1.0  0.08616  0.35206  0.35952  1.0000
  H   H237      1.0  0.02313  0.36868  0.48735  1.0000
  H   H238      1.0  0.37249  0.39550  0.22279  1.0000
  H   H239      1.0  0.19444  0.37296  0.31304  1.0000
  C   C302      1.0  0.21183  0.62389  0.09909  1.0000
  C   C303      1.0  0.23131  0.61181  0.08077  1.0000
  C   C304      1.0  0.20730  0.59806  0.06582  1.0000
  C   C305      1.0  0.16376  0.59677  0.06881  1.0000
  C   C306      1.0  0.41119  0.33804  0.40927  1.0000
  H   H240      1.0  0.15406  0.63123  0.11707  1.0000
  C   C307      1.0  0.00406  0.38212  0.08075  1.0000
  C   C308      1.0  0.16829  0.62231  0.10235  1.0000
  C   C309      1.0  0.03844  0.56901  0.10826  1.0000
  H   H241      1.0  0.09118  0.50086  0.44446  1.0000
  C   C310      1.0  0.15956  0.37618  0.34587  1.0000
  H   H242      1.0  0.22838  0.34470  0.11029  1.0000
  C   C311      1.0  0.42540  0.36092  0.18254  1.0000
  C   C312      1.0  0.01189  0.42230  0.46359  1.0000
  C   C313      1.0  0.02964  0.62522  0.03003  1.0000
  C   C314      1.0  0.34449  0.38700  0.21637  1.0000
  H   H243      1.0  0.03690  0.45850  0.36685  1.0000
  H   H244      1.0  0.35083  0.37360  0.26349  1.0000
  H   H245      1.0  0.01178  0.57910  0.10235  1.0000
  C   C315      1.0  0.37529  0.36262  0.27051  1.0000
  H   H246      1.0  0.11981  0.36898  0.28869  1.0000
  H   H247      1.0  0.03600  0.34116  0.40210  1.0000
  H   H248      1.0  0.09118  0.50720  0.48957  1.0000
  C   C316      1.0  0.05944  0.42285  0.49695  1.0000
  H   H249      1.0  0.26502  0.61284  0.07827  1.0000
  H   H250      1.0  0.22240  0.58821  0.05194  1.0000
  H   H251      1.0  0.14583  0.58576  0.05734  1.0000
  C   C317      1.0  0.27305  0.36573  0.19794  1.0000
  H   H252      1.0  0.00611  0.45664  0.27403  1.0000
  C   C318      1.0  0.39853  0.34805  0.25565  1.0000
  H   H253      1.0  0.33751  0.37599  0.05881  1.0000
  S   S48       1.0  0.11039  0.34079  0.43077  1.0000
  C   C319      1.0  0.06593  0.53314  0.12386  1.0000
  C   C320      1.0  0.41383  0.34838  0.30460  1.0000
  H   H254      1.0  0.06109  0.56788  0.06048  1.0000
  C   C321      1.0  0.03652  0.66618  0.13569  1.0000
  Fe  Fe27      1.0  0.18692  0.58817  0.00147  1.0000
  C   C322      1.0  0.01725  0.37671  0.39823  1.0000
  C   C323      1.0  0.22640  0.35625  0.34175  1.0000
  S   S49       1.0  0.15764  0.66149  0.04692  1.0000
  H   H255      1.0  0.46774  0.64620  0.48418  1.0000
  C   C324      1.0  0.01163  0.44553  0.25906  1.0000
  C   C325      1.0  0.01161  0.37243  0.16436  1.0000
  H   H256      1.0  0.00324  0.47751  0.14378  1.0000
  C   C326      1.0  0.00390  0.35446  0.18027  1.0000
  H   H257      1.0  0.01746  0.55120  0.49606  1.0000
  C   C327      1.0  0.03176  0.54678  0.11715  1.0000
  C   C328      1.0  0.19103  0.52350  0.49635  1.0000
  C   C329      1.0  0.43700  0.33387  0.28990  1.0000
  C   C330      1.0  0.00045  0.37039  0.31465  1.0000
  H   H258      1.0  0.00022  0.53986  0.11826  1.0000
  H   H259      1.0  0.00481  0.64053  0.15676  1.0000
  C   C331      1.0  0.49735  0.34785  0.46329  1.0000
  H   H260      1.0  0.30426  0.33384  0.20499  1.0000
  H   H261      1.0  0.46896  0.34922  0.49791  1.0000
  C   C332      1.0  0.20056  0.45021  0.75595  1.0000
  C   C333      1.0  0.22909  0.51828  0.53330  1.0000
  H   H262      1.0  0.13743  0.49046  0.68924  1.0000
  S   S50       1.0  0.17662  0.41782  0.51062  1.0000
  H   H263      1.0  0.25136  0.52860  0.59546  1.0000
  Fe  Fe28      1.0  0.09908  0.50493  0.60979  1.0000
  S   S51       1.0  0.13298  0.53157  0.58817  1.0000
  S   S52       1.0  0.10203  0.46624  0.60320  1.0000
  Fe  Fe29      1.0  0.06019  0.54033  0.64386  1.0000
  S   S53       1.0  0.09051  0.56955  0.62369  1.0000
  C   C334      1.0  0.02557  0.51367  0.96380  1.0000
  Fe  Fe30      1.0  0.07214  0.55119  0.59056  1.0000
  Fe  Fe31      1.0  0.14927  0.54843  0.62262  1.0000
  S   S54       1.0  0.21045  0.56492  0.63536  1.0000
  S   S55       1.0  0.03672  0.52358  0.61036  1.0000
  S   S56       1.0  0.12032  0.51996  0.64458  1.0000
  S   S57       1.0  0.42965  0.62695  0.88733  1.0000
  S   S58       1.0  0.46583  0.62794  0.62464  1.0000
  Fe  Fe32      1.0  0.41132  0.64194  0.60372  1.0000
  S   S59       1.0  0.35961  0.62109  0.58538  1.0000
  Fe  Fe33      1.0  0.12114  0.61381  0.97240  1.0000
  S   S60       1.0  0.18023  0.59505  0.96215  1.0000
  S   S61       1.0  0.05528  0.61092  0.95684  1.0000
  Fe  Fe34      1.0  0.21406  0.62859  0.96901  1.0000
  S   S62       1.0  0.26151  0.64911  0.94619  1.0000
  S   S63       1.0  0.15370  0.64796  0.97659  1.0000
  C   C335      1.0  0.38302  0.63350  0.90369  1.0000
  C   C336      1.0  0.32532  0.62014  0.92944  1.0000
  C   C337      1.0  0.30780  0.64222  0.92968  1.0000
  C   C338      1.0  0.33000  0.58232  0.85754  1.0000
  C   C339      1.0  0.29346  0.48050  0.53536  1.0000
  C   C340      1.0  0.13393  0.60959  0.87918  1.0000
  H   H264      1.0  0.24199  0.49989  0.50072  1.0000
  C   C341      1.0  0.01976  0.57200  0.88917  1.0000
  C   C342      1.0  0.06150  0.57206  0.89713  1.0000
  C   C343      1.0  0.07273  0.58355  0.91805  1.0000
  C   C344      1.0  0.04217  0.59514  0.93118  1.0000
  C   C345      1.0  0.02685  0.46090  0.89775  1.0000
  P   P11       1.0  0.26982  0.50459  0.55074  1.0000
  H   H265      1.0  0.08535  0.56362  0.88666  1.0000
  H   H266      1.0  0.10515  0.58403  0.92371  1.0000
  C   C346      1.0  0.28967  0.57548  0.86458  1.0000
  Fe  Fe35      1.0  0.47891  0.65002  0.86881  1.0000
  C   C347      1.0  0.25099  0.58076  0.62085  1.0000
  C   C348      1.0  0.25247  0.58371  0.59626  1.0000
  C   C349      1.0  0.28568  0.59628  0.58574  1.0000
  C   C350      1.0  0.31787  0.60592  0.59959  1.0000
  C   C351      1.0  0.31614  0.60311  0.62415  1.0000
  C   C352      1.0  0.28296  0.59058  0.63467  1.0000
  H   H267      1.0  0.22826  0.57622  0.58538  1.0000
  H   H268      1.0  0.28673  0.59840  0.56674  1.0000
  H   H269      1.0  0.34065  0.61038  0.63505  1.0000
  H   H270      1.0  0.28226  0.58838  0.65369  1.0000
  H   H271      1.0  0.49457  0.56850  0.73644  1.0000
  S   S64       1.0  0.13785  0.35165  0.49824  1.0000
  H   H272      1.0  0.10341  0.65625  0.91102  1.0000
  H   H273      1.0  0.18250  0.53393  0.87127  1.0000
  C   C353      1.0  0.15437  0.43072  0.53629  1.0000
  C   C354      1.0  0.14918  0.45479  0.53673  1.0000
  C   C355      1.0  0.13313  0.46594  0.55695  1.0000
  C   C356      1.0  0.12138  0.45307  0.57693  1.0000
  C   C357      1.0  0.12562  0.42897  0.57626  1.0000
  C   C358      1.0  0.14210  0.41784  0.55611  1.0000
  H   H274      1.0  0.15775  0.46493  0.52134  1.0000
  H   H275      1.0  0.13004  0.48446  0.55713  1.0000
  H   H276      1.0  0.11659  0.41883  0.59156  1.0000
  H   H277      1.0  0.14568  0.39933  0.55603  1.0000
  C   C359      1.0  0.22281  0.50383  0.61851  1.0000
  C   C360      1.0  0.01256  0.46910  0.91955  1.0000
  C   C361      1.0  0.04920  0.45806  0.68435  1.0000
  C   C362      1.0  0.02048  0.48395  0.54030  1.0000
  C   C363      1.0  0.21247  0.56512  0.90576  1.0000
  C   C364      1.0  0.08407  0.50958  0.99120  1.0000
  C   C365      1.0  0.30900  0.52613  0.55742  1.0000
  H   H278      1.0  0.07346  0.59731  0.66783  1.0000
  C   C366      1.0  0.17788  0.55254  0.91433  1.0000
  H   H279      1.0  0.20985  0.54095  0.56151  1.0000
  C   C367      1.0  0.18358  0.56778  0.85484  1.0000
  H   H280      1.0  0.44640  0.62558  0.94585  1.0000
  C   C368      1.0  0.04277  0.50442  0.54307  1.0000
  H   H281      1.0  0.05741  0.61153  0.74164  1.0000
  C   C369      1.0  0.36547  0.65556  0.90396  1.0000
  H   H282      1.0  0.10775  0.61211  0.57158  1.0000
  C   C370      1.0  0.33488  0.52351  0.57738  1.0000
  H   H283      1.0  0.07919  0.54834  0.74366  1.0000
  C   C371      1.0  0.28623  0.44462  0.51371  1.0000
  C   C372      1.0  0.20356  0.47812  0.78751  1.0000
  C   C373      1.0  0.21673  0.45731  0.77769  1.0000
  H   H284      1.0  0.09915  0.46692  0.66019  1.0000
  C   C374      1.0  0.33739  0.47850  0.53356  1.0000
  C   C375      1.0  0.15728  0.48465  0.75394  1.0000
  C   C376      1.0  0.17408  0.49179  0.77565  1.0000
  P   P12       1.0  0.11996  0.50276  0.73855  1.0000
  C   C377      1.0  0.14712  0.52558  0.72289  1.0000
  H   H285      1.0  0.47194  0.62869  0.73491  1.0000
  C   C378      1.0  0.04307  0.51014  0.79638  1.0000
  C   C379      1.0  0.45897  0.64275  0.94819  1.0000
  H   H286      1.0  0.07638  0.62908  0.88103  1.0000
  H   H287      1.0  0.03861  0.48315  0.98487  1.0000
  C   C380      1.0  0.26822  0.61546  0.86639  1.0000
  C   C381      1.0  0.12632  0.53777  0.70489  1.0000
  H   H288      1.0  0.14379  0.51568  0.83877  1.0000
  C   C382      1.0  0.32804  0.65981  0.91672  1.0000
  H   H289      1.0  0.15403  0.53026  0.94190  1.0000
  H   H290      1.0  0.04655  0.62346  0.59528  1.0000
  C   C383      1.0  0.08386  0.51459  0.76012  1.0000
  C   C384      1.0  0.06996  0.50094  0.77923  1.0000
  C   C385      1.0  0.05491  0.61700  0.72333  1.0000
  C   C386      1.0  0.03011  0.53305  0.79472  1.0000
  C   C387      1.0  0.04365  0.54671  0.77578  1.0000
  C   C388      1.0  0.07013  0.53752  0.75843  1.0000
  H   H291      1.0  0.21636  0.48371  0.80427  1.0000
  H   H292      1.0  0.23961  0.44671  0.78686  1.0000
  C   C389      1.0  0.03300  0.64516  0.69404  1.0000
  H   H293      1.0  0.33186  0.50856  0.58879  1.0000
  H   H294      1.0  0.16459  0.50799  0.78332  1.0000
  H   H295      1.0  0.24250  0.55230  0.71901  1.0000
  C   C390      1.0  0.30860  0.62220  0.85938  1.0000
  P   P13       1.0  0.03751  0.63812  0.64507  1.0000
  H   H296      1.0  0.27623  0.57588  0.91371  1.0000
  C   C391      1.0  0.04095  0.53546  0.95719  1.0000
  H   H297      1.0  0.09406  0.53370  0.70049  1.0000
  H   H298      1.0  0.38933  0.45820  0.52068  1.0000
  C   C392      1.0  0.11217  0.61747  0.58974  1.0000
  H   H299      1.0  0.07945  0.48311  0.78073  1.0000
  H   H300      1.0  0.03151  0.49948  0.81077  1.0000
  S   S65       1.0  0.02413  0.55375  0.67636  1.0000
  C   C393      1.0  0.33948  0.60566  0.85502  1.0000
  H   H301      1.0  0.30668  0.64740  0.50677  1.0000
  C   C394      1.0  0.06828  0.60242  0.70526  1.0000
  H   H302      1.0  0.22005  0.53086  0.96513  1.0000
  C   C395      1.0  0.07661  0.54452  0.96815  1.0000
  P   P14       1.0  0.20736  0.58272  0.87937  1.0000
  H   H303      1.0  0.02529  0.54554  0.94363  1.0000
  H   H304      1.0  0.31038  0.60643  0.93936  1.0000
  S   S66       1.0  0.00860  0.55911  0.86160  1.0000
  H   H305      1.0  0.08774  0.56157  0.96343  1.0000
  S   S67       1.0  0.45411  0.66278  0.57977  1.0000
  H   H306      1.0  0.00889  0.54010  0.80789  1.0000
  H   H307      1.0  0.23420  0.46442  0.52629  1.0000
  H   H308      1.0  0.28285  0.55733  0.86668  1.0000
  C   C396      1.0  0.15222  0.61699  0.59986  1.0000
  H   H309      1.0  0.04064  0.47632  0.74111  1.0000
  H   H310      1.0  0.35791  0.49129  0.54117  1.0000
  H   H311      1.0  0.08049  0.58549  0.70951  1.0000
  H   H312      1.0  0.14442  0.57938  0.79987  1.0000
  C   C397      1.0  0.32988  0.44275  0.51205  1.0000
  C   C398      1.0  0.21331  0.46563  0.60285  1.0000
  H   H313      1.0  0.29538  0.54773  0.52697  1.0000
  C   C399      1.0  0.08230  0.62979  0.62727  1.0000
  H   H314      1.0  0.08499  0.52868  0.52709  1.0000
  H   H315      1.0  0.38325  0.53879  0.59887  1.0000
  C   C400      1.0  0.15754  0.62304  0.62353  1.0000
  H   H316      1.0  0.14836  0.55275  0.90494  1.0000
  H   H317      1.0  0.00368  0.45244  0.71208  1.0000
  C   C401      1.0  0.23953  0.60425  0.52166  1.0000
  H   H318      1.0  0.23436  0.45997  0.56763  1.0000
  C   C402      1.0  0.17399  0.54421  0.85602  1.0000
  S   S68       1.0  0.46023  0.64765  0.68830  1.0000
  H   H319      1.0  0.37099  0.61101  0.85006  1.0000
  C   C403      1.0  0.20992  0.54833  0.71526  1.0000
  C   C404      1.0  0.22137  0.63917  0.54256  1.0000
  C   C405      1.0  0.25250  0.55290  0.94029  1.0000
  H   H320      1.0  0.12387  0.53841  0.80324  1.0000
  C   C406      1.0  0.09174  0.48545  0.71736  1.0000
  C   C407      1.0  0.18091  0.53984  0.93536  1.0000
  C   C408      1.0  0.35545  0.45971  0.52193  1.0000
  C   C409      1.0  0.21816  0.54007  0.94839  1.0000
  C   C410      1.0  0.07730  0.62386  0.60336  1.0000
  H   H321      1.0  0.26630  0.43136  0.50625  1.0000
  H   H322      1.0  0.17619  0.65195  0.92615  1.0000
  C   C411      1.0  0.06422  0.60919  0.68160  1.0000
  Fe  Fe36      1.0  0.18613  0.38019  0.49921  1.0000
  H   H323      1.0  0.17909  0.61147  0.58961  1.0000
  C   C412      1.0  0.17413  0.58015  0.83409  1.0000
  C   C413      1.0  0.20854  0.48128  0.62128  1.0000
  H   H324      1.0  0.22058  0.61973  0.91283  1.0000
  H   H325      1.0  0.03820  0.46907  0.86102  1.0000
  H   H326      1.0  0.15922  0.45806  0.72716  1.0000
  C   C414      1.0  0.36857  0.55996  0.56867  1.0000
  H   H327      1.0  0.39070  0.57337  0.57339  1.0000
  C   C415      1.0  0.15252  0.53365  0.83742  1.0000
  C   C416      1.0  0.17477  0.60667  0.88816  1.0000
  H   H328      1.0  0.29416  0.65367  0.61979  1.0000
  C   C417      1.0  0.04658  0.63062  0.67576  1.0000
  H   H329      1.0  0.24497  0.62865  0.86957  1.0000
  H   H330      1.0  0.28093  0.55359  0.95079  1.0000
  H   H331      1.0  0.18855  0.62212  0.63144  1.0000
  C   C418      1.0  0.25866  0.59202  0.86941  1.0000
  C   C419      1.0  0.34389  0.56236  0.54839  1.0000
  C   C420      1.0  0.18954  0.62197  0.90532  1.0000
  C   C421      1.0  0.05422  0.47426  0.72369  1.0000
  H   H332      1.0  0.35421  0.56958  0.85437  1.0000
  C   C422      1.0  0.14718  0.55504  0.69216  1.0000
  H   H333      1.0  0.13116  0.56405  0.67794  1.0000
  C   C423      1.0  0.24597  0.49528  0.57839  1.0000
  C   C424      1.0  0.36250  0.61581  0.91640  1.0000
  H   H334      1.0  0.18212  0.59823  0.83262  1.0000
  H   H335      1.0  0.37557  0.59863  0.91622  1.0000
  S   S69       1.0  0.23917  0.35621  0.50920  1.0000
  S   S70       1.0  0.05436  0.56962  0.55647  1.0000
  C   C425      1.0  0.08679  0.46887  0.67800  1.0000
  C   C426      1.0  0.21373  0.61598  0.53759  1.0000
  C   C427      1.0  0.18914  0.53103  0.72805  1.0000
  C   C428      1.0  0.12282  0.62956  0.63717  1.0000
  C   C429      1.0  0.24969  0.56546  0.91913  1.0000
  C   C430      1.0  0.18898  0.56028  0.69730  1.0000
  H   H336      1.0  0.34380  0.42808  0.50321  1.0000
  C   C431      1.0  0.20459  0.53575  0.54342  1.0000
  C   C432      1.0  0.24115  0.51089  0.59716  1.0000
  H   H337      1.0  0.12766  0.63415  0.65550  1.0000
  H   H338      1.0  0.20146  0.44824  0.60485  1.0000
  C   C433      1.0  0.23188  0.47253  0.58152  1.0000
  C   C434      1.0  0.10815  0.48238  0.69446  1.0000
  C   C435      1.0  0.09810  0.53163  0.98516  1.0000
  H   H339      1.0  0.04058  0.51389  0.55947  1.0000
  H   H340      1.0  0.19314  0.47600  0.63755  1.0000
  C   C436      1.0  0.17301  0.54664  0.53032  1.0000
  H   H341      1.0  0.21920  0.51596  0.63285  1.0000
  C   C437      1.0  0.43232  0.66071  0.95489  1.0000
  C   C438      1.0  0.17109  0.46386  0.74403  1.0000
  C   C439      1.0  0.31431  0.54548  0.54268  1.0000
  C   C440      1.0  0.14148  0.54639  0.81733  1.0000
  H   H342      1.0  0.20532  0.57337  0.68706  1.0000
  C   C441      1.0  0.15284  0.56953  0.81550  1.0000
  H   H343      1.0  0.28935  0.64929  0.57664  1.0000
  H   H344      1.0  0.20173  0.64788  0.55540  1.0000
  C   C442      1.0  0.47128  0.66105  0.71602  1.0000
  H   H345      1.0  0.02653  0.64957  0.73174  1.0000
  C   C443      1.0  0.04823  0.50049  0.98037  1.0000
  H   H346      1.0  0.00197  0.50656  0.69108  1.0000
  C   C444      1.0  0.36421  0.54050  0.58308  1.0000
  C   C445      1.0  0.03741  0.63840  0.71772  1.0000
  H   H347      1.0  0.03748  0.44326  0.89622  1.0000
  C   C446      1.0  0.02313  0.47185  0.51904  1.0000
  H   H348      1.0  0.00143  0.47738  0.55475  1.0000
  C   C447      1.0  0.05339  0.39925  0.50031  1.0000
  H   H349      1.0  0.07026  0.39032  0.51426  1.0000
  H   H350      1.0  0.21094  0.43413  0.74826  1.0000
  H   H351      1.0  0.15342  0.55964  0.53858  1.0000
  H   H352      1.0  0.39956  0.65681  0.95770  1.0000
  C   C448      1.0  0.16430  0.64013  0.91305  1.0000
  C   C449      1.0  0.25453  0.65093  0.53129  1.0000
  H   H353      1.0  0.18820  0.60698  0.54635  1.0000
  H   H354      1.0  0.29131  0.66231  0.99387  1.0000
  C   C450      1.0  0.47530  0.64714  0.73642  1.0000
  H   H355      1.0  0.20622  0.52187  0.74166  1.0000
  C   C451      1.0  0.28032  0.63898  0.51530  1.0000
  H   H356      1.0  0.34727  0.57763  0.53745  1.0000
  C   C452      1.0  0.10844  0.62751  0.88731  1.0000
  C   C453      1.0  0.06801  0.51273  0.52470  1.0000
  H   H357      1.0  0.12071  0.59763  0.86668  1.0000
  C   C454      1.0  0.03307  0.46064  0.70722  1.0000
  Fe  Fe37      1.0  0.45569  0.65824  0.64895  1.0000
  C   C455      1.0  0.26810  0.46340  0.52522  1.0000
  H   H358      1.0  0.03247  0.56426  0.77421  1.0000
  C   C456      1.0  0.12355  0.64273  0.90430  1.0000
  C   C457      1.0  0.27872  0.66515  0.58458  1.0000
  H   H359      1.0  0.23406  0.58619  0.51816  1.0000
  H   H360      1.0  0.12597  0.53863  0.99344  1.0000
  H   H361      1.0  0.01848  0.66156  0.69015  1.0000
  H   H362      1.0  0.01300  0.45771  0.93480  1.0000
  C   C458      1.0  0.02732  0.47542  0.87795  1.0000
  C   C459      1.0  0.07131  0.50051  0.50351  1.0000
  C   C460      1.0  0.22265  0.51259  0.50943  1.0000
  H   H363      1.0  0.01477  0.50959  0.86476  1.0000
  H   H364      1.0  0.31635  0.64030  0.85775  1.0000
  H   H365      1.0  0.46335  0.65692  0.52649  1.0000
  C   C461      1.0  0.16616  0.54048  0.50680  1.0000
  H   H366      1.0  0.03250  0.44781  0.67147  1.0000
  H   H367      1.0  0.01461  0.59452  0.51853  1.0000
  C   C462      1.0  0.01387  0.49820  0.88000  1.0000
  H   H368      1.0  0.08093  0.43186  0.50847  1.0000
  C   C463      1.0  0.27284  0.61574  0.51057  1.0000
  C   C464      1.0  0.48356  0.65682  0.75882  1.0000
  C   C465      1.0  0.04894  0.47991  0.50053  1.0000
  H   H369      1.0  0.00520  0.45615  0.51721  1.0000
  C   C466      1.0  0.00198  0.57890  0.55251  1.0000
  H   H370      1.0  0.47115  0.57276  0.77815  1.0000
  H   H371      1.0  0.48650  0.64585  0.77425  1.0000
  C   C467      1.0  0.99840  0.54189  0.70181  1.0000
  C   C468      1.0  0.00006  0.59438  0.92368  1.0000
  C   C469      1.0  0.99906  0.50639  0.90170  1.0000
  C   C470      1.0  0.48271  0.66694  0.51443  1.0000
  H   H372      1.0  0.29324  0.60657  0.49848  1.0000
  Fe  Fe38      1.0  0.25985  0.84388  0.47265  1.0000
  S   S71       1.0  0.30818  0.81556  0.47001  1.0000
  S   S72       1.0  0.19704  0.85022  0.45310  1.0000
  Fe  Fe39      1.0  0.35649  0.84381  0.47303  1.0000
  S   S73       1.0  0.41828  0.84297  0.45291  1.0000
  S   S74       1.0  0.30866  0.87221  0.47275  1.0000
  C   C471      1.0  0.47048  0.86480  0.42116  1.0000
  Fe  Fe40      1.0  0.44596  0.92665  0.11651  1.0000
  S   S75       1.0  0.44775  0.96193  0.13224  1.0000
  C   C472      1.0  0.23756  0.74201  0.07878  1.0000
  Fe  Fe41      1.0  0.35100  0.92106  0.12575  1.0000
  S   S76       1.0  0.34671  0.95657  0.14199  1.0000
  S   S77       1.0  0.30584  0.89004  0.12873  1.0000
  Fe  Fe42      1.0  0.38829  0.96812  0.11136  1.0000
  Fe  Fe43      1.0  0.40705  0.94796  0.16144  1.0000
  S   S78       1.0  0.41290  0.95429  0.20162  1.0000
  S   S79       1.0  0.38925  0.93312  0.09401  1.0000
  S   S80       1.0  0.40882  0.91222  0.14686  1.0000
  C   C473      1.0  0.46775  0.88821  0.29989  1.0000
  C   C474      1.0  0.34972  0.82746  0.01051  1.0000
  Fe  Fe44      1.0  0.07391  0.82938  0.10390  1.0000
  S   S81       1.0  0.08362  0.79323  0.11770  1.0000
  S   S82       1.0  0.12270  0.85746  0.09492  1.0000
  Fe  Fe45      1.0  0.04260  0.78172  0.08745  1.0000
  S   S83       1.0  0.05234  0.75474  0.05835  1.0000
  Fe  Fe46      1.0  0.02232  0.79894  0.13781  1.0000
  C   C475      1.0  0.21345  0.79553  0.02343  1.0000
  S   S84       1.0  0.03638  0.81757  0.07243  1.0000
  P   P15       1.0  0.23402  0.74914  0.02988  1.0000
  S   S85       1.0  0.06369  0.80601  0.38069  1.0000
  C   C476      1.0  0.47084  0.89034  0.25705  1.0000
  H   H373      1.0  0.31265  0.92684  0.47331  1.0000
  C   C477      1.0  0.06354  0.67022  0.11661  1.0000
  H   H374      1.0  0.29848  0.67568  0.03519  1.0000
  C   C478      1.0  0.25378  0.88197  0.12018  1.0000
  C   C479      1.0  0.23760  0.86062  0.12793  1.0000
  C   C480      1.0  0.19712  0.85311  0.12110  1.0000
  C   C481      1.0  0.17254  0.86666  0.10593  1.0000
  C   C482      1.0  0.18877  0.88798  0.09819  1.0000
  C   C483      1.0  0.22874  0.89574  0.10551  1.0000
  H   H375      1.0  0.25652  0.84980  0.13932  1.0000
  H   H376      1.0  0.18525  0.83669  0.12722  1.0000
  H   H377      1.0  0.17004  0.89869  0.08657  1.0000
  H   H378      1.0  0.24003  0.91238  0.09981  1.0000
  H   H379      1.0  0.24060  0.73664  0.11652  1.0000
  H   H380      1.0  0.14688  0.74756  0.01176  1.0000
  C   C484      1.0  0.32914  0.92747  0.23088  1.0000
  H   H381      1.0  0.34734  0.97395  0.00871  1.0000
  C   C485      1.0  0.16850  0.77406  0.05027  1.0000
  H   H382      1.0  0.41544  0.95510  0.25254  1.0000
  C   C486      1.0  0.34642  0.80067  0.23448  1.0000
  C   C487      1.0  0.08151  0.72869  0.05591  1.0000
  C   C488      1.0  0.07952  0.71628  0.03461  1.0000
  C   C489      1.0  0.10249  0.69572  0.03156  1.0000
  C   C490      1.0  0.12782  0.68728  0.04982  1.0000
  C   C491      1.0  0.12957  0.69959  0.07119  1.0000
  C   C492      1.0  0.10672  0.72020  0.07423  1.0000
  H   H383      1.0  0.06002  0.72264  0.02035  1.0000
  H   H384      1.0  0.19847  0.78902  0.46712  1.0000
  H   H385      1.0  0.14856  0.69310  0.08558  1.0000
  H   H386      1.0  0.10853  0.72948  0.09073  1.0000
  C   C493      1.0  0.43040  0.86448  0.43170  1.0000
  C   C494      1.0  0.37131  0.76764  0.01064  1.0000
  C   C495      1.0  0.23941  0.72851  0.09933  1.0000
  C   C496      1.0  0.45184  0.89862  0.39794  1.0000
  C   C497      1.0  0.41187  0.89832  0.40855  1.0000
  C   C498      1.0  0.40116  0.88138  0.42538  1.0000
  H   H387      1.0  0.15923  0.75816  0.05891  1.0000
  H   H388      1.0  0.37996  0.97245  0.04855  1.0000
  H   H389      1.0  0.38916  0.91133  0.40388  1.0000
  H   H390      1.0  0.37026  0.88136  0.43337  1.0000
  C   C499      1.0  0.16091  0.83774  0.43249  1.0000
  C   C500      1.0  0.17006  0.81780  0.41966  1.0000
  C   C501      1.0  0.14005  0.80850  0.40394  1.0000
  C   C502      1.0  0.10052  0.81900  0.40054  1.0000
  C   C503      1.0  0.09159  0.83911  0.41312  1.0000
  C   C504      1.0  0.12156  0.84837  0.42890  1.0000
  H   H391      1.0  0.20012  0.80943  0.42196  1.0000
  H   H392      1.0  0.14748  0.79297  0.39434  1.0000
  H   H393      1.0  0.06155  0.84751  0.41073  1.0000
  H   H394      1.0  0.11403  0.86386  0.43855  1.0000
  H   H395      1.0  0.45434  0.90436  0.06417  1.0000
  H   H396      1.0  0.33176  0.78394  0.23644  1.0000
  C   C505      1.0  0.31093  0.92784  0.20841  1.0000
  H   H397      1.0  0.23060  0.69890  0.03826  1.0000
  C   C506      1.0  0.48831  0.89515  0.27917  1.0000
  C   C507      1.0  0.31702  0.76131  0.04010  1.0000
  C   C508      1.0  0.14426  0.79373  0.05400  1.0000
  H   H398      1.0  0.23783  0.76055  0.08035  1.0000
  H   H399      1.0  0.38228  0.86254  0.27579  1.0000
  H   H400      1.0  0.44686  0.84553  0.02786  1.0000
  C   C509      1.0  0.12263  0.75463  0.44368  1.0000
  H   H401      1.0  0.32516  0.85399  0.21301  1.0000
  H   H402      1.0  0.47343  0.95269  0.28200  1.0000
  C   C510      1.0  0.23413  0.70751  0.05505  1.0000
  H   H403      1.0  0.06495  0.70762  0.43412  1.0000
  C   C511      1.0  0.18700  0.83680  0.34319  1.0000
  C   C512      1.0  0.14966  0.84605  0.35206  1.0000
  C   C513      1.0  0.15075  0.86583  0.36594  1.0000
  C   C514      1.0  0.18916  0.87635  0.37112  1.0000
  C   C515      1.0  0.22695  0.86702  0.36246  1.0000
  C   C516      1.0  0.22553  0.84720  0.34838  1.0000
  P   P16       1.0  0.27731  0.87858  0.37127  1.0000
  C   C517      1.0  0.30596  0.85485  0.38448  1.0000
  C   C518      1.0  0.30593  0.89130  0.34668  1.0000
  C   C519      1.0  0.29107  0.88970  0.32335  1.0000
  C   C520      1.0  0.31310  0.90029  0.30474  1.0000
  C   C521      1.0  0.34993  0.91261  0.30930  1.0000
  C   C522      1.0  0.36489  0.91427  0.33242  1.0000
  C   C523      1.0  0.34285  0.90384  0.35100  1.0000
  C   C524      1.0  0.28408  0.83802  0.39758  1.0000
  C   C525      1.0  0.30566  0.81979  0.40824  1.0000
  C   C526      1.0  0.34931  0.81827  0.40615  1.0000
  C   C527      1.0  0.37128  0.83468  0.39289  1.0000
  C   C528      1.0  0.34979  0.85287  0.38204  1.0000
  C   C529      1.0  0.26906  0.90020  0.39372  1.0000
  C   C530      1.0  0.25892  0.89362  0.41698  1.0000
  C   C531      1.0  0.24981  0.91022  0.43402  1.0000
  C   C532      1.0  0.25129  0.93357  0.42812  1.0000
  C   C533      1.0  0.26131  0.94033  0.40502  1.0000
  C   C534      1.0  0.26969  0.92374  0.38779  1.0000
  H   H404      1.0  0.18599  0.82128  0.33268  1.0000
  H   H405      1.0  0.11985  0.83764  0.34857  1.0000
  H   H406      1.0  0.12175  0.87264  0.37319  1.0000
  H   H407      1.0  0.18908  0.89133  0.38238  1.0000
  H   H408      1.0  0.25431  0.83945  0.34193  1.0000
  H   H409      1.0  0.26232  0.88057  0.31943  1.0000
  H   H410      1.0  0.30145  0.89909  0.28677  1.0000
  H   H411      1.0  0.36706  0.92086  0.29498  1.0000
  H   H412      1.0  0.39374  0.92361  0.33601  1.0000
  H   H413      1.0  0.35461  0.90564  0.36881  1.0000
  H   H414      1.0  0.25030  0.83914  0.39996  1.0000
  H   H415      1.0  0.28852  0.80710  0.41853  1.0000
  H   H416      1.0  0.36629  0.80463  0.41514  1.0000
  H   H417      1.0  0.40525  0.83369  0.39164  1.0000
  H   H418      1.0  0.36792  0.86539  0.37224  1.0000
  H   H419      1.0  0.25689  0.87567  0.42200  1.0000
  H   H420      1.0  0.24090  0.90478  0.45171  1.0000
  H   H421      1.0  0.24404  0.94640  0.44135  1.0000
  H   H422      1.0  0.26187  0.95843  0.40036  1.0000
  H   H423      1.0  0.27587  0.92935  0.36983  1.0000
  P   P17       1.0  0.03500  0.75277  0.44922  1.0000
  H   H424      1.0  0.39034  0.88208  0.01681  1.0000
  C   C535      1.0  0.34315  0.84036  0.22123  1.0000
  C   C536      1.0  0.48127  0.88187  0.40441  1.0000
  C   C537      1.0  0.48188  0.99536  0.41231  1.0000
  C   C538      1.0  0.42977  0.87628  0.29854  1.0000
  P   P18       1.0  0.36653  0.84834  0.05376  1.0000
  C   C539      1.0  0.40944  0.84656  0.07462  1.0000
  C   C540      1.0  0.35277  0.87817  0.04867  1.0000
  C   C541      1.0  0.32541  0.88954  0.06422  1.0000
  C   C542      1.0  0.31273  0.91213  0.05956  1.0000
  C   C543      1.0  0.32768  0.92369  0.03955  1.0000
  H   H425      1.0  0.23955  0.69405  0.11366  1.0000
  C   C544      1.0  0.36843  0.89010  0.02883  1.0000
  C   C545      1.0  0.41275  0.86265  0.09295  1.0000
  C   C546      1.0  0.44647  0.86158  0.10873  1.0000
  C   C547      1.0  0.47722  0.84463  0.10629  1.0000
  C   C548      1.0  0.39880  0.96927  0.03286  1.0000
  C   C549      1.0  0.43935  0.82880  0.07308  1.0000
  C   C550      1.0  0.32228  0.83290  0.06633  1.0000
  C   C551      1.0  0.32887  0.81427  0.08187  1.0000
  C   C552      1.0  0.29472  0.80347  0.09297  1.0000
  C   C553      1.0  0.25384  0.81128  0.08879  1.0000
  C   C554      1.0  0.24704  0.82957  0.07317  1.0000
  C   C555      1.0  0.28091  0.84002  0.06158  1.0000
  C   C556      1.0  0.41856  0.90035  0.49157  1.0000
  H   H426      1.0  0.31078  0.99654  0.06954  1.0000
  H   H427      1.0  0.46976  0.88188  0.47540  1.0000
  H   H428      1.0  0.31727  0.82663  0.01628  1.0000
  C   C557      1.0  0.20357  0.77485  0.03515  1.0000
  H   H429      1.0  0.31366  0.88094  0.07992  1.0000
  H   H430      1.0  0.29187  0.92082  0.07176  1.0000
  H   H431      1.0  0.31780  0.94123  0.03618  1.0000
  C   C558      1.0  0.42244  0.83787  0.01714  1.0000
  C   C559      1.0  0.35219  0.89454  0.19740  1.0000
  H   H432      1.0  0.38966  0.87618  0.09511  1.0000
  C   C560      1.0  0.32445  0.81871  0.22369  1.0000
  H   H433      1.0  0.27465  0.85424  0.04964  1.0000
  C   C561      1.0  0.37840  0.70625  0.00985  1.0000
  H   H434      1.0  0.43678  0.81566  0.05970  1.0000
  H   H435      1.0  0.36033  0.80848  0.08598  1.0000
  H   H436      1.0  0.30000  0.78958  0.10548  1.0000
  H   H437      1.0  0.22735  0.80363  0.09805  1.0000
  H   H438      1.0  0.23454  0.67546  0.07434  1.0000
  H   H439      1.0  0.40366  0.77170  0.00620  1.0000
  H   H440      1.0  0.32148  0.94083  0.24344  1.0000
  H   H441      1.0  0.02178  0.70404  0.36235  1.0000
  C   C562      1.0  0.00921  0.79755  0.43897  1.0000
  C   C563      1.0  0.04573  0.70353  0.39801  1.0000
  C   C564      1.0  0.08702  0.76423  0.45459  1.0000
  C   C565      1.0  0.39474  0.92053  0.49144  1.0000
  C   C566      1.0  0.43326  0.99932  0.48308  1.0000
  C   C567      1.0  0.35866  0.76671  0.03431  1.0000
  C   C568      1.0  0.13238  0.79141  0.47489  1.0000
  C   C569      1.0  0.38093  0.83609  0.02556  1.0000
  H   H442      1.0  0.18998  0.75626  0.43956  1.0000
  C   C570      1.0  0.00844  0.73563  0.38052  1.0000
  C   C571      1.0  0.01270  0.74800  0.40152  1.0000
  C   C572      1.0  0.44778  0.87219  0.20373  1.0000
  C   C573      1.0  0.20921  0.73314  0.00635  1.0000
  C   C574      1.0  0.43271  0.87826  0.25551  1.0000
  C   C575      1.0  0.23892  0.70453  0.09774  1.0000
  C   C576      1.0  0.47347  0.82809  0.08862  1.0000
  H   H443      1.0  0.41381  0.87104  0.31466  1.0000
  C   C577      1.0  0.45199  0.89778  0.47574  1.0000
  C   C578      1.0  0.23645  0.69406  0.07561  1.0000
  H   H444      1.0  0.45138  0.83513  0.19985  1.0000
  C   C579      1.0  0.18871  0.81516  0.02700  1.0000
  H   H445      1.0  0.19627  0.83115  0.01801  1.0000
  C   C580      1.0  0.99857  0.78240  0.22400  1.0000
  C   C581      1.0  0.40460  0.98384  0.49337  1.0000
  H   H446      1.0  0.07205  0.68770  0.11179  1.0000
  C   C582      1.0  0.44139  0.96406  0.03517  1.0000
  H   H447      1.0  0.49253  0.99697  0.08203  1.0000
  H   H448      1.0  0.47585  0.71237  0.00108  1.0000
  C   C583      1.0  0.35046  0.69835  0.02730  1.0000
  C   C584      1.0  0.48039  0.95182  0.26329  1.0000
  C   C585      1.0  0.38420  0.84413  0.22949  1.0000
  H   H449      1.0  0.10059  0.68641  0.01507  1.0000
  H   H450      1.0  0.30800  0.76065  0.05855  1.0000
  C   C586      1.0  0.15425  0.81429  0.04241  1.0000
  C   C587      1.0  0.23469  0.73161  0.05645  1.0000
  C   C588      1.0  0.48531  0.89766  0.06028  1.0000
  C   C589      1.0  0.49244  0.85230  0.17541  1.0000
  C   C590      1.0  0.37031  0.89387  0.22004  1.0000
  S   S86       1.0  0.46305  0.91992  0.37639  1.0000
  C   C591      1.0  0.35575  0.91272  0.02425  1.0000
  S   S87       1.0  0.01495  0.83566  0.12544  1.0000
  H   H451      1.0  0.45503  0.96276  0.05271  1.0000
  H   H452      1.0  0.05839  0.68630  0.39663  1.0000
  H   H453      1.0  0.45152  0.90922  0.20222  1.0000
  C   C592      1.0  0.32237  0.91135  0.19173  1.0000
  C   C593      1.0  0.32193  0.96100  0.48752  1.0000
  C   C594      1.0  0.41215  0.87143  0.27647  1.0000
  H   H454      1.0  0.11723  0.79291  0.06566  1.0000
  H   H455      1.0  0.11961  0.74075  0.43118  1.0000
  H   H456      1.0  0.21545  0.83618  0.07070  1.0000
  C   C595      1.0  0.36655  0.97506  0.44546  1.0000
  C   C596      1.0  0.36151  0.96773  0.40325  1.0000
  H   H457      1.0  0.28889  0.94129  0.20365  1.0000
  H   H458      1.0  0.30876  0.91192  0.17418  1.0000
  H   H459      1.0  0.06539  0.79037  0.47898  1.0000
  H   H460      1.0  0.44947  0.87436  0.12248  1.0000
  H   H461      1.0  0.40222  0.71848  0.01482  1.0000
  P   P19       1.0  0.37406  0.96458  0.47529  1.0000
  H   H462      1.0  0.36121  0.88218  0.18404  1.0000
  H   H463      1.0  0.29275  0.81597  0.21729  1.0000
  H   H464      1.0  0.24352  0.92126  0.49232  1.0000
  C   C597      1.0  0.44752  0.95318  0.24650  1.0000
  H   H465      1.0  0.37359  0.91116  0.25382  1.0000
  C   C598      1.0  0.35879  0.91058  0.23668  1.0000
  C   C599      1.0  0.45578  0.95226  0.22199  1.0000
  C   C600      1.0  0.02077  0.73248  0.47226  1.0000
  H   H466      1.0  0.44576  0.77023  0.48778  1.0000
  H   H467      1.0  0.23990  0.79650  0.01141  1.0000
  C   C601      1.0  0.40320  0.93797  0.47488  1.0000
  H   H468      1.0  0.46913  0.88653  0.02510  1.0000
  C   C602      1.0  0.43710  0.93536  0.45918  1.0000
  H   H469      1.0  0.04035  0.80008  0.43167  1.0000
  H   H470      1.0  0.48112  0.89224  0.31701  1.0000
  C   C603      1.0  0.04953  0.71571  0.41917  1.0000
  C   C604      1.0  0.09231  0.78258  0.47040  1.0000
  P   P20       1.0  0.40893  0.87210  0.22719  1.0000
  H   H471      1.0  0.36482  0.71101  0.47868  1.0000
  H   H472      1.0  0.13527  0.82952  0.04552  1.0000
  C   C605      1.0  0.46626  0.96054  0.01505  1.0000
  H   H473      1.0  0.43761  0.82847  0.24698  1.0000
  C   C606      1.0  0.40601  0.82590  0.24036  1.0000
  H   H474      1.0  0.38117  0.77012  0.04822  1.0000
  H   H475      1.0  0.35312  0.70446  0.04530  1.0000
  H   H476      1.0  0.40420  0.79032  0.25126  1.0000
  C   C607      1.0  0.28756  0.75686  0.02223  1.0000
  H   H477      1.0  0.29562  0.69708  0.49244  1.0000
  H   H478      1.0  0.36781  0.94126  0.42956  1.0000
  C   C608      1.0  0.46279  0.85164  0.19378  1.0000
  C   C609      1.0  0.36542  0.95961  0.42647  1.0000
  C   C610      1.0  0.46323  0.89323  0.19513  1.0000
  C   C611      1.0  0.38720  0.80428  0.24281  1.0000
  H   H479      1.0  0.36208  0.95569  0.38865  1.0000
  C   C612      1.0  0.16758  0.78175  0.46399  1.0000
  C   C613      1.0  0.16272  0.76337  0.44841  1.0000
  C   C614      1.0  0.31954  0.68225  0.02164  1.0000
  C   C615      1.0  0.46145  0.91535  0.45964  1.0000
  H   H480      1.0  0.44472  0.94875  0.44653  1.0000
  C   C616      1.0  0.31562  0.67461  0.99840  1.0000
  H   H481      1.0  0.36779  0.92176  0.00889  1.0000
  H   H482      1.0  0.99965  0.76518  0.40229  1.0000
  C   C617      1.0  0.03292  0.73804  0.42113  1.0000
  C   C618      1.0  0.38055  0.97014  0.01042  1.0000
  H   H483      1.0  0.48685  0.91315  0.44701  1.0000
  C   C619      1.0  0.02507  0.71347  0.37871  1.0000
  H   H484      1.0  0.48864  0.73495  0.48979  1.0000
  C   C620      1.0  0.29932  0.94064  0.48371  1.0000
  C   C621      1.0  0.35709  0.99129  0.39889  1.0000
  C   C622      1.0  0.49368  0.88746  0.03821  1.0000
  H   H485      1.0  0.13617  0.80615  0.48637  1.0000
  H   H486      1.0  0.48703  0.89639  0.24135  1.0000
  C   C623      1.0  0.03767  0.73431  0.49511  1.0000
  S   S88       1.0  0.01317  0.78454  0.17569  1.0000
  C   C624      1.0  0.49310  0.89385  0.17695  1.0000
  H   H487      1.0  0.48992  0.95929  0.40511  1.0000
  H   H488      1.0  0.49331  0.85181  0.42598  1.0000
  C   C625      1.0  0.36122  0.70454  0.49658  1.0000
  C   C626      1.0  0.25977  0.93755  0.49411  1.0000
  H   H489      1.0  0.02417  0.68055  0.14571  1.0000
  C   C627      1.0  0.49753  0.94976  0.21453  1.0000
  C   C628      1.0  0.16623  0.73601  0.00145  1.0000
  H   H490      1.0  0.49736  0.81494  0.08678  1.0000
  H   H491      1.0  0.35407  0.99756  0.38086  1.0000
  C   C629      1.0  0.99928  0.79670  0.20375  1.0000
  H   H492      1.0  0.00688  0.76444  0.22226  1.0000
  H   H493      1.0  0.46019  0.99800  0.39780  1.0000
  H   H494      1.0  0.43791  0.99975  0.46413  1.0000
  C   C630      1.0  0.30022  0.75872  0.99843  1.0000
  H   H495      1.0  0.14449  0.74163  0.49762  1.0000
  C   C631      1.0  0.36066  0.99863  0.44104  1.0000
  H   H496      1.0  0.45543  0.84381  0.64624  1.0000
  H   H497      1.0  0.29034  0.73275  0.91680  1.0000
  S   S89       1.0  0.30200  0.90111  0.53483  1.0000
  H   H498      1.0  0.46359  0.80381  0.51242  1.0000
  S   S90       1.0  0.30410  0.78122  0.53013  1.0000
  C   C632      1.0  0.37541  0.69820  0.98650  1.0000
  S   S91       1.0  0.42552  0.96646  0.59342  1.0000
  H   H499      1.0  0.32839  0.73069  0.87844  1.0000
  C   C633      1.0  0.44206  0.90980  0.63881  1.0000
  Fe  Fe47      1.0  0.44426  0.69112  0.60606  1.0000
  S   S92       1.0  0.47582  0.68749  0.85873  1.0000
  S   S93       1.0  0.44246  0.72831  0.59212  1.0000
  C   C634      1.0  0.40502  0.96602  0.99028  1.0000
  H   H500      1.0  0.43086  0.83893  0.54691  1.0000
  P   P21       1.0  0.43401  0.85304  0.59610  1.0000
  C   C635      1.0  0.44838  0.96186  0.99236  1.0000
  C   C636      1.0  0.17085  0.70780  0.97017  1.0000
  C   C637      1.0  0.44517  0.78642  0.61959  1.0000
  H   H501      1.0  0.46516  0.83156  0.98844  1.0000
  C   C638      1.0  0.44475  0.73120  0.97297  1.0000
  C   C639      1.0  0.45086  0.99832  0.94772  1.0000
  C   C640      1.0  0.21344  0.70460  0.97512  1.0000
  C   C641      1.0  0.42380  0.88907  0.93492  1.0000
  H   H502      1.0  0.41060  0.88659  0.50375  1.0000
  H   H503      1.0  0.43963  0.90344  0.90081  1.0000
  C   C642      1.0  0.36009  0.82031  0.98761  1.0000
  C   C643      1.0  0.34330  0.76709  0.54742  1.0000
  C   C644      1.0  0.33178  0.74783  0.56116  1.0000
  C   C645      1.0  0.36167  0.73566  0.57473  1.0000
  C   C646      1.0  0.40368  0.74269  0.57482  1.0000
  C   C647      1.0  0.41517  0.76228  0.56148  1.0000
  C   C648      1.0  0.38525  0.77434  0.54774  1.0000
  H   H504      1.0  0.29941  0.74242  0.56153  1.0000
  H   H505      1.0  0.35213  0.72099  0.58531  1.0000
  H   H506      1.0  0.44748  0.76804  0.56166  1.0000
  H   H507      1.0  0.39461  0.78917  0.53738  1.0000
  C   C649      1.0  0.39117  0.94931  0.57594  1.0000
  C   C650      1.0  0.34859  0.95465  0.57314  1.0000
  C   C651      1.0  0.32204  0.93980  0.56032  1.0000
  C   C652      1.0  0.33754  0.91943  0.55016  1.0000
  C   C653      1.0  0.38031  0.91428  0.55260  1.0000
  C   C654      1.0  0.40694  0.92927  0.56516  1.0000
  H   H508      1.0  0.33591  0.97001  0.58121  1.0000
  H   H509      1.0  0.28909  0.94404  0.55848  1.0000
  H   H510      1.0  0.39272  0.89862  0.54508  1.0000
  H   H511      1.0  0.43985  0.92506  0.56693  1.0000
  C   C655      1.0  0.25139  0.70389  0.58117  1.0000
  H   H512      1.0  0.43800  0.92827  0.63676  1.0000
  H   H513      1.0  0.11391  0.72543  0.98001  1.0000
  C   C656      1.0  0.06022  0.70702  0.63550  1.0000
  H   H514      1.0  0.41146  0.87324  0.92769  1.0000
  H   H515      1.0  0.24025  0.71827  0.57070  1.0000
  H   H516      1.0  0.05987  0.74776  0.49929  1.0000
  H   H517      1.0  0.42583  0.77383  0.62876  1.0000
  C   C657      1.0  0.47261  0.76939  0.49954  1.0000
  C   C658      1.0  0.44383  0.75210  0.96029  1.0000
  C   C659      1.0  0.23250  0.71713  0.99318  1.0000
  H   H518      1.0  0.46562  0.94332  0.51595  1.0000
  H   H519      1.0  0.09652  0.67599  0.63457  1.0000
  S   S94       1.0  0.36122  0.84187  0.51280  1.0000
  C   C660      1.0  0.42460  0.89232  0.95939  1.0000
  C   C661      1.0  0.34444  0.72644  0.89479  1.0000
  H   H520      1.0  0.41730  0.69682  0.54711  1.0000
  H   H521      1.0  0.33887  0.67681  0.96294  1.0000
  H   H522      1.0  0.45586  0.91150  0.67602  1.0000
  C   C662      1.0  0.45171  0.86216  0.64378  1.0000
  C   C663      1.0  0.22655  0.69973  0.52542  1.0000
  C   C664      1.0  0.02057  0.71681  0.63905  1.0000
  C   C665      1.0  0.48504  0.78011  0.61150  1.0000
  C   C666      1.0  0.45693  0.87655  0.66334  1.0000
  C   C667      1.0  0.38653  0.71959  0.89420  1.0000
  C   C668      1.0  0.26376  0.68326  0.57039  1.0000
  H   H523      1.0  0.47284  0.69584  0.70293  1.0000
  H   H524      1.0  0.43639  0.90094  0.84148  1.0000
  H   H525      1.0  0.42904  0.90315  0.60246  1.0000
  C   C669      1.0  0.47914  0.92932  0.84570  1.0000
  H   H526      1.0  0.49644  0.76278  0.61462  1.0000
  H   H527      1.0  0.32661  0.72277  0.95397  1.0000
  C   C670      1.0  0.45206  0.90035  0.66086  1.0000
  C   C671      1.0  0.31683  0.68894  0.52792  1.0000
  C   C672      1.0  0.45432  0.82461  0.60256  1.0000
  C   C673      1.0  0.23633  0.72309  0.52182  1.0000
  C   C674      1.0  0.25429  0.70635  0.60574  1.0000
  C   C675      1.0  0.43966  0.90609  0.91978  1.0000
  C   C676      1.0  0.43286  0.83025  0.99448  1.0000
  C   C677      1.0  0.44102  0.91264  0.96872  1.0000
  P   P22       1.0  0.26526  0.68065  0.53854  1.0000
  H   H528      1.0  0.47132  0.78577  0.95594  1.0000
  H   H529      1.0  0.24561  0.72249  0.61391  1.0000
  S   S95       1.0  0.25832  0.84203  0.51254  1.0000
  C   C678      1.0  0.02535  0.71892  0.51297  1.0000
  P   P23       1.0  0.47936  0.95578  0.96619  1.0000
  C   C679      1.0  0.49460  0.81819  0.59471  1.0000
  H   H530      1.0  0.46750  0.85222  0.51083  1.0000
  H   H531      1.0  0.27263  0.69028  0.63866  1.0000
  C   C680      1.0  0.49035  0.68748  0.95152  1.0000
  H   H532      1.0  0.38151  0.81633  0.57570  1.0000
  C   C681      1.0  0.42997  0.80864  0.61537  1.0000
  C   C682      1.0  0.26949  0.68824  0.61969  1.0000
  C   C683      1.0  0.39088  0.69635  0.53506  1.0000
  H   H533      1.0  0.42331  0.75438  0.94523  1.0000
  C   C684      1.0  0.45620  0.92642  0.92905  1.0000
  P   P24       1.0  0.41296  0.70694  0.96390  1.0000
  H   H534      1.0  0.23147  0.69207  0.96521  1.0000
  C   C685      1.0  0.38574  0.71433  0.93690  1.0000
  H   H535      1.0  0.48827  0.87151  0.85371  1.0000
  C   C686      1.0  0.43690  0.89546  0.61928  1.0000
  H   H536      1.0  0.39014  0.96620  0.97306  1.0000
  H   H537      1.0  0.12648  0.70046  0.50366  1.0000
  H   H538      1.0  0.41300  0.87898  0.97118  1.0000
  H   H539      1.0  0.36951  0.92235  0.50411  1.0000
  C   C687      1.0  0.44163  0.87151  0.62151  1.0000
  H   H540      1.0  0.30662  0.81440  0.56554  1.0000
  C   C688      1.0  0.44781  0.68327  0.95683  1.0000
  H   H541      1.0  0.26684  0.72984  0.52666  1.0000
  H   H542      1.0  0.43984  0.70822  0.91422  1.0000
  H   H543      1.0  0.08694  0.71793  0.63145  1.0000
  H   H544      1.0  0.42120  0.99684  0.55140  1.0000
  H   H545      1.0  0.36355  0.88644  0.59892  1.0000
  Fe  Fe48      1.0  0.31004  0.86862  0.51242  1.0000
  H   H546      1.0  0.46844  0.93912  0.91686  1.0000
  H   H547      1.0  0.31953  0.99488  0.50339  1.0000
  H   H548      1.0  0.39897  0.81321  0.62180  1.0000
  C   C689      1.0  0.24208  0.95495  0.50787  1.0000
  C   C690      1.0  0.40170  0.82152  0.97966  1.0000
  C   C691      1.0  0.45292  0.85305  0.54809  1.0000
  C   C692      1.0  0.47097  0.77006  0.96634  1.0000
  C   C693      1.0  0.20684  0.73810  0.51188  1.0000
  C   C694      1.0  0.34370  0.72175  0.93743  1.0000
  C   C695      1.0  0.32308  0.72762  0.91640  1.0000
  H   H549      1.0  0.46455  0.86923  0.68048  1.0000
  C   C696      1.0  0.18666  0.69168  0.51878  1.0000
  C   C697      1.0  0.14725  0.72342  0.98338  1.0000
  H   H550      1.0  0.43075  0.99991  0.96301  1.0000
  Fe  Fe49      1.0  0.30990  0.81543  0.50991  1.0000
  H   H551      1.0  0.40316  0.71863  0.87745  1.0000
  C   C698      1.0  0.47789  0.97934  0.94482  1.0000
  C   C699      1.0  0.40121  0.98267  0.51813  1.0000
  C   C700      1.0  0.40717  0.71356  0.91514  1.0000
  H   H552      1.0  0.26065  0.84835  0.57083  1.0000
  H   H553      1.0  0.45635  0.94225  0.84048  1.0000
  H   H554      1.0  0.35182  0.76461  0.97434  1.0000
  C   C701      1.0  0.16727  0.72995  0.50535  1.0000
  C   C702      1.0  0.47582  0.68488  0.71836  1.0000
  C   C703      1.0  0.45673  0.92999  0.95363  1.0000
  C   C704      1.0  0.46062  0.86363  0.56991  1.0000
  H   H555      1.0  0.40972  0.81596  0.96194  1.0000
  C   C705      1.0  0.15718  0.70676  0.50878  1.0000
  H   H556      1.0  0.24998  0.98911  0.52171  1.0000
  C   C706      1.0  0.30963  0.86921  0.58575  1.0000
  C   C707      1.0  0.29328  0.84904  0.57622  1.0000
  C   C708      1.0  0.31932  0.82998  0.57306  1.0000
  C   C709      1.0  0.36184  0.83113  0.57911  1.0000
  C   C710      1.0  0.37849  0.85123  0.58919  1.0000
  C   C711      1.0  0.35197  0.87036  0.59215  1.0000
  H   H557      1.0  0.28975  0.88428  0.58744  1.0000
  H   H558      1.0  0.21490  0.75610  0.50932  1.0000
  H   H559      1.0  0.38058  0.97022  0.52656  1.0000
  C   C712      1.0  0.06550  0.68318  0.63725  1.0000
  H   H560      1.0  0.33576  0.81387  0.97602  1.0000
  H   H561      1.0  0.15593  0.69780  0.95641  1.0000
  C   C713      1.0  0.35186  0.68830  0.54299  1.0000
  C   C714      1.0  0.30329  0.97875  0.50067  1.0000
  C   C715      1.0  0.28153  0.66761  0.60911  1.0000
  H   H562      1.0  0.44201  0.91464  0.98777  1.0000
  C   C716      1.0  0.49077  0.88125  0.57109  1.0000
  H   H563      1.0  0.48624  0.71306  0.74244  1.0000
  H   H564      1.0  0.27787  0.75626  0.98426  1.0000
  H   H565      1.0  0.34920  0.68217  0.56106  1.0000
  H   H566      1.0  0.21195  0.95223  0.51642  1.0000
  H   H567      1.0  0.03818  0.72051  0.53062  1.0000
  C   C717      1.0  0.48344  0.69459  0.74084  1.0000
  C   C718      1.0  0.42437  0.99765  0.53230  1.0000
  C   C719      1.0  0.48267  0.78837  0.51346  1.0000
  C   C720      1.0  0.46800  0.90606  0.84623  1.0000
  C   C721      1.0  0.34298  0.68277  0.98087  1.0000
  C   C722      1.0  0.48726  0.68068  0.76125  1.0000
  C   C723      1.0  0.26364  0.97564  0.51095  1.0000
  H   H568      1.0  0.17810  0.67384  0.52121  1.0000
  C   C724      1.0  0.03101  0.66893  0.64248  1.0000
  C   C725      1.0  0.49466  0.95297  0.51730  1.0000
  C   C726      1.0  0.47397  0.86040  0.52765  1.0000
  H   H569      1.0  0.01652  0.73529  0.63771  1.0000
  S   S96       1.0  0.39840  0.67109  0.62888  1.0000
  C   C727      1.0  0.34208  0.76368  0.99271  1.0000
  H   H570      1.0  0.31469  0.67690  0.91656  1.0000
  S   S97       1.0  0.49618  0.69405  0.78921  1.0000
  C   C728      1.0  0.32203  0.69669  0.50449  1.0000
  C   C729      1.0  0.47338  0.72864  0.99170  1.0000
  C   C730      1.0  0.39553  0.70458  0.51195  1.0000
  H   H571      1.0  0.42569  0.71111  0.50606  1.0000
  H   H572      1.0  0.26529  0.71413  0.99705  1.0000
  H   H573      1.0  0.49300  0.95384  0.55544  1.0000
  C   C731      1.0  0.49757  0.88944  0.85292  1.0000
  C   C732      1.0  0.49697  0.74937  0.50081  1.0000
  H   H574      1.0  0.38053  0.66924  0.89407  1.0000
  H   H575      1.0  0.83234  0.03887  0.45568  1.0000
  S   S98       1.0  0.60071  0.29858  0.33507  1.0000
  Fe  Fe50      1.0  0.55868  0.27435  0.35587  1.0000
  S   S99       1.0  0.57838  0.23681  0.36268  1.0000
  C   C733      1.0  0.60156  0.29777  0.44335  1.0000
  S   S100      1.0  0.53026  0.28527  0.10489  1.0000
  S   S101      1.0  0.54090  0.30073  0.38311  1.0000
  H   H576      1.0  0.66913  0.30991  0.39833  1.0000
  Fe  Fe51      1.0  0.67062  0.15127  0.46707  1.0000
  S   S102      1.0  0.73060  0.13883  0.45016  1.0000
  S   S103      1.0  0.63261  0.18374  0.45758  1.0000
  Fe  Fe52      1.0  0.70515  0.10298  0.45674  1.0000
  S   S104      1.0  0.71691  0.07324  0.43115  1.0000
  C   C734      1.0  0.52331  0.01049  0.44462  1.0000
  S   S105      1.0  0.64335  0.11548  0.47140  1.0000
  H   H577      1.0  0.79543  0.27134  0.44112  1.0000
  C   C735      1.0  0.68058  0.05300  0.41957  1.0000
  C   C736      1.0  0.69523  0.03545  0.40458  1.0000
  C   C737      1.0  0.66717  0.01952  0.39439  1.0000
  C   C738      1.0  0.62403  0.02112  0.39895  1.0000
  C   C739      1.0  0.60961  0.03840  0.41433  1.0000
  C   C740      1.0  0.63766  0.05417  0.42463  1.0000
  H   H578      1.0  0.72843  0.03434  0.40058  1.0000
  H   H579      1.0  0.55876  0.13849  0.35956  1.0000
  H   H580      1.0  0.55864  0.08444  0.99826  1.0000
  H   H581      1.0  0.62617  0.06732  0.43638  1.0000
  Fe  Fe53      1.0  0.57957  0.32545  0.36073  1.0000
  H   H582      1.0  0.74650  0.29254  0.01919  1.0000
  H   H583      1.0  0.57653  0.03975  0.41824  1.0000
  C   C741      1.0  0.56990  0.15070  0.03354  1.0000
  C   C742      1.0  0.59605  0.22308  0.38916  1.0000
  C   C743      1.0  0.58813  0.23231  0.41151  1.0000
  C   C744      1.0  0.59943  0.21993  0.43211  1.0000
  C   C745      1.0  0.61978  0.19846  0.43075  1.0000
  C   C746      1.0  0.62873  0.18949  0.40836  1.0000
  C   C747      1.0  0.61665  0.20167  0.38774  1.0000
  H   H584      1.0  0.57284  0.24885  0.41292  1.0000
  H   H585      1.0  0.59247  0.22709  0.44927  1.0000
  H   H586      1.0  0.64442  0.17307  0.40692  1.0000
  H   H587      1.0  0.62308  0.19436  0.37055  1.0000
  S   S106      1.0  0.58657  0.00264  0.38547  1.0000
  H   H588      1.0  0.62372  0.26950  0.03915  1.0000
  H   H589      1.0  0.60506  0.26813  0.46625  1.0000
  H   H590      1.0  0.73189  0.19343  0.44636  1.0000
  C   C748      1.0  0.50853  0.18842  0.07107  1.0000
  C   C749      1.0  0.73917  0.27665  0.14029  1.0000
  C   C750      1.0  0.98904  0.21199  0.49543  1.0000
  H   H591      1.0  0.82570  0.24206  0.46799  1.0000
  C   C751      1.0  0.51689  0.28659  0.24405  1.0000
  C   C752      1.0  0.59354  0.10228  0.39007  1.0000
  C   C753      1.0  0.53298  0.30877  0.24703  1.0000
  Fe  Fe54      1.0  0.54313  0.30784  0.31383  1.0000
  C   C754      1.0  0.52622  0.07296  0.04934  1.0000
  C   C755      1.0  0.59773  0.21587  0.01987  1.0000
  C   C756      1.0  0.67977  0.26108  0.36631  1.0000
  C   C757      1.0  0.58474  0.02660  0.49390  1.0000
  C   C758      1.0  0.61822  0.11959  0.40036  1.0000
  C   C759      1.0  0.66173  0.11990  0.39694  1.0000
  C   C760      1.0  0.68102  0.10298  0.38324  1.0000
  C   C761      1.0  0.65678  0.08578  0.37283  1.0000
  C   C762      1.0  0.61323  0.08541  0.37617  1.0000
  C   C763      1.0  0.53742  0.32304  0.22698  1.0000
  H   H592      1.0  0.70654  0.32632  0.09811  1.0000
  C   C764      1.0  0.84812  0.07069  0.47342  1.0000
  C   C765      1.0  0.55595  0.21488  0.02793  1.0000
  C   C766      1.0  0.53935  0.22322  0.49082  1.0000
  P   P25       1.0  0.72270  0.26999  0.40848  1.0000
  H   H593      1.0  0.77301  0.23670  0.38235  1.0000
  H   H594      1.0  0.53308  0.02517  0.45487  1.0000
  H   H595      1.0  0.56114  0.15368  0.05178  1.0000
  C   C767      1.0  0.77568  0.29926  0.38234  1.0000
  H   H596      1.0  0.81239  0.32326  0.36152  1.0000
  C   C768      1.0  0.65545  0.30048  0.41309  1.0000
  C   C769      1.0  0.82148  0.06810  0.43327  1.0000
  C   C770      1.0  0.50829  0.21549  0.47537  1.0000
  H   H597      1.0  0.70128  0.22696  0.31903  1.0000
  H   H598      1.0  0.68063  0.13308  0.40518  1.0000
  H   H599      1.0  0.71490  0.10278  0.38126  1.0000
  H   H600      1.0  0.67189  0.07230  0.36274  1.0000
  H   H601      1.0  0.59558  0.07169  0.36810  1.0000
  H   H602      1.0  0.77389  0.28700  0.36808  1.0000
  P   P26       1.0  0.53706  0.10272  0.39401  1.0000
  H   H603      1.0  0.80974  0.05787  0.41875  1.0000
  H   H604      1.0  0.61149  0.20163  0.01036  1.0000
  C   C771      1.0  0.66582  0.03587  0.47733  1.0000
  H   H605      1.0  0.68093  0.29292  0.30971  1.0000
  H   H606      1.0  0.64764  0.25422  0.33357  1.0000
  C   C772      1.0  0.71470  0.25592  0.38045  1.0000
  C   C773      1.0  0.74613  0.21034  0.44493  1.0000
  H   H607      1.0  0.76401  0.21817  0.34355  1.0000
  H   H608      1.0  0.64492  0.32724  0.29376  1.0000
  C   C774      1.0  0.85001  0.32474  0.13542  1.0000
  C   C775      1.0  0.65521  0.26837  0.44061  1.0000
  C   C776      1.0  0.53904  0.23378  0.04003  1.0000
  C   C777      1.0  0.56336  0.25339  0.04398  1.0000
  C   C778      1.0  0.71640  0.31295  0.11031  1.0000
  H   H609      1.0  0.54967  0.26799  0.05310  1.0000
  C   C779      1.0  0.49978  0.07179  0.02949  1.0000
  C   C780      1.0  0.74539  0.24063  0.37191  1.0000
  C   C781      1.0  0.52558  0.09234  0.06393  1.0000
  C   C782      1.0  0.74266  0.30413  0.29914  1.0000
  C   C783      1.0  0.61971  0.30940  0.42421  1.0000
  C   C784      1.0  0.55017  0.09331  0.44199  1.0000
  H   H610      1.0  0.88344  0.33310  0.07857  1.0000
  H   H611      1.0  0.75822  0.28906  0.30634  1.0000
  C   C785      1.0  0.53808  0.08587  0.46459  1.0000
  C   C786      1.0  0.80864  0.27953  0.02659  1.0000
  C   C787      1.0  0.78100  0.21584  0.45875  1.0000
  C   C788      1.0  0.83388  0.10540  0.45064  1.0000
  H   H612      1.0  0.65554  0.27269  0.37244  1.0000
  C   C789      1.0  0.60495  0.25425  0.03603  1.0000
  H   H613      1.0  0.79412  0.20303  0.47071  1.0000
  H   H614      1.0  0.98739  0.21262  0.47634  1.0000
  C   C790      1.0  0.88140  0.02851  0.49665  1.0000
  C   C791      1.0  0.62214  0.23550  0.02399  1.0000
  C   C792      1.0  0.59558  0.13187  0.02823  1.0000
  H   H615      1.0  0.82197  0.32186  0.14589  1.0000
  H   H616      1.0  0.69696  0.03977  0.47053  1.0000
  C   C793      1.0  0.90844  0.02399  0.47756  1.0000
  H   H617      1.0  0.67881  0.00634  0.38262  1.0000
  S   S107      1.0  0.82351  0.15147  0.49341  1.0000
  H   H618      1.0  0.51182  0.27959  0.49400  1.0000
  S   S108      1.0  0.83677  0.33270  0.00623  1.0000
  S   S109      1.0  0.50255  0.28169  0.33251  1.0000
  H   H619      1.0  0.64043  0.31205  0.00299  1.0000
  C   C794      1.0  0.69909  0.30637  0.30119  1.0000
  H   H620      1.0  0.55985  0.08727  0.47924  1.0000
  C   C795      1.0  0.52186  0.13265  0.39133  1.0000
  H   H621      1.0  0.61896  0.32112  0.20312  1.0000
  H   H622      1.0  0.54709  0.05886  0.05374  1.0000
  P   P27       1.0  0.79872  0.32170  0.09534  1.0000
  H   H623      1.0  0.58121  0.10034  0.43945  1.0000
  H   H624      1.0  0.87025  0.26966  0.03855  1.0000
  C   C796      1.0  0.51539  0.02193  0.02863  1.0000
  C   C797      1.0  0.54743  0.00686  0.02132  1.0000
  C   C798      1.0  0.69694  0.28302  0.13824  1.0000
  H   H625      1.0  0.57399  0.30473  0.45197  1.0000
  S   S110      1.0  0.54878  0.31965  0.27505  1.0000
  C   C799      1.0  0.68557  0.30104  0.12311  1.0000
  C   C800      1.0  0.79870  0.23784  0.45722  1.0000
  C   C801      1.0  0.79762  0.31981  0.37849  1.0000
  C   C802      1.0  0.67373  0.27990  0.42128  1.0000
  C   C803      1.0  0.65035  0.32250  0.01773  1.0000
  C   C804      1.0  0.80324  0.30494  0.06863  1.0000
  H   H626      1.0  0.66824  0.25256  0.44755  1.0000
  C   C805      1.0  0.75758  0.31189  0.42188  1.0000
  C   C806      1.0  0.67529  0.25073  0.34415  1.0000
  H   H627      1.0  0.60615  0.32542  0.41794  1.0000
  H   H628      1.0  0.74781  0.26228  0.15159  1.0000
  C   C807      1.0  0.84195  0.27923  0.04267  1.0000
  C   C808      1.0  0.61919  0.27723  0.45148  1.0000
  H   H629      1.0  0.80248  0.28289  0.12865  1.0000
  H   H630      1.0  0.74148  0.30930  0.43860  1.0000
  H   H631      1.0  0.81140  0.27050  0.00992  1.0000
  C   C809      1.0  0.50628  0.18024  0.38932  1.0000
  H   H632      1.0  0.65434  0.23626  0.01777  1.0000
  C   C810      1.0  0.52219  0.09194  0.42295  1.0000
  H   H633      1.0  0.83252  0.12402  0.44954  1.0000
  C   C811      1.0  0.77009  0.28851  0.12745  1.0000
  C   C812      1.0  0.76947  0.30455  0.05272  1.0000
  C   C813      1.0  0.60774  0.12775  0.00486  1.0000
  C   C814      1.0  0.51023  0.26175  0.48875  1.0000
  C   C815      1.0  0.78140  0.25441  0.44197  1.0000
  C   C816      1.0  0.55570  0.16538  0.01543  1.0000
  H   H634      1.0  0.91722  0.03760  0.46532  1.0000
  P   P28       1.0  0.52337  0.19003  0.02231  1.0000
  H   H635      1.0  0.60605  0.12047  0.04227  1.0000
  H   H636      1.0  0.51314  0.27538  0.25926  1.0000
  C   C817      1.0  0.62604  0.32266  0.03873  1.0000
  C   C818      1.0  0.51217  0.08493  0.37197  1.0000
  H   H637      1.0  0.50678  0.23343  0.04619  1.0000
  H   H638      1.0  0.54454  0.18029  0.35790  1.0000
  C   C819      1.0  0.74061  0.23023  0.34984  1.0000
  C   C820      1.0  0.51489  0.06086  0.37393  1.0000
  C   C821      1.0  0.49914  0.11084  0.05859  1.0000
  C   C822      1.0  0.51138  0.29294  0.20109  1.0000
  H   H639      1.0  0.60394  0.13286  0.41114  1.0000
  C   C823      1.0  0.50638  0.27872  0.22119  1.0000
  H   H640      1.0  0.70181  0.22219  0.41904  1.0000
  C   C824      1.0  0.82124  0.09208  0.43145  1.0000
  C   C825      1.0  0.53074  0.16982  0.37186  1.0000
  H   H641      1.0  0.59774  0.31242  0.04004  1.0000
  H   H642      1.0  0.85512  0.10534  0.48662  1.0000
  C   C826      1.0  0.70547  0.23524  0.33598  1.0000
  S   S111      1.0  0.73663  0.10027  0.49222  1.0000
  H   H643      1.0  0.67285  0.27374  0.14800  1.0000
  C   C827      1.0  0.84811  0.32539  0.11057  1.0000
  C   C828      1.0  0.72908  0.22673  0.42950  1.0000
  C   C829      1.0  0.64567  0.05146  0.49226  1.0000
  C   C830      1.0  0.52650  0.31529  0.20419  1.0000
  C   C831      1.0  0.92442  0.00183  0.47415  1.0000
  S   S112      1.0  0.49916  0.28182  0.17259  1.0000
  C   C832      1.0  0.67884  0.32595  0.29225  1.0000
  H   H644      1.0  0.54526  0.09288  0.07953  1.0000
  H   H645      1.0  0.80971  0.10032  0.41549  1.0000
  H   H646      1.0  0.65269  0.30558  0.12092  1.0000
  C   C833      1.0  0.83428  0.05741  0.45428  1.0000
  C   C834      1.0  0.75530  0.29517  0.40407  1.0000
  H   H647      1.0  0.53117  0.05292  0.38865  1.0000
  H   H648      1.0  0.62776  0.11320  0.00082  1.0000
  H   H649      1.0  0.53835  0.19714  0.07306  1.0000
  H   H650      1.0  0.79980  0.31951  0.28599  1.0000
  C   C835      1.0  0.75910  0.30730  0.11299  1.0000
  C   C836      1.0  0.74630  0.24897  0.42808  1.0000
  H   H651      1.0  0.56366  0.00940  0.00471  1.0000
  H   H652      1.0  0.86503  0.29086  0.07609  1.0000
  P   P29       1.0  0.50029  0.04660  0.01078  1.0000
  H   H653      1.0  0.93023  0.08673  0.48342  1.0000
  H   H654      1.0  0.74107  0.31411  0.05645  1.0000
  C   C837      1.0  0.84682  0.09476  0.47164  1.0000
  C   C838      1.0  0.64549  0.01558  0.47063  1.0000
  C   C839      1.0  0.83913  0.29166  0.06378  1.0000
  C   C840      1.0  0.77222  0.29200  0.03174  1.0000
  Fe  Fe55      1.0  0.75726  0.13688  0.48721  1.0000
  C   C841      1.0  0.77939  0.33246  0.41789  1.0000
  C   C842      1.0  0.76603  0.32126  0.28768  1.0000
  Fe  Fe56      1.0  0.54536  0.32204  0.09517  1.0000
  H   H655      1.0  0.53031  0.32649  0.18897  1.0000
  H   H656      1.0  0.50139  0.25605  0.42419  1.0000
  H   H657      1.0  0.88971  0.32759  0.16617  1.0000
  C   C843      1.0  0.60485  0.01068  0.47908  1.0000
  H   H658      1.0  0.50818  0.19765  0.46988  1.0000
  C   C844      1.0  0.53862  0.14615  0.37286  1.0000
  C   C845      1.0  0.88828  0.32824  0.14702  1.0000
  H   H659      1.0  0.66160  0.00404  0.45872  1.0000
  H   H660      1.0  0.68397  0.33201  0.34536  1.0000
  H   H661      1.0  0.50127  0.19870  0.38879  1.0000
  C   C846      1.0  0.88452  0.33106  0.09766  1.0000
  H   H662      1.0  0.56318  0.21134  0.49720  1.0000
  C   C847      1.0  0.54008  0.24628  0.49768  1.0000
  H   H663      1.0  0.50202  0.02823  0.35763  1.0000
  H   H664      1.0  0.66140  0.06719  0.49738  1.0000
  C   C848      1.0  0.92468  0.33284  0.13394  1.0000
  H   H665      1.0  0.62703  0.33233  0.24493  1.0000
  Fe  Fe57      1.0  0.59814  0.04076  0.81173  1.0000
  S   S113      1.0  0.59483  0.07525  0.82998  1.0000
  S   S114      1.0  0.59734  0.03440  0.77123  1.0000
  Fe  Fe58      1.0  0.60758  0.01415  0.85976  1.0000
  S   S115      1.0  0.60411  0.04680  0.88076  1.0000
  Fe  Fe59      1.0  0.55217  0.05737  0.85630  1.0000
  Fe  Fe60      1.0  0.64794  0.06236  0.85315  1.0000
  S   S116      1.0  0.70147  0.08439  0.86897  1.0000
  S   S117      1.0  0.55258  0.02387  0.83669  1.0000
  S   S118      1.0  0.65425  0.02867  0.83351  1.0000
  C   C849      1.0  0.84086  0.06307  0.85365  1.0000
  H   H666      1.0  0.71949  0.02887  0.52118  1.0000
  H   H667      1.0  0.76707  0.28800  0.88887  1.0000
  C   C850      1.0  0.80140  0.05271  0.85581  1.0000
  Fe  Fe61      1.0  0.92932  0.15294  0.84499  1.0000
  S   S119      1.0  0.94369  0.18729  0.82790  1.0000
  S   S120      1.0  0.86869  0.13542  0.83148  1.0000
  H   H668      1.0  0.92228  0.20643  0.49926  1.0000
  H   H669      1.0  0.64019  0.08794  0.78092  1.0000
  Fe  Fe62      1.0  0.96714  0.19840  0.86367  1.0000
  S   S121      1.0  0.95308  0.23572  0.87429  1.0000
  C   C851      1.0  0.94384  0.19798  0.75839  1.0000
  C   C852      1.0  0.74386  0.04118  0.52536  1.0000
  S   S122      1.0  0.94906  0.16492  0.88130  1.0000
  Fe  Fe63      1.0  0.67619  0.11487  0.50657  1.0000
  S   S123      1.0  0.89431  0.28784  0.96838  1.0000
  H   H670      1.0  0.51992  0.10688  0.94294  1.0000
  C   C853      1.0  0.76020  0.08483  0.76904  1.0000
  S   S124      1.0  0.65338  0.09787  0.54065  1.0000
  H   H671      1.0  0.82839  0.08737  0.53852  1.0000
  C   C854      1.0  0.79771  0.04860  0.81309  1.0000
  C   C855      1.0  0.93708  0.24957  0.90089  1.0000
  C   C856      1.0  0.93294  0.23786  0.92248  1.0000
  C   C857      1.0  0.92023  0.24984  0.94299  1.0000
  C   C858      1.0  0.91125  0.27358  0.94217  1.0000
  C   C859      1.0  0.91566  0.28525  0.92063  1.0000
  C   C860      1.0  0.92852  0.27333  0.90016  1.0000
  H   H672      1.0  0.93979  0.21966  0.92340  1.0000
  H   H673      1.0  0.91719  0.24063  0.95958  1.0000
  H   H674      1.0  0.90947  0.30353  0.91980  1.0000
  H   H675      1.0  0.93201  0.28262  0.88363  1.0000
  C   C861      1.0  0.91627  0.14118  0.55568  1.0000
  C   C862      1.0  0.92882  0.15220  0.53476  1.0000
  C   C863      1.0  0.90017  0.15494  0.51587  1.0000
  C   C864      1.0  0.85854  0.14687  0.51763  1.0000
  C   C865      1.0  0.84606  0.13568  0.53848  1.0000
  C   C866      1.0  0.87484  0.13270  0.55727  1.0000
  H   H676      1.0  0.96082  0.15825  0.53298  1.0000
  C   C867      1.0  0.50641  0.08948  0.91018  1.0000
  H   H677      1.0  0.81413  0.12949  0.54017  1.0000
  H   H678      1.0  0.86488  0.12388  0.57323  1.0000
  C   C868      1.0  0.57211  0.12818  0.62792  1.0000
  C   C869      1.0  0.79534  0.03814  0.73981  1.0000
  C   C870      1.0  0.56016  0.07150  0.98462  1.0000
  H   H679      1.0  0.75429  0.11963  0.75609  1.0000
  C   C871      1.0  0.87195  0.01081  0.51282  1.0000
  H   H680      1.0  0.54208  0.05706  0.58393  1.0000
  C   C872      1.0  0.74653  0.09972  0.85808  1.0000
  C   C873      1.0  0.77552  0.10883  0.87439  1.0000
  C   C874      1.0  0.81262  0.12012  0.86673  1.0000
  C   C875      1.0  0.82134  0.12249  0.84253  1.0000
  C   C876      1.0  0.79184  0.11389  0.82624  1.0000
  C   C877      1.0  0.75477  0.10263  0.83390  1.0000
  H   H681      1.0  0.76967  0.10671  0.89313  1.0000
  H   H682      1.0  0.83476  0.12661  0.87954  1.0000
  H   H683      1.0  0.79805  0.11564  0.80750  1.0000
  H   H684      1.0  0.73286  0.09591  0.82113  1.0000
  C   C878      1.0  0.53751  0.03539  0.96773  1.0000
  H   H685      1.0  0.51621  0.05928  0.76673  1.0000
  C   C879      1.0  0.56737  0.10052  0.53320  1.0000
  C   C880      1.0  0.60020  0.09091  0.54635  1.0000
  C   C881      1.0  0.59079  0.07508  0.56448  1.0000
  H   H686      1.0  0.54154  0.01033  0.64957  1.0000
  H   H687      1.0  0.83473  0.25033  0.93251  1.0000
  H   H688      1.0  0.57424  0.11271  0.51917  1.0000
  H   H689      1.0  0.91042  0.16325  0.49970  1.0000
  H   H690      1.0  0.54955  0.05111  0.66022  1.0000
  C   C882      1.0  0.53660  0.02698  0.70771  1.0000
  C   C883      1.0  0.55812  0.03638  0.74842  1.0000
  C   C884      1.0  0.54891  0.06922  0.56987  1.0000
  C   C885      1.0  0.91224  0.18727  0.74537  1.0000
  H   H691      1.0  0.78110  0.16539  0.94001  1.0000
  H   H692      1.0  0.78106  0.23707  0.66629  1.0000
  H   H693      1.0  0.53911  0.08687  0.90562  1.0000
  C   C886      1.0  0.50106  0.04115  0.70947  1.0000
  H   H694      1.0  0.92440  0.20499  0.54310  1.0000
  C   C887      1.0  0.74093  0.27592  0.94358  1.0000
  H   H695      1.0  0.60070  0.13629  0.63402  1.0000
  H   H696      1.0  0.70920  0.22524  0.91980  1.0000
  H   H697      1.0  0.76653  0.04711  0.73539  1.0000
  P   P30       1.0  0.76909  0.04039  0.78689  1.0000
  H   H698      1.0  0.80538  0.28595  0.94903  1.0000
  H   H699      1.0  0.86801  0.22277  0.82177  1.0000
  C   C888      1.0  0.82298  0.03189  0.72165  1.0000
  C   C889      1.0  0.85854  0.06658  0.83127  1.0000
  C   C890      1.0  0.56360  0.03921  0.94814  1.0000
  C   C891      1.0  0.69597  0.06718  0.78328  1.0000
  H   H700      1.0  0.72822  0.29165  0.95107  1.0000
  H   H701      1.0  0.79390  0.08444  0.76627  1.0000
  C   C892      1.0  0.95193  0.20864  0.50836  1.0000
  H   H702      1.0  0.69425  0.02266  0.76271  1.0000
  Fe  Fe64      1.0  0.86983  0.32492  0.97174  1.0000
  S   S125      1.0  0.69883  0.15145  0.50380  1.0000
  H   H703      1.0  0.56421  0.25221  0.50968  1.0000
  H   H704      1.0  0.78668  0.05109  0.87307  1.0000
  C   C893      1.0  0.73787  0.10483  0.76330  1.0000
  H   H705      1.0  0.92466  0.26346  0.68690  1.0000
  C   C894      1.0  0.90968  0.06984  0.54022  1.0000
  H   H706      1.0  0.56469  0.02686  0.93385  1.0000
  H   H707      1.0  0.58951  0.05884  0.51205  1.0000
  C   C895      1.0  0.52848  0.09441  0.62295  1.0000
  C   C896      1.0  0.59416  0.14243  0.98675  1.0000
  C   C897      1.0  0.99484  0.26342  0.98336  1.0000
  C   C898      1.0  0.59212  0.01072  0.62413  1.0000
  C   C899      1.0  0.69454  0.10592  0.76734  1.0000
  C   C900      1.0  0.51601  0.07913  0.55700  1.0000
  C   C901      1.0  0.84556  0.22693  0.67158  1.0000
  H   H708      1.0  0.85249  0.01410  0.52818  1.0000
  C   C902      1.0  0.92775  0.14685  0.65764  1.0000
  C   C903      1.0  0.90958  0.14820  0.63522  1.0000
  C   C904      1.0  0.89674  0.16948  0.62614  1.0000
  C   C905      1.0  0.90166  0.18941  0.63963  1.0000
  C   C906      1.0  0.91868  0.18806  0.66251  1.0000
  C   C907      1.0  0.93251  0.16670  0.67119  1.0000
  P   P31       1.0  0.92919  0.21400  0.67882  1.0000
  C   C908      1.0  0.88648  0.23431  0.67684  1.0000
  C   C909      1.0  0.93481  0.20797  0.71004  1.0000
  C   C910      1.0  0.90744  0.19239  0.72131  1.0000
  H   H709      1.0  0.88819  0.07565  0.82959  1.0000
  H   H710      1.0  0.89198  0.17473  0.75391  1.0000
  C   C911      1.0  0.71404  0.25876  0.93524  1.0000
  C   C912      1.0  0.94292  0.08108  0.55142  1.0000
  H   H711      1.0  0.55344  0.02330  0.50065  1.0000
  S   S126      1.0  0.95145  0.13630  0.57977  1.0000
  C   C913      1.0  0.82002  0.26606  0.67513  1.0000
  C   C914      1.0  0.86048  0.27341  0.68098  1.0000
  C   C915      1.0  0.89356  0.25758  0.68202  1.0000
  C   C916      1.0  0.77955  0.04589  0.83561  1.0000
  C   C917      1.0  0.73659  0.01530  0.79183  1.0000
  H   H712      1.0  0.99335  0.13587  0.72123  1.0000
  H   H713      1.0  0.79441  0.27834  0.67434  1.0000
  H   H714      1.0  0.93994  0.13060  0.66416  1.0000
  H   H715      1.0  0.90714  0.13291  0.62444  1.0000
  H   H716      1.0  0.88476  0.17055  0.60822  1.0000
  H   H717      1.0  0.89339  0.20589  0.63193  1.0000
  H   H718      1.0  0.94855  0.16537  0.68801  1.0000
  H   H719      1.0  0.88292  0.18390  0.71140  1.0000
  H   H720      1.0  0.60435  0.09097  0.96352  1.0000
  C   C918      1.0  0.56499  0.02485  0.72687  1.0000
  H   H721      1.0  0.55857  0.17260  0.97777  1.0000
  H   H722      1.0  0.99654  0.14761  0.76344  1.0000
  C   C919      1.0  0.82490  0.30718  0.88882  1.0000
  H   H723      1.0  0.84083  0.18429  0.83330  1.0000
  H   H724      1.0  0.98583  0.29994  0.97924  1.0000
  H   H725      1.0  0.86624  0.29139  0.68480  1.0000
  C   C920      1.0  0.90396  0.07222  0.51569  1.0000
  S   S127      1.0  0.99374  0.13867  0.83595  1.0000
  H   H726      1.0  0.83530  0.24907  0.88987  1.0000
  C   C921      1.0  0.96560  0.21922  0.72348  1.0000
  H   H727      1.0  0.52261  0.07618  0.62493  1.0000
  C   C922      1.0  0.58610  0.07532  0.96494  1.0000
  C   C923      1.0  0.99118  0.21063  0.54488  1.0000
  H   H728      1.0  0.72217  0.32240  0.88423  1.0000
  C   C924      1.0  0.56612  0.10436  0.63077  1.0000
  H   H729      1.0  0.88833  0.05947  0.55073  1.0000
  C   C925      1.0  0.52209  0.05014  0.75044  1.0000
  C   C926      1.0  0.83706  0.05943  0.81104  1.0000
  C   C927      1.0  0.73656  0.05785  0.54260  1.0000
  C   C928      1.0  0.95302  0.20794  0.53308  1.0000
  H   H730      1.0  0.92671  0.17664  0.97454  1.0000
  C   C929      1.0  0.52545  0.09458  0.53848  1.0000
  H   H731      1.0  0.81112  0.17785  0.87287  1.0000
  C   C930      1.0  0.80483  0.03268  0.76344  1.0000
  H   H732      1.0  0.68032  0.26121  0.93625  1.0000
  H   H733      1.0  0.54243  0.01772  0.69156  1.0000
  H   H734      1.0  0.92403  0.16382  0.93282  1.0000
  H   H735      1.0  0.74802  0.03917  0.83762  1.0000
  H   H736      1.0  0.86862  0.17796  0.90622  1.0000
  H   H737      1.0  0.83900  0.20894  0.66844  1.0000
  H   H738      1.0  0.67724  0.12146  0.76309  1.0000
  H   H739      1.0  0.96777  0.26143  0.99487  1.0000
  C   C931      1.0  0.62328  0.02400  0.61319  1.0000
  H   H740      1.0  0.59263  0.01418  0.72492  1.0000
  C   C932      1.0  0.81352  0.05700  0.51820  1.0000
  C   C933      1.0  0.58789  0.05917  0.94676  1.0000
  H   H741      1.0  0.81470  0.21639  0.96401  1.0000
  C   C934      1.0  0.97669  0.24284  0.64926  1.0000
  H   H742      1.0  0.76086  0.08779  0.56009  1.0000
  H   H743      1.0  0.86563  0.25485  0.85037  1.0000
  C   C935      1.0  0.62828  0.04713  0.61931  1.0000
  C   C936      1.0  0.60174  0.05720  0.63625  1.0000
  C   C937      1.0  0.57062  0.04369  0.64719  1.0000
  P   P32       1.0  0.60705  0.08712  0.64419  1.0000
  C   C938      1.0  0.60358  0.08832  0.67610  1.0000
  C   C939      1.0  0.65699  0.09803  0.63355  1.0000
  C   C940      1.0  0.66130  0.10432  0.60960  1.0000
  C   C941      1.0  0.69967  0.11248  0.60088  1.0000
  C   C942      1.0  0.73410  0.11456  0.61600  1.0000
  C   C943      1.0  0.73010  0.10848  0.63989  1.0000
  C   C944      1.0  0.69170  0.10024  0.64868  1.0000
  C   C945      1.0  0.62626  0.07249  0.68998  1.0000
  C   C946      1.0  0.62215  0.07246  0.71463  1.0000
  C   C947      1.0  0.59481  0.08792  0.72558  1.0000
  C   C948      1.0  0.57188  0.10360  0.71193  1.0000
  C   C949      1.0  0.57625  0.10387  0.68728  1.0000
  H   H744      1.0  0.64345  0.01643  0.59988  1.0000
  C   C950      1.0  0.78204  0.04087  0.51303  1.0000
  C   C951      1.0  0.78127  0.30489  0.88745  1.0000
  H   H745      1.0  0.67919  0.05318  0.79161  1.0000
  H   H746      1.0  0.84445  0.29209  0.89116  1.0000
  H   H747      1.0  0.94732  0.25001  0.64304  1.0000
  H   H748      1.0  0.94856  0.19351  0.77682  1.0000
  C   C952      1.0  0.80559  0.07399  0.53518  1.0000
  H   H749      1.0  0.98798  0.10688  0.50357  1.0000
  H   H750      1.0  0.65271  0.05701  0.61066  1.0000
  C   C953      1.0  0.76731  0.07432  0.54742  1.0000
  H   H751      1.0  0.63497  0.10292  0.59756  1.0000
  H   H752      1.0  0.70250  0.11722  0.58233  1.0000
  H   H753      1.0  0.76380  0.12096  0.60919  1.0000
  H   H754      1.0  0.75679  0.11021  0.65161  1.0000
  H   H755      1.0  0.68935  0.09575  0.66721  1.0000
  H   H756      1.0  0.64642  0.05984  0.68172  1.0000
  H   H757      1.0  0.63881  0.05987  0.72531  1.0000
  H   H758      1.0  0.59040  0.08719  0.74460  1.0000
  H   H759      1.0  0.54981  0.11511  0.72042  1.0000
  H   H760      1.0  0.55734  0.11577  0.67707  1.0000
  C   C954      1.0  0.73930  0.06570  0.77877  1.0000
  C   C955      1.0  0.67366  0.08710  0.77737  1.0000
  H   H761      1.0  0.70656  0.05848  0.55173  1.0000
  H   H762      1.0  0.85077  0.06295  0.79385  1.0000
  C   C956      1.0  0.81253  0.24281  0.67055  1.0000
  H   H763      1.0  0.50014  0.10226  0.52841  1.0000
  H   H764      1.0  0.61610  0.06723  0.57429  1.0000
  H   H765      1.0  0.99218  0.21012  0.56406  1.0000
  C   C957      1.0  0.73223  0.14789  0.92137  1.0000
  C   C958      1.0  0.70428  0.14849  0.90235  1.0000
  C   C959      1.0  0.70230  0.16797  0.88780  1.0000
  C   C960      1.0  0.72888  0.18669  0.89194  1.0000
  C   C961      1.0  0.75799  0.18595  0.91060  1.0000
  C   C962      1.0  0.75894  0.16655  0.92556  1.0000
  P   P33       1.0  0.79663  0.20861  0.91341  1.0000
  C   C963      1.0  0.81924  0.21325  0.88432  1.0000
  C   C964      1.0  0.77430  0.23507  0.92474  1.0000
  C   C965      1.0  0.80096  0.25250  0.93305  1.0000
  C   C966      1.0  0.78439  0.27275  0.94245  1.0000
  H   H766      1.0  0.60777  0.06227  0.93146  1.0000
  C   C967      1.0  0.56604  0.02053  0.64122  1.0000
  C   C968      1.0  0.73059  0.23837  0.92588  1.0000
  C   C969      1.0  0.83500  0.23491  0.87765  1.0000
  C   C970      1.0  0.85205  0.23835  0.85508  1.0000
  C   C971      1.0  0.85373  0.22022  0.83901  1.0000
  C   C972      1.0  0.83857  0.19854  0.84554  1.0000
  C   C973      1.0  0.82167  0.19500  0.86811  1.0000
  C   C974      1.0  0.83809  0.19882  0.93284  1.0000
  C   C975      1.0  0.86892  0.18364  0.92441  1.0000
  C   C976      1.0  0.90047  0.17555  0.93949  1.0000
  C   C977      1.0  0.90176  0.18265  0.96304  1.0000
  C   C978      1.0  0.87077  0.19742  0.97172  1.0000
  C   C979      1.0  0.83875  0.20528  0.95678  1.0000
  H   H767      1.0  0.73405  0.13262  0.93242  1.0000
  H   H768      1.0  0.68477  0.13363  0.89856  1.0000
  H   H769      1.0  0.68097  0.16824  0.87287  1.0000
  H   H770      1.0  0.72796  0.20134  0.88001  1.0000
  H   H771      1.0  0.85693  0.06928  0.86924  1.0000
  H   H772      1.0  0.87160  0.20287  0.99001  1.0000
  H   H773      1.0  0.94654  0.07997  0.57046  1.0000
  C   C980      1.0  0.96626  0.09638  0.51372  1.0000
  C   C981      1.0  0.97114  0.09436  0.53819  1.0000
  H   H774      1.0  0.51842  0.02004  0.96849  1.0000
  H   H775      1.0  0.60342  0.13923  0.96859  1.0000
  C   C982      1.0  0.53580  0.05139  0.98621  1.0000
  C   C983      1.0  0.97024  0.21407  0.74752  1.0000
  C   C984      1.0  0.93307  0.08517  0.50244  1.0000
  H   H776      1.0  0.99631  0.10347  0.54703  1.0000
  C   C985      1.0  0.97727  0.22525  0.66640  1.0000
  H   H777      1.0  0.98647  0.23173  0.71546  1.0000
  H   H778      1.0  0.87699  0.33088  0.88946  1.0000
  H   H779      1.0  0.84876  0.01527  0.78663  1.0000
  C   C986      1.0  0.86910  0.01399  0.75038  1.0000
  C   C987      1.0  0.70219  0.01093  0.77699  1.0000
  C   C988      1.0  0.75597  0.32442  0.88474  1.0000
  C   C989      1.0  0.56851  0.16129  0.99201  1.0000
  H   H780      1.0  0.81568  0.03626  0.70346  1.0000
  C   C990      1.0  0.84324  0.32899  0.88773  1.0000
  C   C991      1.0  0.54140  0.14170  0.61690  1.0000
  C   C992      1.0  0.50436  0.13158  0.60882  1.0000
  C   C993      1.0  0.84149  0.02019  0.76857  1.0000
  H   H781      1.0  0.99510  0.22204  0.75769  1.0000
  H   H782      1.0  0.54643  0.15998  0.61442  1.0000
  H   H783      1.0  0.88139  0.01512  0.71287  1.0000
  H   H784      1.0  0.89759  0.00455  0.75447  1.0000
  C   C994      1.0  0.85994  0.01992  0.72694  1.0000
  H   H785      1.0  0.77475  0.00126  0.82021  1.0000
  H   H786      1.0  0.78672  0.02832  0.49918  1.0000
  C   C995      1.0  0.60514  0.04681  0.50048  1.0000
  P   P34       1.0  0.86161  0.05723  0.50119  1.0000
  Fe  Fe65      1.0  0.75211  0.63241  0.48894  1.0000
  C   C996      1.0  0.73434  0.39627  0.29078  1.0000
  S   S128      1.0  0.88652  0.39055  0.03465  1.0000
  H   H787      1.0  0.81520  0.35140  0.05424  1.0000
  H   H788      1.0  0.84304  0.54626  0.33520  1.0000
  Fe  Fe66      1.0  0.83471  0.65011  0.46599  1.0000
  S   S129      1.0  0.77660  0.63330  0.45120  1.0000
  Fe  Fe67      1.0  0.80918  0.59938  0.45928  1.0000
  S   S130      1.0  0.80400  0.56479  0.43959  1.0000
  S   S131      1.0  0.86863  0.61624  0.47207  1.0000
  H   H789      1.0  0.91037  0.37211  0.20253  1.0000
  Fe  Fe68      1.0  0.94206  0.42375  0.36868  1.0000
  S   S132      1.0  0.95364  0.45199  0.34220  1.0000
  H   H790      1.0  0.98305  0.49852  0.47806  1.0000
  Fe  Fe69      1.0  0.85464  0.41285  0.34802  1.0000
  S   S133      1.0  0.86066  0.44161  0.32101  1.0000
  S   S134      1.0  0.80704  0.38321  0.34391  1.0000
  Fe  Fe70      1.0  0.92664  0.42855  0.31466  1.0000
  S   S135      1.0  0.94920  0.41667  0.27778  1.0000
  Fe  Fe71      1.0  0.88740  0.46292  0.35114  1.0000
  S   S136      1.0  0.88461  0.50195  0.35824  1.0000
  S   S137      1.0  0.91997  0.39940  0.34086  1.0000
  S   S138      1.0  0.87664  0.43510  0.37847  1.0000
  S   S139      1.0  0.62170  0.35327  0.37670  1.0000
  S   S140      1.0  0.99169  0.42226  0.39736  1.0000
  C   C997      1.0  0.75527  0.37559  0.35336  1.0000
  C   C998      1.0  0.73759  0.35498  0.34496  1.0000
  C   C999      1.0  0.69689  0.34795  0.35186  1.0000
  C   C1000     1.0  0.67314  0.36147  0.36730  1.0000
  C   C1001     1.0  0.69083  0.38202  0.37583  1.0000
  C   C1002     1.0  0.73156  0.38911  0.36884  1.0000
  C   C1003     1.0  0.66971  0.36049  0.23732  1.0000
  C   C1004     1.0  0.89847  0.54881  0.48144  1.0000
  H   H791      1.0  0.67284  0.39260  0.38786  1.0000
  H   H792      1.0  0.74460  0.40498  0.37551  1.0000
  H   H793      1.0  0.92541  0.66681  0.37843  1.0000
  C   C1005     1.0  0.70422  0.39450  0.27275  1.0000
  H   H794      1.0  0.98714  0.61632  0.44691  1.0000
  C   C1006     1.0  0.94080  0.44185  0.17688  1.0000
  C   C1007     1.0  0.93881  0.37279  0.19208  1.0000
  H   H795      1.0  0.85751  0.40741  0.25621  1.0000
  H   H796      1.0  0.96123  0.34054  0.20626  1.0000
  C   C1008     1.0  0.82971  0.54682  0.41843  1.0000
  C   C1009     1.0  0.86620  0.55349  0.40629  1.0000
  C   C1010     1.0  0.88311  0.53932  0.38837  1.0000
  C   C1011     1.0  0.86458  0.51801  0.38272  1.0000
  C   C1012     1.0  0.82929  0.51089  0.39563  1.0000
  C   C1013     1.0  0.81188  0.52527  0.41320  1.0000
  H   H797      1.0  0.88081  0.56977  0.41029  1.0000
  H   H798      1.0  0.91051  0.54502  0.37860  1.0000
  H   H799      1.0  0.81440  0.49469  0.39145  1.0000
  H   H800      1.0  0.78374  0.51985  0.42247  1.0000
  C   C1014     1.0  0.93349  0.38731  0.05096  1.0000
  C   C1015     1.0  0.94699  0.40551  0.06532  1.0000
  C   C1016     1.0  0.55125  0.38034  0.28119  1.0000
  C   C1017     1.0  0.97158  0.60154  0.41309  1.0000
  P   P35       1.0  0.91106  0.41537  0.17418  1.0000
  C   C1018     1.0  0.95608  0.36669  0.05104  1.0000
  H   H801      1.0  0.92979  0.42156  0.06527  1.0000
  H   H802      1.0  0.76310  0.41528  0.20245  1.0000
  H   H803      1.0  0.78013  0.34556  0.43143  1.0000
  H   H804      1.0  0.94597  0.35258  0.04003  1.0000
  C   C1019     1.0  0.88025  0.41086  0.22046  1.0000
  C   C1020     1.0  0.86991  0.41387  0.19647  1.0000
  C   C1021     1.0  0.75365  0.41734  0.29542  1.0000
  H   H805      1.0  0.81512  0.35267  0.39277  1.0000
  H   H806      1.0  0.90724  0.54235  0.31087  1.0000
  C   C1022     1.0  0.88384  0.45721  0.45300  1.0000
  C   C1023     1.0  0.99712  0.41074  0.23746  1.0000
  S   S141      1.0  0.52399  0.33616  0.33871  1.0000
  H   H807      1.0  0.93538  0.50399  0.40742  1.0000
  H   H808      1.0  0.74231  0.38165  0.30181  1.0000
  H   H809      1.0  0.75095  0.41360  0.07259  1.0000
  C   C1024     1.0  0.99447  0.35118  0.32921  1.0000
  C   C1025     1.0  0.99039  0.48169  0.18088  1.0000
  C   C1026     1.0  0.90875  0.63507  0.41089  1.0000
  C   C1027     1.0  0.93557  0.63400  0.43040  1.0000
  H   H810      1.0  0.71095  0.63274  0.39427  1.0000
  H   H811      1.0  0.97621  0.37549  0.30223  1.0000
  C   C1028     1.0  0.93106  0.57597  0.31978  1.0000
  C   C1029     1.0  0.92441  0.59591  0.33304  1.0000
  C   C1030     1.0  0.96762  0.56487  0.47435  1.0000
  H   H812      1.0  0.83049  0.58115  0.35823  1.0000
  C   C1031     1.0  0.80337  0.64515  0.36639  1.0000
  H   H813      1.0  0.98955  0.37288  0.38791  1.0000
  H   H814      1.0  0.99543  0.58827  0.41411  1.0000
  C   C1032     1.0  0.95693  0.50354  0.44354  1.0000
  C   C1033     1.0  0.58906  0.37540  0.26958  1.0000
  C   C1034     1.0  0.94485  0.45305  0.19875  1.0000
  H   H815      1.0  0.70466  0.37453  0.18192  1.0000
  C   C1035     1.0  0.79921  0.33646  0.39616  1.0000
  H   H816      1.0  0.92898  0.43930  0.47457  1.0000
  H   H817      1.0  0.95077  0.33869  0.09934  1.0000
  C   C1036     1.0  0.92477  0.56395  0.46907  1.0000
  H   H818      1.0  0.79444  0.39106  0.04451  1.0000
  H   H819      1.0  0.98711  0.47530  0.39392  1.0000
  H   H820      1.0  0.52090  0.34169  0.42809  1.0000
  H   H821      1.0  0.84618  0.41640  0.08028  1.0000
  H   H822      1.0  0.76430  0.35369  0.26935  1.0000
  C   C1037     1.0  0.85853  0.58026  0.34748  1.0000
  C   C1038     1.0  0.94727  0.39147  0.17686  1.0000
  C   C1039     1.0  0.88773  0.65008  0.32472  1.0000
  C   C1040     1.0  0.55066  0.38335  0.30570  1.0000
  C   C1041     1.0  0.98220  0.40297  0.08014  1.0000
  H   H823      1.0  0.84068  0.45128  0.10529  1.0000
  H   H824      1.0  0.74262  0.66159  0.36695  1.0000
  C   C1042     1.0  0.80666  0.41094  0.23123  1.0000
  C   C1043     1.0  0.96687  0.61721  0.43157  1.0000
  C   C1044     1.0  0.98434  0.55038  0.49174  1.0000
  C   C1045     1.0  0.98367  0.39094  0.16274  1.0000
  H   H825      1.0  0.89984  0.43013  0.00212  1.0000
  H   H826      1.0  0.93375  0.51592  0.44936  1.0000
  H   H827      1.0  0.50958  0.36523  0.46403  1.0000
  C   C1046     1.0  0.85789  0.47651  0.45099  1.0000
  C   C1047     1.0  0.85652  0.49275  0.46915  1.0000
  C   C1048     1.0  0.96738  0.35457  0.19404  1.0000
  C   C1049     1.0  0.98498  0.49367  0.45972  1.0000
  H   H828      1.0  0.75111  0.35675  0.12140  1.0000
  H   H829      1.0  0.72982  0.39641  0.11114  1.0000
  C   C1050     1.0  0.68744  0.33562  0.01575  1.0000
  C   C1051     1.0  0.76783  0.61293  0.39744  1.0000
  C   C1052     1.0  0.84886  0.40948  0.23773  1.0000
  H   H830      1.0  0.93012  0.44650  0.21459  1.0000
  C   C1053     1.0  0.91431  0.62006  0.39178  1.0000
  H   H831      1.0  0.78250  0.40982  0.24469  1.0000
  C   C1054     1.0  0.96943  0.47288  0.20066  1.0000
  H   H832      1.0  0.72732  0.35972  0.03334  1.0000
  H   H833      1.0  0.86533  0.54828  0.47700  1.0000
  H   H834      1.0  0.65691  0.34239  0.17148  1.0000
  H   H835      1.0  0.83937  0.47910  0.43512  1.0000
  C   C1055     1.0  0.85406  0.43562  0.11254  1.0000
  H   H836      1.0  0.93498  0.46200  0.02325  1.0000
  C   C1056     1.0  0.74585  0.34073  0.27849  1.0000
  C   C1057     1.0  0.88999  0.39537  0.13080  1.0000
  C   C1058     1.0  0.86962  0.43524  0.13567  1.0000
  C   C1059     1.0  0.82802  0.62687  0.37501  1.0000
  C   C1060     1.0  0.95783  0.49692  0.41985  1.0000
  C   C1061     1.0  0.78315  0.35075  0.08813  1.0000
  C   C1062     1.0  0.62642  0.37299  0.28256  1.0000
  C   C1063     1.0  0.90747  0.47042  0.49133  1.0000
  C   C1064     1.0  0.69238  0.41442  0.26022  1.0000
  C   C1065     1.0  0.71181  0.43550  0.26490  1.0000
  C   C1066     1.0  0.74259  0.43694  0.28244  1.0000
  P   P36       1.0  0.67611  0.36793  0.26808  1.0000
  H   H837      1.0  0.87143  0.63615  0.31600  1.0000
  H   H838      1.0  0.51939  0.38553  0.16891  1.0000
  P   P37       1.0  0.88201  0.62330  0.36565  1.0000
  C   C1067     1.0  0.79585  0.41393  0.20745  1.0000
  C   C1068     1.0  0.58786  0.38136  0.31866  1.0000
  C   C1069     1.0  0.62559  0.37622  0.30714  1.0000
  H   H839      1.0  0.71397  0.38560  0.22368  1.0000
  C   C1070     1.0  0.87436  0.39582  0.10770  1.0000
  H   H840      1.0  0.52225  0.38136  0.27127  1.0000
  H   H841      1.0  0.65415  0.37485  0.31743  1.0000
  C   C1071     1.0  0.85679  0.41597  0.09850  1.0000
  H   H842      1.0  0.95930  0.57417  0.30919  1.0000
  H   H843      1.0  0.66750  0.41371  0.24719  1.0000
  H   H844      1.0  0.70247  0.45084  0.25527  1.0000
  H   H845      1.0  0.75740  0.45328  0.28634  1.0000
  S   S142      1.0  0.78016  0.59758  0.49567  1.0000
  C   C1072     1.0  0.99121  0.36412  0.06593  1.0000
  H   H846      1.0  0.54964  0.34022  0.22910  1.0000
  H   H847      1.0  0.52901  0.38049  0.21226  1.0000
  C   C1073     1.0  0.88827  0.59813  0.34722  1.0000
  H   H848      1.0  0.58743  0.38344  0.33772  1.0000
  H   H849      1.0  0.68515  0.35989  0.07050  1.0000
  H   H850      1.0  0.86797  0.45072  0.14623  1.0000
  C   C1074     1.0  0.86533  0.56037  0.33422  1.0000
  C   C1075     1.0  0.69232  0.37194  0.21942  1.0000
  C   C1076     1.0  0.94561  0.60301  0.39318  1.0000
  C   C1077     1.0  0.81016  0.61118  0.39110  1.0000
  H   H851      1.0  0.81806  0.41757  0.17184  1.0000
  H   H852      1.0  0.83712  0.50796  0.46689  1.0000
  C   C1078     1.0  0.74346  0.63109  0.38876  1.0000
  H   H853      1.0  0.98783  0.57682  0.46501  1.0000
  H   H854      1.0  0.94790  0.60940  0.33263  1.0000
  C   C1079     1.0  0.67534  0.34933  0.05585  1.0000
  C   C1080     1.0  0.68753  0.36552  0.19573  1.0000
  H   H855      1.0  0.91268  0.40950  0.22594  1.0000
  C   C1081     1.0  0.98728  0.48081  0.41220  1.0000
  H   H856      1.0  0.90431  0.37974  0.13734  1.0000
  C   C1082     1.0  0.88819  0.41517  0.14489  1.0000
  C   C1083     1.0  0.96208  0.45091  0.15706  1.0000
  C   C1084     1.0  0.69941  0.34927  0.03483  1.0000
  H   H857      1.0  0.58876  0.37329  0.25060  1.0000
  H   H858      1.0  0.87704  0.38079  0.09653  1.0000
  H   H859      1.0  0.96547  0.34148  0.32818  1.0000
  C   C1085     1.0  0.64384  0.34187  0.23130  1.0000
  H   H860      1.0  0.91173  0.57486  0.45531  1.0000
  H   H861      1.0  0.77661  0.41849  0.30952  1.0000
  C   C1086     1.0  0.70227  0.34353  0.28133  1.0000
  H   H862      1.0  0.93155  0.64608  0.44478  1.0000
  H   H863      1.0  0.75426  0.60045  0.40962  1.0000
  C   C1087     1.0  0.98638  0.47085  0.15904  1.0000
  H   H864      1.0  0.95002  0.59072  0.37913  1.0000
  C   C1088     1.0  0.76026  0.36394  0.10444  1.0000
  C   C1089     1.0  0.74848  0.38651  0.09880  1.0000
  C   C1090     1.0  0.76033  0.39620  0.07709  1.0000
  C   C1091     1.0  0.78460  0.38348  0.06122  1.0000
  C   C1092     1.0  0.79614  0.36087  0.06673  1.0000
  H   H865      1.0  0.81637  0.65794  0.35447  1.0000
  H   H866      1.0  0.88541  0.44486  0.43870  1.0000
  C   C1093     1.0  0.90168  0.55812  0.32055  1.0000
  C   C1094     1.0  0.82728  0.41535  0.19010  1.0000
  C   C1095     1.0  0.66080  0.34736  0.18983  1.0000
  H   H867      1.0  0.82872  0.59736  0.39855  1.0000
  H   H868      1.0  0.98586  0.38922  0.45496  1.0000
  H   H869      1.0  0.95437  0.33568  0.14280  1.0000
  H   H870      1.0  0.88414  0.64792  0.41060  1.0000
  H   H871      1.0  0.52129  0.38683  0.31475  1.0000
  C   C1096     1.0  0.98911  0.42497  0.25709  1.0000
  H   H872      1.0  0.97345  0.48093  0.21775  1.0000
  C   C1097     1.0  0.76132  0.64729  0.37338  1.0000
  H   H873      1.0  0.75566  0.34431  0.33312  1.0000
  S   S143      1.0  0.61121  0.33567  0.08564  1.0000
  C   C1098     1.0  0.89835  0.64834  0.34879  1.0000
  C   C1099     1.0  0.88088  0.48966  0.48965  1.0000
  H   H874      1.0  0.99604  0.43062  0.44898  1.0000
  H   H875      1.0  0.96058  0.44244  0.14006  1.0000
  H   H876      1.0  0.96787  0.49390  0.00077  1.0000
  C   C1100     1.0  0.90847  0.45412  0.47321  1.0000
  H   H877      1.0  0.99176  0.41692  0.09151  1.0000
  H   H878      1.0  0.99057  0.40467  0.15030  1.0000
  S   S144      1.0  0.51496  0.33640  0.12821  1.0000
  C   C1101     1.0  0.63865  0.33594  0.05805  1.0000
  S   S145      1.0  0.68290  0.64206  0.49641  1.0000
  C   C1102     1.0  0.93398  0.46212  0.00407  1.0000
  H   H879      1.0  0.98073  0.39454  0.23595  1.0000
  Fe  Fe72      1.0  0.86673  0.36764  0.00415  1.0000
  C   C1103     1.0  0.49998  0.37513  0.20401  1.0000
  C   C1104     1.0  0.50378  0.33459  0.44307  1.0000
  C   C1105     1.0  0.63927  0.33542  0.20763  1.0000
  C   C1106     1.0  0.92269  0.33448  0.10933  1.0000
  H   H880      1.0  0.67696  0.61946  0.66415  1.0000
  H   H881      1.0  0.83274  0.36531  0.88511  1.0000
  Fe  Fe73      1.0  0.84972  0.37313  0.95151  1.0000
  S   S146      1.0  0.86855  0.39474  0.91898  1.0000
  H   H882      1.0  0.81365  0.43231  0.93544  1.0000
  S   S147      1.0  0.90484  0.35876  0.97191  1.0000
  H   H883      1.0  0.64945  0.63862  0.78989  1.0000
  Fe  Fe74      1.0  0.90776  0.52990  0.80265  1.0000
  S   S148      1.0  0.92084  0.56649  0.81258  1.0000
  S   S149      1.0  0.92937  0.51288  0.76802  1.0000
  Fe  Fe75      1.0  0.86862  0.51888  0.85195  1.0000
  S   S150      1.0  0.87993  0.55507  0.86468  1.0000
  S   S151      1.0  0.83430  0.49626  0.87930  1.0000
  Fe  Fe76      1.0  0.85566  0.56645  0.82903  1.0000
  S   S152      1.0  0.81389  0.59849  0.82422  1.0000
  Fe  Fe77      1.0  0.94315  0.55192  0.84736  1.0000
  H   H884      1.0  0.55412  0.59086  0.94045  1.0000
  S   S153      1.0  0.84096  0.53049  0.81692  1.0000
  S   S154      1.0  0.93345  0.51511  0.83673  1.0000
  C   C1107     1.0  0.67774  0.36799  0.94380  1.0000
  Fe  Fe78      1.0  0.57194  0.64575  0.85150  1.0000
  S   S155      1.0  0.61875  0.61564  0.84781  1.0000
  H   H885      1.0  0.55221  0.64873  0.54329  1.0000
  H   H886      1.0  0.76102  0.57716  0.78188  1.0000
  H   H887      1.0  0.81958  0.44981  0.83826  1.0000
  S   S156      1.0  0.86650  0.60419  0.54254  1.0000
  C   C1108     1.0  0.82837  0.54536  0.52909  1.0000
  C   C1109     1.0  0.60988  0.64549  0.52299  1.0000
  H   H888      1.0  0.74718  0.40994  0.95848  1.0000
  C   C1110     1.0  0.60448  0.64106  0.56588  1.0000
  H   H889      1.0  0.97214  0.52335  0.51665  1.0000
  C   C1111     1.0  0.95827  0.53492  0.50381  1.0000
  C   C1112     1.0  0.65350  0.64110  0.52348  1.0000
  C   C1113     1.0  0.93991  0.52432  0.94486  1.0000
  H   H890      1.0  0.68830  0.38725  0.97565  1.0000
  H   H891      1.0  0.94097  0.60767  0.51219  1.0000
  H   H892      1.0  0.57317  0.61902  0.79127  1.0000
  S   S157      1.0  0.54162  0.65331  0.88669  1.0000
  C   C1114     1.0  0.91405  0.44416  0.99219  1.0000
  H   H893      1.0  0.88414  0.59697  0.61506  1.0000
  H   H894      1.0  0.67967  0.61538  0.70755  1.0000
  H   H895      1.0  0.54634  0.63773  0.66818  1.0000
  C   C1115     1.0  0.90942  0.56157  0.95416  1.0000
  C   C1116     1.0  0.75931  0.60289  0.83029  1.0000
  C   C1117     1.0  0.73209  0.58467  0.83550  1.0000
  C   C1118     1.0  0.68919  0.58891  0.84029  1.0000
  C   C1119     1.0  0.67283  0.61146  0.84026  1.0000
  C   C1120     1.0  0.69989  0.62969  0.83466  1.0000
  C   C1121     1.0  0.74272  0.62538  0.82949  1.0000
  H   H896      1.0  0.74406  0.56730  0.83551  1.0000
  H   H897      1.0  0.66859  0.57457  0.84413  1.0000
  H   H898      1.0  0.68797  0.64710  0.83451  1.0000
  H   H899      1.0  0.76333  0.63962  0.82527  1.0000
  C   C1122     1.0  0.52117  0.59598  0.78720  1.0000
  C   C1123     1.0  0.77207  0.43782  0.86254  1.0000
  C   C1124     1.0  0.94923  0.59830  0.52810  1.0000
  C   C1125     1.0  0.91851  0.59388  0.54528  1.0000
  C   C1126     1.0  0.92960  0.58166  0.56583  1.0000
  H   H900      1.0  0.65300  0.35763  0.95168  1.0000
  H   H901      1.0  0.61039  0.63060  0.64426  1.0000
  H   H902      1.0  0.90660  0.50499  0.91808  1.0000
  H   H903      1.0  0.90577  0.57776  0.57890  1.0000
  H   H904      1.0  0.52152  0.63329  0.93741  1.0000
  C   C1127     1.0  0.89333  0.48035  0.54871  1.0000
  C   C1128     1.0  0.95599  0.52475  0.74282  1.0000
  S   S158      1.0  0.81291  0.38335  0.98383  1.0000
  C   C1129     1.0  0.65823  0.37695  0.86599  1.0000
  C   C1130     1.0  0.77425  0.34639  0.88310  1.0000
  C   C1131     1.0  0.57549  0.63292  0.67686  1.0000
  C   C1132     1.0  0.86149  0.42393  0.90993  1.0000
  C   C1133     1.0  0.88531  0.43247  0.89076  1.0000
  C   C1134     1.0  0.87899  0.45497  0.88187  1.0000
  C   C1135     1.0  0.84782  0.46899  0.89166  1.0000
  C   C1136     1.0  0.82462  0.46064  0.91115  1.0000
  C   C1137     1.0  0.83183  0.43842  0.92050  1.0000
  H   H905      1.0  0.90844  0.42147  0.88248  1.0000
  H   H906      1.0  0.89710  0.46109  0.86687  1.0000
  H   H907      1.0  0.80023  0.47124  0.91873  1.0000
  C   C1138     1.0  0.66722  0.34775  0.82714  1.0000
  C   C1139     1.0  0.64903  0.62263  0.67465  1.0000
  C   C1140     1.0  0.70126  0.35150  0.84224  1.0000
  H   H908      1.0  0.79577  0.49468  0.50524  1.0000
  C   C1141     1.0  0.93094  0.62281  0.60767  1.0000
  C   C1142     1.0  0.80424  0.43487  0.84598  1.0000
  C   C1143     1.0  0.49873  0.58185  0.77184  1.0000
  C   C1144     1.0  0.99760  0.49175  0.92154  1.0000
  C   C1145     1.0  0.61159  0.62890  0.66341  1.0000
  C   C1146     1.0  0.61414  0.62431  0.71301  1.0000
  H   H909      1.0  0.80800  0.37650  0.84490  1.0000
  P   P38       1.0  0.61520  0.62159  0.74501  1.0000
  C   C1147     1.0  0.66190  0.60659  0.75494  1.0000
  S   S159      1.0  0.57551  0.64089  0.59307  1.0000
  H   H910      1.0  0.90122  0.45622  0.57752  1.0000
  C   C1148     1.0  0.87848  0.55819  0.93704  1.0000
  H   H911      1.0  0.69283  0.55653  0.78160  1.0000
  H   H912      1.0  0.51128  0.59763  0.80546  1.0000
  C   C1149     1.0  0.96895  0.63265  0.61479  1.0000
  C   C1150     1.0  0.65936  0.58419  0.76434  1.0000
  C   C1151     1.0  0.69508  0.57357  0.77384  1.0000
  C   C1152     1.0  0.73355  0.58515  0.77396  1.0000
  H   H913      1.0  0.95185  0.56015  0.75336  1.0000
  H   H914      1.0  0.60405  0.57291  0.96879  1.0000
  C   C1153     1.0  0.56940  0.60611  0.75537  1.0000
  C   C1154     1.0  0.54742  0.59130  0.74023  1.0000
  H   H915      1.0  0.91490  0.62915  0.59200  1.0000
  C   C1155     1.0  0.62423  0.37315  0.85086  1.0000
  C   C1156     1.0  0.67235  0.63655  0.54537  1.0000
  H   H916      1.0  0.93825  0.48409  0.60326  1.0000
  H   H917      1.0  0.78734  0.57115  0.54360  1.0000
  C   C1157     1.0  0.96294  0.54839  0.73996  1.0000
  C   C1158     1.0  0.95311  0.47973  0.96639  1.0000
  C   C1159     1.0  0.64799  0.63648  0.56636  1.0000
  C   C1160     1.0  0.75509  0.52089  0.51891  1.0000
  S   S160      1.0  0.80832  0.65120  0.50319  1.0000
  C   C1161     1.0  0.69073  0.36407  0.92051  1.0000
  H   H918      1.0  0.84205  0.41051  0.82689  1.0000
  C   C1162     1.0  0.78917  0.55446  0.53516  1.0000
  C   C1163     1.0  0.69776  0.38470  0.95740  1.0000
  H   H919      1.0  0.85641  0.55510  0.53317  1.0000
  H   H920      1.0  0.72211  0.54976  0.53407  1.0000
  C   C1164     1.0  0.62865  0.35848  0.83150  1.0000
  H   H921      1.0  0.55742  0.58890  0.72209  1.0000
  C   C1165     1.0  0.97019  0.50984  0.72493  1.0000
  H   H922      1.0  0.72791  0.42134  0.88573  1.0000
  H   H923      1.0  0.66304  0.63290  0.58312  1.0000
  C   C1166     1.0  0.91237  0.44430  0.96750  1.0000
  C   C1167     1.0  0.59661  0.58853  0.91088  1.0000
  P   P39       1.0  0.97903  0.50228  0.94966  1.0000
  C   C1168     1.0  0.61322  0.57541  0.95048  1.0000
  C   C1169     1.0  0.65314  0.56848  0.94280  1.0000
  C   C1170     1.0  0.66520  0.57169  0.91906  1.0000
  C   C1171     1.0  0.63631  0.58148  0.90316  1.0000
  P   P40       1.0  0.71644  0.56263  0.90848  1.0000
  C   C1172     1.0  0.74713  0.58717  0.89855  1.0000
  C   C1173     1.0  0.74690  0.54984  0.93213  1.0000
  C   C1174     1.0  0.76124  0.56379  0.95065  1.0000
  C   C1175     1.0  0.78608  0.55447  0.96871  1.0000
  C   C1176     1.0  0.79718  0.53122  0.96828  1.0000
  C   C1177     1.0  0.78319  0.51724  0.94990  1.0000
  C   C1178     1.0  0.75806  0.52644  0.93188  1.0000
  C   C1179     1.0  0.79067  0.58475  0.89508  1.0000
  C   C1180     1.0  0.81505  0.60348  0.88770  1.0000
  C   C1181     1.0  0.79633  0.62491  0.88398  1.0000
  C   C1182     1.0  0.75332  0.62770  0.88797  1.0000
  C   C1183     1.0  0.72878  0.60898  0.89522  1.0000
  C   C1184     1.0  0.71005  0.54196  0.88484  1.0000
  C   C1185     1.0  0.67048  0.53218  0.88020  1.0000
  C   C1186     1.0  0.66578  0.51600  0.86217  1.0000
  C   C1187     1.0  0.70062  0.50902  0.84896  1.0000
  C   C1188     1.0  0.74016  0.51817  0.85382  1.0000
  C   C1189     1.0  0.74492  0.53458  0.87160  1.0000
  H   H924      1.0  0.57495  0.59637  0.89838  1.0000
  H   H925      1.0  0.79719  0.56535  0.98288  1.0000
  P   P41       1.0  0.88233  0.51201  0.51173  1.0000
  H   H926      1.0  0.67415  0.56050  0.95541  1.0000
  H   H927      1.0  0.64454  0.58374  0.88470  1.0000
  H   H928      1.0  0.75336  0.58194  0.95099  1.0000
  H   H929      1.0  0.60234  0.35564  0.81973  1.0000
  C   C1190     1.0  0.61507  0.64967  0.75863  1.0000
  H   H930      1.0  0.79233  0.49929  0.94944  1.0000
  H   H931      1.0  0.74805  0.51525  0.91773  1.0000
  H   H932      1.0  0.80594  0.56838  0.89795  1.0000
  H   H933      1.0  0.84831  0.60129  0.88420  1.0000
  H   H934      1.0  0.81500  0.63920  0.87748  1.0000
  H   H935      1.0  0.73862  0.64423  0.88469  1.0000
  H   H936      1.0  0.69562  0.61184  0.89781  1.0000
  H   H937      1.0  0.64306  0.53682  0.89044  1.0000
  H   H938      1.0  0.63508  0.50882  0.85852  1.0000
  H   H939      1.0  0.69711  0.49641  0.83507  1.0000
  H   H940      1.0  0.76739  0.51243  0.84393  1.0000
  H   H941      1.0  0.77603  0.54117  0.87499  1.0000
  C   C1191     1.0  0.73644  0.60733  0.76449  1.0000
  H   H942      1.0  0.76617  0.61641  0.76514  1.0000
  C   C1192     1.0  0.81801  0.34854  0.88511  1.0000
  C   C1193     1.0  0.90710  0.47357  0.57121  1.0000
  C   C1194     1.0  0.76668  0.39631  0.86753  1.0000
  H   H943      1.0  0.96436  0.49159  0.72673  1.0000
  C   C1195     1.0  0.74486  0.39300  0.92473  1.0000
  S   S161      1.0  0.71771  0.33452  0.98918  1.0000
  C   C1196     1.0  0.99090  0.59090  0.53178  1.0000
  H   H944      1.0  0.92191  0.58123  0.65004  1.0000
  H   H945      1.0  0.77218  0.40199  0.91801  1.0000
  H   H946      1.0  0.70575  0.63311  0.54616  1.0000
  H   H947      1.0  0.89666  0.43042  0.95831  1.0000
  H   H948      1.0  0.85272  0.53466  0.91155  1.0000
  C   C1197     1.0  0.75302  0.41865  0.87310  1.0000
  C   C1198     1.0  0.97277  0.60551  0.64744  1.0000
  C   C1199     1.0  0.93420  0.51183  0.57794  1.0000
  C   C1200     1.0  0.55631  0.60813  0.77903  1.0000
  C   C1201     1.0  0.58560  0.64553  0.54400  1.0000
  C   C1202     1.0  0.57673  0.63066  0.70149  1.0000
  C   C1203     1.0  0.95299  0.48001  0.99125  1.0000
  H   H949      1.0  0.62976  0.57504  0.76487  1.0000
  C   C1204     1.0  0.93957  0.54453  0.95841  1.0000
  S   S162      1.0  0.81721  0.33855  0.94932  1.0000
  H   H950      1.0  0.87596  0.46824  0.53805  1.0000
  H   H951      1.0  0.72661  0.51152  0.51485  1.0000
  C   C1205     1.0  0.81706  0.41273  0.83973  1.0000
  H   H952      1.0  0.92840  0.46826  0.50621  1.0000
  H   H953      1.0  0.98174  0.64688  0.60464  1.0000
  H   H954      1.0  0.85525  0.57143  0.93369  1.0000
  C   C1206     1.0  0.51194  0.57945  0.74838  1.0000
  C   C1207     1.0  0.65039  0.62037  0.69934  1.0000
  C   C1208     1.0  0.73113  0.39730  0.94780  1.0000
  C   C1209     1.0  0.79805  0.39350  0.85024  1.0000
  C   C1210     1.0  0.91367  0.60451  0.62056  1.0000
  C   C1211     1.0  0.69667  0.36570  0.86210  1.0000
  C   C1212     1.0  0.83125  0.52394  0.51792  1.0000
  H   H955      1.0  0.95648  0.58273  0.89691  1.0000
  C   C1213     1.0  0.90133  0.50273  0.54035  1.0000
  C   C1214     1.0  0.99000  0.62423  0.63491  1.0000
  H   H956      1.0  0.76257  0.45506  0.86751  1.0000
  H   H957      1.0  0.98888  0.52414  0.90288  1.0000
  H   H958      1.0  0.92906  0.46203  0.93548  1.0000
  C   C1215     1.0  0.92777  0.48927  0.58577  1.0000
  C   C1216     1.0  0.92077  0.51858  0.55543  1.0000
  C   C1217     1.0  0.58502  0.58549  0.93454  1.0000
  C   C1218     1.0  0.63464  0.65286  0.78066  1.0000
  H   H959      1.0  0.91026  0.57746  0.96406  1.0000
  H   H960      1.0  0.59452  0.38175  0.85405  1.0000
  H   H961      1.0  0.92512  0.53628  0.54991  1.0000
  H   H962      1.0  0.94911  0.52423  0.58944  1.0000
  Fe  Fe79      1.0  0.83790  0.61627  0.50779  1.0000
  C   C1219     1.0  0.75249  0.54238  0.52982  1.0000
  H   H963      1.0  0.70342  0.63540  0.74810  1.0000
  C   C1220     1.0  0.98391  0.55686  0.71959  1.0000
  C   C1221     1.0  0.72390  0.37690  0.91066  1.0000
  P   P42       1.0  0.74118  0.37156  0.88077  1.0000
  C   C1222     1.0  0.97120  0.57436  0.56957  1.0000
  H   H964      1.0  0.65455  0.38875  0.88062  1.0000
  Fe  Fe80      1.0  0.78531  0.34754  0.98387  1.0000
  C   C1223     1.0  0.70085  0.61800  0.75492  1.0000
  H   H965      1.0  0.67532  0.35079  0.91038  1.0000
  C   C1224     1.0  0.90786  0.52074  0.92825  1.0000
  H   H966      1.0  0.73120  0.34345  0.83835  1.0000
  H   H967      1.0  0.81703  0.52405  0.98204  1.0000
  C   C1225     1.0  0.91505  0.53415  0.49891  1.0000
  C   C1226     1.0  0.87725  0.53760  0.92443  1.0000
  H   H968      1.0  0.54824  0.63373  0.71150  1.0000
  C   C1227     1.0  0.93130  0.46215  0.95462  1.0000
  H   H969      1.0  0.97614  0.60315  0.93385  1.0000
  C   C1228     1.0  0.93482  0.59571  0.64026  1.0000
  H   H970      1.0  0.97940  0.56525  0.58565  1.0000
  H   H971      1.0  0.59466  0.64873  0.50621  1.0000
  H   H972      1.0  0.96273  0.54735  0.97206  1.0000
  Fe  Fe81      1.0  0.50768  0.65120  0.60278  1.0000
  C   C1229     1.0  0.98881  0.58279  0.90279  1.0000
  C   C1230     1.0  0.99150  0.51828  0.70467  1.0000
  S   S163      1.0  0.50908  0.63987  0.83411  1.0000
  C   C1231     1.0  0.79437  0.51153  0.51322  1.0000
  H   H973      1.0  0.98817  0.59839  0.66285  1.0000
  H   H974      1.0  0.98860  0.57519  0.71753  1.0000
  C   C1232     1.0  0.50127  0.64709  0.94334  1.0000
  H   H975      1.0  0.57751  0.66638  0.73147  1.0000
  H   H976      1.0  0.67086  0.33668  0.81190  1.0000
  H   H977      1.0  0.68834  0.69123  0.47807  1.0000
  H   H978      1.0  0.58172  0.89105  0.08521  1.0000
  S   S164      1.0  0.74892  0.82223  0.02371  1.0000
  C   C1233     1.0  0.92746  0.79121  0.45600  1.0000
  H   H979      1.0  0.89199  0.78464  0.10125  1.0000
  H   H980      1.0  0.65688  0.88899  0.30495  1.0000
  S   S165      1.0  0.87077  0.68256  0.45391  1.0000
  Fe  Fe82      1.0  0.62401  0.91988  0.35419  1.0000
  S   S166      1.0  0.63141  0.95419  0.33548  1.0000
  S   S167      1.0  0.67132  0.88967  0.35621  1.0000
  Fe  Fe83      1.0  0.52901  0.92811  0.36274  1.0000
  S   S168      1.0  0.53103  0.96243  0.34426  1.0000
  Fe  Fe84      1.0  0.57060  0.94536  0.31658  1.0000
  S   S169      1.0  0.56546  0.94834  0.27599  1.0000
  Fe  Fe85      1.0  0.59056  0.96863  0.36487  1.0000
  S   S170      1.0  0.56525  0.91056  0.33379  1.0000
  S   S171      1.0  0.58643  0.93481  0.38471  1.0000
  C   C1234     1.0  0.66402  0.74813  0.48213  1.0000
  S   S172      1.0  0.92049  0.84099  0.08048  1.0000
  Fe  Fe86      1.0  0.90739  0.83232  0.35980  1.0000
  S   S173      1.0  0.88862  0.80722  0.33177  1.0000
  S   S174      1.0  0.86641  0.86325  0.37105  1.0000
  C   C1235     1.0  0.98851  0.81990  0.20640  1.0000
  H   H981      1.0  0.67000  0.91497  0.47850  1.0000
  Fe  Fe87      1.0  0.95264  0.81334  0.31556  1.0000
  C   C1236     1.0  0.92712  0.68706  0.34689  1.0000
  Fe  Fe88      1.0  0.91973  0.78032  0.35506  1.0000
  S   S175      1.0  0.88916  0.74479  0.36025  1.0000
  S   S176      1.0  0.97077  0.83966  0.34299  1.0000
  S   S177      1.0  0.93495  0.80505  0.38423  1.0000
  C   C1237     1.0  0.91803  0.66708  0.35979  1.0000
  H   H982      1.0  0.97619  0.87870  0.18208  1.0000
  H   H983      1.0  0.67611  0.76488  0.47707  1.0000
  C   C1238     1.0  0.51699  0.89884  0.07739  1.0000
  C   C1239     1.0  0.97668  0.82850  0.22885  1.0000
  C   C1240     1.0  0.91648  0.68865  0.32299  1.0000
  C   C1241     1.0  0.72625  0.88324  0.35923  1.0000
  C   C1242     1.0  0.75594  0.89961  0.36625  1.0000
  C   C1243     1.0  0.79849  0.89320  0.36965  1.0000
  C   C1244     1.0  0.81240  0.87050  0.36560  1.0000
  C   C1245     1.0  0.78279  0.85423  0.35827  1.0000
  C   C1246     1.0  0.74016  0.86055  0.35519  1.0000
  H   H984      1.0  0.74598  0.91709  0.36954  1.0000
  H   H985      1.0  0.82083  0.90591  0.37558  1.0000
  H   H986      1.0  0.79256  0.83664  0.35545  1.0000
  H   H987      1.0  0.71765  0.84765  0.34990  1.0000
  H   H988      1.0  0.92655  0.96699  0.48735  1.0000
  C   C1247     1.0  0.55939  0.98832  0.03575  1.0000
  H   H989      1.0  0.50282  0.95619  0.47979  1.0000
  C   C1248     1.0  0.87203  0.70036  0.42799  1.0000
  C   C1249     1.0  0.89479  0.72111  0.42873  1.0000
  C   C1250     1.0  0.89968  0.73514  0.40841  1.0000
  C   C1251     1.0  0.88158  0.72863  0.38693  1.0000
  C   C1252     1.0  0.85766  0.70822  0.38633  1.0000
  C   C1253     1.0  0.85274  0.69421  0.40671  1.0000
  H   H990      1.0  0.90850  0.72644  0.44524  1.0000
  H   H991      1.0  0.91762  0.75090  0.40933  1.0000
  H   H992      1.0  0.84310  0.70311  0.36991  1.0000
  H   H993      1.0  0.51767  0.90457  0.28026  1.0000
  C   C1254     1.0  0.53371  0.87846  0.03312  1.0000
  C   C1255     1.0  0.56549  0.88009  0.05002  1.0000
  H   H994      1.0  0.71575  0.72963  0.46635  1.0000
  H   H995      1.0  0.56250  0.94687  0.22519  1.0000
  C   C1256     1.0  0.97871  0.69989  0.48556  1.0000
  H   H996      1.0  0.93581  0.87870  0.32009  1.0000
  H   H997      1.0  0.59641  0.87322  0.04629  1.0000
  H   H998      1.0  0.95812  0.83678  0.02632  1.0000
  C   C1257     1.0  0.97580  0.81417  0.24909  1.0000
  C   C1258     1.0  0.79662  0.82799  0.03933  1.0000
  C   C1259     1.0  0.82468  0.80973  0.04391  1.0000
  C   C1260     1.0  0.86272  0.81333  0.05623  1.0000
  C   C1261     1.0  0.87310  0.83523  0.06454  1.0000
  C   C1262     1.0  0.84489  0.85346  0.06012  1.0000
  C   C1263     1.0  0.80694  0.84991  0.04767  1.0000
  H   H999      1.0  0.81710  0.79267  0.03773  1.0000
  H   H1000     1.0  0.88400  0.79913  0.05927  1.0000
  H   H1001     1.0  0.85242  0.87049  0.06644  1.0000
  H   H1002     1.0  0.78554  0.86407  0.04467  1.0000
  C   C1264     1.0  0.90677  0.88806  0.31763  1.0000
  H   H1003     1.0  0.76279  0.89507  0.22982  1.0000
  C   C1265     1.0  0.86047  0.91929  0.32841  1.0000
  H   H1004     1.0  0.77156  0.92939  0.26196  1.0000
  H   H1005     1.0  0.76957  0.81414  0.14622  1.0000
  P   P43       1.0  0.57875  0.98394  0.47204  1.0000
  H   H1006     1.0  0.75415  0.80908  0.24384  1.0000
  H   H1007     1.0  0.88973  0.88649  0.25560  1.0000
  C   C1266     1.0  0.87749  0.88044  0.30107  1.0000
  C   C1267     1.0  0.75308  0.89777  0.27964  1.0000
  C   C1268     1.0  0.68635  0.72830  0.47603  1.0000
  S   S178      1.0  0.67004  0.87670  0.00592  1.0000
  C   C1269     1.0  0.52772  0.97008  0.43463  1.0000
  H   H1008     1.0  0.74080  0.89312  0.14394  1.0000
  C   C1270     1.0  0.72064  0.88669  0.29218  1.0000
  H   H1009     1.0  0.91656  0.82625  0.44482  1.0000
  C   C1271     1.0  0.49866  0.97351  0.41643  1.0000
  H   H1010     1.0  0.96544  0.79500  0.03389  1.0000
  C   C1272     1.0  0.55707  0.89014  0.07209  1.0000
  C   C1273     1.0  0.83137  0.91200  0.31154  1.0000
  H   H1011     1.0  0.79120  0.90588  0.19076  1.0000
  C   C1274     1.0  0.79448  0.85289  0.27667  1.0000
  H   H1012     1.0  0.62124  0.97858  0.42647  1.0000
  H   H1013     1.0  0.83428  0.67863  0.40586  1.0000
  S   S179      1.0  0.98213  0.78466  0.10825  1.0000
  H   H1014     1.0  0.72530  0.86985  0.30004  1.0000
  Fe  Fe89      1.0  0.70236  0.84244  0.00011  1.0000
  C   C1275     1.0  0.79669  0.80786  0.13666  1.0000
  C   C1276     1.0  0.83756  0.81472  0.14288  1.0000
  C   C1277     1.0  0.63180  0.96488  0.43809  1.0000
  P   P44       1.0  0.84592  0.83440  0.16703  1.0000
  C   C1278     1.0  0.88823  0.85380  0.15909  1.0000
  C   C1279     1.0  0.79783  0.85064  0.17082  1.0000
  C   C1280     1.0  0.76857  0.84434  0.18838  1.0000
  C   C1281     1.0  0.73030  0.85606  0.19040  1.0000
  C   C1282     1.0  0.53971  0.98475  0.05762  1.0000
  C   C1283     1.0  0.85580  0.90165  0.20098  1.0000
  C   C1284     1.0  0.78734  0.86825  0.15474  1.0000
  C   C1285     1.0  0.89176  0.86222  0.13582  1.0000
  C   C1286     1.0  0.92488  0.87683  0.12947  1.0000
  H   H1015     1.0  0.80324  0.88977  0.00933  1.0000
  C   C1287     1.0  0.95205  0.87453  0.16930  1.0000
  C   C1288     1.0  0.91883  0.86002  0.17576  1.0000
  C   C1289     1.0  0.85937  0.81891  0.19383  1.0000
  C   C1290     1.0  0.87481  0.79629  0.19283  1.0000
  C   C1291     1.0  0.88616  0.78470  0.21362  1.0000
  C   C1292     1.0  0.88240  0.79560  0.23548  1.0000
  C   C1293     1.0  0.86799  0.81825  0.23658  1.0000
  C   C1294     1.0  0.85640  0.82987  0.21587  1.0000
  C   C1295     1.0  0.74654  0.92020  0.27096  1.0000
  H   H1016     1.0  0.90384  0.81084  0.13473  1.0000
  C   C1296     1.0  0.91408  0.98415  0.48999  1.0000
  H   H1017     1.0  0.77476  0.83004  0.20021  1.0000
  H   H1018     1.0  0.70792  0.85117  0.20402  1.0000
  C   C1297     1.0  0.82473  0.78468  0.10486  1.0000
  H   H1019     1.0  0.80839  0.87290  0.14044  1.0000
  H   H1020     1.0  0.86973  0.85699  0.12228  1.0000
  H   H1021     1.0  0.92802  0.88264  0.11127  1.0000
  H   H1022     1.0  0.49915  0.95648  0.01742  1.0000
  C   C1298     1.0  0.79653  0.89552  0.22728  1.0000
  H   H1023     1.0  0.91790  0.85337  0.19363  1.0000
  H   H1024     1.0  0.87914  0.78768  0.17609  1.0000
  H   H1025     1.0  0.89935  0.76753  0.21270  1.0000
  H   H1026     1.0  0.89251  0.78691  0.25153  1.0000
  H   H1027     1.0  0.86722  0.82694  0.25350  1.0000
  H   H1028     1.0  0.84612  0.84756  0.21697  1.0000
  C   C1299     1.0  0.52221  0.94964  0.25578  1.0000
  H   H1029     1.0  0.67148  0.94994  0.41131  1.0000
  C   C1300     1.0  0.79036  0.79307  0.11757  1.0000
  C   C1301     1.0  0.70756  0.93097  0.27396  1.0000
  C   C1302     1.0  0.66037  0.94868  0.42945  1.0000
  C   C1303     1.0  0.89818  0.90733  0.33144  1.0000
  H   H1030     1.0  0.79927  0.80773  0.31538  1.0000
  H   H1031     1.0  0.51268  0.66885  0.45664  1.0000
  H   H1032     1.0  0.69055  0.88266  0.17588  1.0000
  C   C1304     1.0  0.79326  0.81709  0.29908  1.0000
  C   C1305     1.0  0.54063  0.98860  0.44876  1.0000
  Fe  Fe90      1.0  0.97821  0.82108  0.09463  1.0000
  H   H1033     1.0  0.51215  0.88191  0.39631  1.0000
  H   H1034     1.0  0.89549  0.78860  0.46210  1.0000
  C   C1306     1.0  0.94130  0.82465  0.01532  1.0000
  H   H1035     1.0  0.54867  0.97027  0.06875  1.0000
  H   H1036     1.0  0.98145  0.89366  0.14096  1.0000
  C   C1307     1.0  0.61674  0.96327  0.46143  1.0000
  H   H1037     1.0  0.98925  0.83184  0.42982  1.0000
  H   H1038     1.0  0.88444  0.86503  0.29107  1.0000
  H   H1039     1.0  0.64497  0.92791  0.28828  1.0000
  H   H1040     1.0  0.52278  0.74444  0.01197  1.0000
  C   C1308     1.0  0.51573  0.96031  0.49683  1.0000
  H   H1041     1.0  0.98927  0.83114  0.19111  1.0000
  C   C1309     1.0  0.50816  0.99977  0.06513  1.0000
  C   C1310     1.0  0.67090  0.70669  0.48254  1.0000
  H   H1042     1.0  0.75879  0.78835  0.11238  1.0000
  C   C1311     1.0  0.86546  0.79093  0.11133  1.0000
  H   H1043     1.0  0.52989  0.87410  0.15246  1.0000
  C   C1312     1.0  0.68174  0.89752  0.29509  1.0000
  C   C1313     1.0  0.88327  0.89623  0.21941  1.0000
  H   H1044     1.0  0.50355  0.83645  0.16760  1.0000
  H   H1045     1.0  0.58391  0.97664  0.02998  1.0000
  C   C1314     1.0  0.93933  0.81243  0.44632  1.0000
  H   H1046     1.0  0.55321  0.70197  0.47125  1.0000
  H   H1047     1.0  0.99179  0.74319  0.36570  1.0000
  C   C1315     1.0  0.67512  0.91955  0.28588  1.0000
  C   C1316     1.0  0.77632  0.80569  0.27963  1.0000
  S   S180      1.0  0.54281  0.86461  0.00584  1.0000
  C   C1317     1.0  0.86751  0.89066  0.24184  1.0000
  C   C1318     1.0  0.65940  0.92900  0.46730  1.0000
  H   H1048     1.0  0.94085  0.70177  0.35567  1.0000
  C   C1319     1.0  0.63091  0.94526  0.47605  1.0000
  H   H1049     1.0  0.69570  0.91795  0.43706  1.0000
  C   C1320     1.0  0.77625  0.84147  0.25744  1.0000
  H   H1050     1.0  0.91694  0.89637  0.21637  1.0000
  H   H1051     1.0  0.96801  0.84640  0.23055  1.0000
  H   H1052     1.0  0.92027  0.91258  0.34491  1.0000
  C   C1321     1.0  0.50750  0.87341  0.16695  1.0000
  C   C1322     1.0  0.51050  0.67365  0.47510  1.0000
  C   C1323     1.0  0.92297  0.78539  0.00592  1.0000
  C   C1324     1.0  0.76764  0.81790  0.25883  1.0000
  H   H1053     1.0  0.86813  0.90602  0.18361  1.0000
  C   C1325     1.0  0.95653  0.77317  0.45732  1.0000
  H   H1054     1.0  0.81986  0.77361  0.08975  1.0000
  P   P45       1.0  0.80299  0.88356  0.27515  1.0000
  C   C1326     1.0  0.53039  0.94852  0.23129  1.0000
  C   C1327     1.0  0.95504  0.88297  0.14617  1.0000
  C   C1328     1.0  0.87198  0.80590  0.13024  1.0000
  H   H1055     1.0  0.76865  0.85078  0.24141  1.0000
  C   C1329     1.0  0.80228  0.84059  0.29766  1.0000
  H   H1056     1.0  0.80217  0.92138  0.30985  1.0000
  H   H1057     1.0  0.92621  0.76712  0.00936  1.0000
  C   C1330     1.0  0.82392  0.89048  0.24609  1.0000
  H   H1058     1.0  0.95507  0.68692  0.48191  1.0000
  C   C1331     1.0  0.98714  0.79103  0.24650  1.0000
  C   C1332     1.0  0.81248  0.90140  0.20497  1.0000
  S   S181      1.0  0.50802  0.91053  0.10576  1.0000
  C   C1333     1.0  0.83980  0.89260  0.29757  1.0000
  H   H1059     1.0  0.81501  0.84910  0.31304  1.0000
  C   C1334     1.0  0.74879  0.87971  0.15657  1.0000
  C   C1335     1.0  0.94530  0.80108  0.01968  1.0000
  H   H1060     1.0  0.70236  0.94822  0.26721  1.0000
  C   C1336     1.0  0.72043  0.87376  0.17451  1.0000
  H   H1061     1.0  0.92252  0.70449  0.31333  1.0000
  H   H1062     1.0  0.76967  0.78744  0.28080  1.0000
  H   H1063     1.0  0.85334  0.93389  0.33953  1.0000
  H   H1064     1.0  0.61985  0.94360  0.49410  1.0000
  H   H1065     1.0  0.54075  0.95304  0.43727  1.0000
  C   C1337     1.0  0.67401  0.93067  0.44398  1.0000
  H   H1066     1.0  0.50412  0.84452  0.11799  1.0000
  S   S182      1.0  0.95809  0.82585  0.27670  1.0000
  C   C1338     1.0  0.53366  0.69233  0.48350  1.0000
  S   S183      1.0  0.98230  0.78445  0.33647  1.0000
  H   H1067     1.0  0.98657  0.77972  0.26175  1.0000
  Fe  Fe91      1.0  0.99678  0.81052  0.36501  1.0000
  C   C1339     1.0  0.89700  0.67011  0.31186  1.0000
  H   H1068     1.0  0.94652  0.75686  0.46468  1.0000
  C   C1340     1.0  0.99134  0.71506  0.46763  1.0000
  C   C1341     1.0  0.62630  0.74638  0.49485  1.0000
  C   C1342     1.0  0.98026  0.81561  0.43791  1.0000
  H   H1069     1.0  0.50417  0.91027  0.17017  1.0000
  H   H1070     1.0  0.97751  0.71336  0.45024  1.0000
  C   C1343     1.0  0.63313  0.70488  0.49509  1.0000
  H   H1071     1.0  0.50456  0.94912  0.19581  1.0000
  H   H1072     1.0  0.88826  0.67149  0.29339  1.0000
  C   C1344     1.0  0.99767  0.77622  0.44878  1.0000
  H   H1073     1.0  0.59320  0.90688  0.99853  1.0000
  H   H1074     1.0  0.83563  0.85184  0.00258  1.0000
  H   H1075     1.0  0.94501  0.99838  0.45927  1.0000
  Fe  Fe92      1.0  0.68052  0.88295  0.96679  1.0000
  S   S184      1.0  0.62000  0.86701  0.95599  1.0000
  S   S185      1.0  0.70225  0.91760  0.95158  1.0000
  Fe  Fe93      1.0  0.65432  0.83338  0.95351  1.0000
  S   S186      1.0  0.64589  0.81176  0.92000  1.0000
  S   S187      1.0  0.71679  0.84994  0.96166  1.0000
  S   S188      1.0  0.60073  0.97779  0.87567  1.0000
  H   H1076     1.0  0.91607  0.86096  0.93882  1.0000
  C   C1345     1.0  0.56246  0.85130  0.82581  1.0000
  Fe  Fe94      1.0  0.53990  0.69067  0.87548  1.0000
  C   C1346     1.0  0.92200  0.80582  0.90056  1.0000
  S   S189      1.0  0.54710  0.71675  0.90578  1.0000
  S   S190      1.0  0.50040  0.68061  0.62824  1.0000
  C   C1347     1.0  0.57495  0.74314  0.90921  1.0000
  C   C1348     1.0  0.57300  0.75450  0.93116  1.0000
  C   C1349     1.0  0.59460  0.77540  0.93487  1.0000
  C   C1350     1.0  0.61835  0.78529  0.91657  1.0000
  C   C1351     1.0  0.62012  0.77401  0.89461  1.0000
  C   C1352     1.0  0.59863  0.75308  0.89092  1.0000
  H   H1077     1.0  0.55491  0.74695  0.94545  1.0000
  H   H1078     1.0  0.59299  0.78381  0.95187  1.0000
  H   H1079     1.0  0.63858  0.78139  0.88041  1.0000
  H   H1080     1.0  0.60050  0.74458  0.87397  1.0000
  C   C1353     1.0  0.67276  0.93490  0.93148  1.0000
  C   C1354     1.0  0.69115  0.95486  0.92172  1.0000
  C   C1355     1.0  0.66924  0.96863  0.90514  1.0000
  C   C1356     1.0  0.62861  0.96254  0.89813  1.0000
  C   C1357     1.0  0.60987  0.94294  0.90842  1.0000
  C   C1358     1.0  0.63172  0.92919  0.92493  1.0000
  H   H1081     1.0  0.72277  0.95953  0.92676  1.0000
  H   H1082     1.0  0.64931  0.67666  0.80843  1.0000
  H   H1083     1.0  0.57824  0.93827  0.90356  1.0000
  H   H1084     1.0  0.61692  0.91412  0.93249  1.0000
  C   C1359     1.0  0.89535  0.80640  0.92028  1.0000
  H   H1085     1.0  0.78421  0.91471  0.97524  1.0000
  C   C1360     1.0  0.51972  0.93595  0.85206  1.0000
  C   C1361     1.0  0.54937  0.91936  0.85865  1.0000
  C   C1362     1.0  0.53888  0.89587  0.85863  1.0000
  C   C1363     1.0  0.54156  0.76736  0.53005  1.0000
  H   H1086     1.0  0.54579  0.89842  0.91044  1.0000
  H   H1087     1.0  0.68412  0.98364  0.89744  1.0000
  H   H1088     1.0  0.52836  0.95403  0.85200  1.0000
  H   H1089     1.0  0.58004  0.92523  0.86404  1.0000
  H   H1090     1.0  0.60027  0.80110  0.80332  1.0000
  C   C1364     1.0  0.99577  0.70177  0.50822  1.0000
  C   C1365     1.0  0.69059  0.88608  0.89843  1.0000
  H   H1091     1.0  0.91304  0.85091  0.99390  1.0000
  H   H1092     1.0  0.73832  0.79745  0.91394  1.0000
  C   C1366     1.0  0.60673  0.96096  0.97668  1.0000
  H   H1093     1.0  0.63147  0.69646  0.54196  1.0000
  H   H1094     1.0  0.73920  0.90925  0.88680  1.0000
  C   C1367     1.0  0.91507  0.83259  0.99718  1.0000
  C   C1368     1.0  0.68583  0.97639  0.79936  1.0000
  H   H1095     1.0  0.55759  0.82742  0.88906  1.0000
  C   C1369     1.0  0.79416  0.79809  0.97485  1.0000
  C   C1370     1.0  0.53328  0.94955  0.97421  1.0000
  H   H1096     1.0  0.66527  0.96189  0.80283  1.0000
  H   H1097     1.0  0.87964  0.78085  0.97729  1.0000
  H   H1098     1.0  0.63717  0.86498  0.90623  1.0000
  C   C1371     1.0  0.89640  0.79327  0.98789  1.0000
  C   C1372     1.0  0.61876  0.69780  0.57900  1.0000
  C   C1373     1.0  0.61685  0.93964  0.98666  1.0000
  H   H1099     1.0  0.64528  0.68689  0.58347  1.0000
  C   C1374     1.0  0.50509  0.97903  0.92513  1.0000
  H   H1100     1.0  0.53457  0.72376  0.60462  1.0000
  C   C1375     1.0  0.65034  0.87750  0.89408  1.0000
  P   P46       1.0  0.56252  0.72205  0.51856  1.0000
  C   C1376     1.0  0.51693  0.66944  0.94500  1.0000
  H   H1101     1.0  0.59716  0.70032  0.61501  1.0000
  C   C1377     1.0  0.58274  0.85106  0.84788  1.0000
  P   P47       1.0  0.57537  0.87406  0.86889  1.0000
  H   H1102     1.0  0.52077  0.78114  0.98943  1.0000
  C   C1378     1.0  0.70865  0.90202  0.88287  1.0000
  C   C1379     1.0  0.82883  0.86284  0.98761  1.0000
  C   C1380     1.0  0.59363  0.68981  0.75891  1.0000
  H   H1103     1.0  0.70600  0.77759  0.94820  1.0000
  C   C1381     1.0  0.51131  0.88884  0.55055  1.0000
  C   C1382     1.0  0.53195  0.69824  0.50755  1.0000
  H   H1104     1.0  0.49883  0.88910  0.58776  1.0000
  H   H1105     1.0  0.51839  0.88546  0.94917  1.0000
  H   H1106     1.0  0.80537  0.81838  0.91850  1.0000
  H   H1107     1.0  0.56816  0.76680  0.54198  1.0000
  H   H1108     1.0  0.51917  0.73300  0.56309  1.0000
  C   C1383     1.0  0.54781  0.72376  0.56725  1.0000
  C   C1384     1.0  0.54855  0.84043  0.90165  1.0000
  H   H1109     1.0  0.61185  0.70934  0.78943  1.0000
  Fe  Fe95      1.0  0.61078  0.85861  0.99441  1.0000
  C   C1385     1.0  0.62767  0.88494  0.87418  1.0000
  C   C1386     1.0  0.75600  0.78647  0.97218  1.0000
  H   H1110     1.0  0.72871  0.96788  0.82749  1.0000
  S   S191      1.0  0.57527  0.68343  0.84151  1.0000
  C   C1387     1.0  0.61044  0.72468  0.50138  1.0000
  C   C1388     1.0  0.79948  0.89830  0.97226  1.0000
  H   H1111     1.0  0.52714  0.96503  0.92266  1.0000
  C   C1389     1.0  0.51023  0.95871  0.53958  1.0000
  C   C1390     1.0  0.57511  0.71639  0.54924  1.0000
  H   H1112     1.0  0.83039  0.86355  0.92733  1.0000
  H   H1113     1.0  0.59830  0.98757  0.52281  1.0000
  C   C1391     1.0  0.81021  0.88427  0.99146  1.0000
  C   C1392     1.0  0.61361  0.69287  0.78063  1.0000
  H   H1114     1.0  0.70735  0.88076  0.91423  1.0000
  C   C1393     1.0  0.75459  0.79719  0.93077  1.0000
  C   C1394     1.0  0.73623  0.78599  0.95014  1.0000
  C   C1395     1.0  0.88803  0.98866  0.50938  1.0000
  H   H1115     1.0  0.62757  0.83272  0.86990  1.0000
  C   C1396     1.0  0.81308  0.80914  0.95544  1.0000
  C   C1397     1.0  0.79265  0.80893  0.93343  1.0000
  P   P48       1.0  0.85872  0.82705  0.95967  1.0000
  H   H1116     1.0  0.52480  0.80207  0.53956  1.0000
  C   C1398     1.0  0.89214  0.82646  0.93389  1.0000
  C   C1399     1.0  0.52180  0.84949  0.94068  1.0000
  C   C1400     1.0  0.50016  0.74672  0.99783  1.0000
  C   C1401     1.0  0.53313  0.83325  0.92368  1.0000
  C   C1402     1.0  0.53150  0.74812  0.51622  1.0000
  C   C1403     1.0  0.91702  0.84561  0.92804  1.0000
  C   C1404     1.0  0.54380  0.92822  0.98445  1.0000
  C   C1405     1.0  0.68715  0.90866  0.86240  1.0000
  H   H1117     1.0  0.52021  0.91524  0.98789  1.0000
  C   C1406     1.0  0.54769  0.97109  0.54142  1.0000
  H   H1118     1.0  0.64876  0.98925  0.77025  1.0000
  C   C1407     1.0  0.83764  0.85544  0.96457  1.0000
  C   C1408     1.0  0.82591  0.86940  0.94531  1.0000
  C   C1409     1.0  0.56924  0.97806  0.52098  1.0000
  C   C1410     1.0  0.52561  0.87294  0.93562  1.0000
  C   C1411     1.0  0.98617  0.70277  0.64444  1.0000
  C   C1412     1.0  0.54155  0.88019  0.91373  1.0000
  H   H1119     1.0  0.63806  0.80112  0.84163  1.0000
  H   H1120     1.0  0.57618  0.70389  0.75100  1.0000
  C   C1413     1.0  0.61077  0.83306  0.85321  1.0000
  C   C1414     1.0  0.55341  0.86399  0.89662  1.0000
  Fe  Fe96      1.0  0.51104  0.67758  0.82533  1.0000
  C   C1415     1.0  0.59158  0.70532  0.59678  1.0000
  H   H1121     1.0  0.55267  0.83341  0.79295  1.0000
  H   H1122     1.0  0.87747  0.79118  0.92498  1.0000
  C   C1416     1.0  0.61690  0.81511  0.83721  1.0000
  H   H1123     1.0  0.54219  0.86537  0.82067  1.0000
  H   H1124     1.0  0.96441  0.66832  0.65069  1.0000
  C   C1417     1.0  0.72143  0.97985  0.81332  1.0000
  C   C1418     1.0  0.94365  0.84498  0.90831  1.0000
  C   C1419     1.0  0.64716  0.89977  0.85779  1.0000
  C   C1420     1.0  0.55629  0.71843  0.59091  1.0000
  C   C1421     1.0  0.94601  0.82513  0.89452  1.0000
  C   C1422     1.0  0.56509  0.96604  0.97073  1.0000
  H   H1125     1.0  0.96267  0.85984  0.90382  1.0000
  C   C1423     1.0  0.50442  0.99691  0.90847  1.0000
  H   H1126     1.0  0.63121  0.90479  0.84167  1.0000
  H   H1127     1.0  0.52536  0.99656  0.89331  1.0000
  H   H1128     1.0  0.55815  0.98274  0.96322  1.0000
  C   C1424     1.0  0.89163  0.81697  0.98366  1.0000
  C   C1425     1.0  0.59566  0.81513  0.81562  1.0000
  C   C1426     1.0  0.58536  0.92338  0.99069  1.0000
  H   H1129     1.0  0.50305  0.70475  0.95146  1.0000
  C   C1427     1.0  0.61062  0.70325  0.55533  1.0000
  H   H1130     1.0  0.53395  0.90272  0.55150  1.0000
  H   H1131     1.0  0.92421  0.79032  0.89007  1.0000
  H   H1132     1.0  0.79713  0.90142  0.93439  1.0000
  H   H1133     1.0  0.70129  0.92090  0.85026  1.0000
  C   C1428     1.0  0.99135  0.67893  0.64624  1.0000
  C   C1429     1.0  0.80705  0.89081  0.94919  1.0000
  C   C1430     1.0  0.56869  0.83329  0.80985  1.0000
  H   H1134     1.0  0.80794  0.79918  0.99229  1.0000
  H   H1135     1.0  0.58792  0.99286  0.61930  1.0000
  H   H1136     1.0  0.63143  0.97338  0.97320  1.0000
  C   C1431     1.0  0.63440  0.67444  0.79139  1.0000
  C   C1432     1.0  0.51715  0.78737  0.52871  1.0000
  H   H1137     1.0  0.55962  0.97556  0.55874  1.0000
  H   H1138     1.0  0.74100  0.77865  0.98748  1.0000
  H   H1139     1.0  0.98559  0.69008  0.52212  1.0000
  H   H1140     1.0  0.95544  0.71035  0.64729  1.0000
  H   H1141     1.0  0.54064  0.79095  0.59285  1.0000
  H   H1142     1.0  0.88051  0.97502  0.52184  1.0000
  H   H1143     1.0  0.51890  0.88431  0.51296  1.0000
  H   H1144     1.0  0.51190  0.84399  0.95813  1.0000
  S   S192      1.0  0.64154  0.82380  0.99138  1.0000
  H   H1145     1.0  0.51431  0.83023  0.58511  1.0000
  C   C1433     1.0  0.50980  0.79599  0.59913  1.0000
  C   C1434     1.0  0.59429  0.66833  0.74792  1.0000
  C   C1435     1.0  0.67654  0.99177  0.78102  1.0000
  H   H1146     1.0  0.50386  0.68981  0.54151  1.0000
  H   H1147     1.0  0.96674  0.82463  0.87928  1.0000
  H   H1148     1.0  0.60976  0.76196  0.49948  1.0000
  C   C1436     1.0  0.50288  0.87845  0.52884  1.0000
  H   H1149     1.0  0.64922  0.93559  0.99100  1.0000
  C   C1437     1.0  0.50587  0.68559  0.52290  1.0000
  H   H1150     1.0  0.54932  0.67306  0.94023  1.0000
  H   H1151     1.0  0.62197  0.68794  0.50005  1.0000
  H   H1152     1.0  0.53157  0.81504  0.92781  1.0000
  C   C1438     1.0  0.49903  0.76741  0.98513  1.0000
  C   C1439     1.0  0.74712  0.99903  0.80935  1.0000
  C   C1440     1.0  0.55279  0.97325  0.49848  1.0000
