data_image0
_chemical_formula_structural       Fe2S2C3S2FeSCFeS2FeSFeS3FeS2FeSHFeHFeS3CH2FeS2FeS2FeSFeS3HC4PHCHC6H3FeC3H3C4H2C6H4C6H5CHPC6H4C3HCH2CHC2HCH4CH2C2H2C2H5CHCH4C3PC4HC12PH3C2FeH7CHC3HC2HC3HSCH2CH3C2HCH2C3HC2H2CHC6PC7HCHC2H4CH5CH5C2H2C3HC5H4C2H2C6H8C8PC14H5SH8CH3C3HCHCHC3HCH3C5SCH6C3HCH2CHC3SHCSHC3HCH2C2HC2HCHC2SCH4CHC2HCHC2H2CHC2FeS2FeS2FeSFeS3HSFeSCFe2S2FeS2FeS2FeSFeS3FeSCFeS2FeCFeS3HC6H4C6H4C2HCHC8H4C4H5C7H6CH4C3HC2PC8HCHC7HC2H13C6PC2HC9H3C2H2C2H10C2HCHC2HCH2C2H3C2HPC2HCSHC5HCH2C2HCH3C3H3C6PC2HC15H5CH13C4H3C2HC2HC2HCPHCH3CHSC2H6C2H2CHC2HCH5CH4C6HCHCH2CH3C2HC4H2CH2CH2C3PHCHC2HC3SC4PC3HC2H2C3HC4SH2C2HC3H2CSH2SC2HC2H3SFeHC2HCH2FeS2FeSHFeSFeS2CFeS2FeS2FeSFeS3HC6H4C3HC9H4CHCH3C3HCHC5HCH3C2H4C2H2PCPCH2C4H2C2HC2H4CSC2H3C2HC3H2CHC9H5CHC2H2C2PC3H2CHCHC2H2C5HC2HCH3C2H3CHC2HC2H2CHC3HC3HC2H2C4H2C2H4CHCH2PC2H2CHCHC8HC2H3C8H2C2H7CH2PHCSC2H2CHC4HSH4CHCH3C2FeS2FeS2FeCFeS3HFeS2FeS2FeSFeS3HPCH3C7H4C6H4C2HC2HCHC2PH2CH3C4H2C2HCH2C5HC3HC2HC2H2C5HC2H2CHCHCHCH2C2HPHCH2C4HCHCH5C2H4C5HCHC2HCH2CPC8H3CHCHC3HC4HCHCHC5H2C2HCH3CHC2H3CHC2HC2HC2HC4H5CH2C3H2PC2PHC2HC3HCH2CH2C3H2CH3CH4C4HC2H2C2HCH2C2H2C5HCH2C3SC3HCH2CHCH2CHCHC5H2CHC2FeS2FeS2FeSFeS2FeS2FeS2FeSFeS3C6H5C2HC2HC7H3C6H4CHCHC2H2C2HC4H6C2HC3H3C3HC2H3CHC3H2CH3C2H2C2H2C2H2C2HC2H2C5HC3HCH3C2HPH3C2HCH5CHC7H4CHCHC2HCPC2HC6HCHC2HC2H6CHCHPC2H2C4HSHC2H3C3HCHCHC7H2C6PC9H2C2HCH4C4HPH3C2HPHCH2CH2PCH2CHCHC2H4C5H2C5HCFeS2FeSCFeSFeS2FeS2FeS2FeSFeS3HC2H3C8H4C2H2C9H3CH2C3H3C6H6CHC2HC5HCH2C3HC4H4C3HSC2PC3HCH4PCH2C3HPCHC3HCH3CHC2PSH2C4HC2H3CH2CHCH2CH4C3HCH4C5HCHC4HC2HCH3CH4CHC2HC3HCHCH2C5HC4H4CHCH5CHC3HC2HC4HC4H2C3H3CHC8HFeS2FeSFeSFeS3H2SHSHFe2SHFeS2FeS2FeSFeS3FeS2FeSCFeSFeHS2PHSHCHC6H4C6H4C2HC6H5CH2C3HCH2C6H4C4HCHCH3C6PC12H5CHCH7FeH2C2HCH3C4H2CHC2HCHC2H2CHC3HCPC2H4C2H2C4HPHCHC10H9C3H2CH2CHC2HC6H2CHCH2C2H2SCH6CH2C5HC3HC2H2C3H2C2H2C4HC5SHCHC2HCHCHCH3CH2CH4C3HCHCHCHC3H2C3H3CH2FeC5SHCHC4HC5HPC3H2C2H4C4HC2HCH2CHC4HCHCHC3SHC3H2CHCSCSH2FeS2FeHFeHS2FeS2FeS2FeSFeS3FeS2FeSHFeHFeS3C2FeS2FeS2Fe2S3C6H3C6H2CH3C6H4C6H4C2HC7H5C6HC5PC11H4CH3CH2C7PC14PH15CH2CH2C3H2C2HSCHC2H2CHCHCH2CH2C2HCHC4HC2H2CHCHC3HCHC2PHC2SH3CHC3HCHCHC4H4SCHCH4PC2HCHCH4C2HCH3C4HC2HC6PC15H2CH8CH9CH2C2H3C4HCH3CSHCH5C3HC3H3C5HC3H2CHC2HC2H2SH5CHC3H7C4PC3HFeC3H5C2HCH2CH2CH2C3SH2CHFeS2FeS2FeSFeS3FeS2H2FeSCSC2FeSFeS4CFeS2FeS2FeSFeCS2C6H4C6H4C6H4C2HSC6H4C6H4C6H4CHCHC4H3C8HC2H2CH2CHSHC2HCHCH3C2HFeC2HC5HSHCH3CHC2H2C2H2CH2C2HCHC2PCH2C2SCH3CH2C3H2C5H3C2HCH5C3H2C5H2PH2C2HCH2C4HCH2CHCH5CHC2H2PC7H2C3HCHC4HC2H5C2H4C4H4C9H5C2HC2HC2PC10HC3H2C2HCHCH4CFeH2CHCH2C2H2C2HPH3CHC3H3C3H2C2H2CHCH2CHCH4CH2CSHCHFeCHCHCHSCHCSH2C2H3C2H4C4FeC3HC3H2C2S2CS2FeSFeS2CFeS2FeS2FeSFeS3H4CFeS2FeS2FeSFeCS2CHFeS2FeSHSHC2H2C6H4C6H4C6H4C6H4C6H4C6H2CH2CH2CHCPC2H2C2HCHC3H2C5HC2HC2H2C2FeHC3HCH2C2HC4H6C2H3PC2H2CH4C3HCH2CHC2HC5HC7H2CHCH4CH2CHC3HSHCH2C5PC9H3PC2H6CPCHC3HCHCHC2HSC4HCH3C4H3C2HCHC8H2C3HCHC2FeH2CHCH5C4H3C2H2C6PC19H18C2H2FeC2HSH2CH3SC2HC2SH3CPHCSC6SCHSFeHCFeS2FeS2Fe2S3HFeSHFeS2FeSFeS3HC4H2C7H4C6H4C6H4C2HC2HCHPCH3C2H3CHCH2PH2CHC2H2PH2C9H2CHC2H2C2HC4H3C8HC3H3C6HC2HCH3C4H2C6P2CHCH2CHCHC2HCHCPH6C2HCH3C2H8SCHC2HCH2C5HSCHC2HCHCHCHC3HCH4C2HC2H2CH3C3H2CSH2C6HC3FeS2FeSHFeSFeS3CFeS2FeS2FeSFeS3C4H3C6H4C6H4C5HCHCH2CHC2H2C6H5CHC3H3CH3CHCPH3C2H2C2HCH2CH2C2HCHC2HCHCHC7SH2CH2C2PC4HPCH3CH2CHC3H2C2H2C3HCH2CH2C2H2C6PC15HCH14CH4C2H2C2HCHC4HC3HCH3CHC4H2CH4CHCHC2HCHC2H4CH2C3SHCHCHCHC2PC3HFeS2FeS2FeSFeS2FeS2FeS2FeSFeS3C6H4C6H4C2HCHC6H4C6H3C7H4C3HC3H2C2H5C2H2CH5C3H2PHC4HC3H2C2HCHC3HCH2CHC3HCHPCHCHC3HCHPHCH2C3HC7PC5HC12H6CH13C6HCHC3PHC4H5C2H2CP2HC6H4C2HC2H3CHC8HCH2C3HC4HCH7C2HC2H2CHCH3C2HCHCH2C4H2C2H2CSCHCHCFeSFeS2FeSFeS3FeS2FeS2FeSFeS3HCH5C7H2CHC6H4C6H4C6H3C7H3CH2CH2C3H2CHC2HC7PC14H17C2HCHC2HC2HC2HC2HCH8C2HCH5CH2CH2CHC4PC13H14C3HPHCHCHPCHCHCH2C3HC3SCHCHCH3PC4H3CHC2HS2HSFeSFeSHSFeS2FeS2Fe2S3CHCSFeS2FeS2FeSFeS3FeS2H3FeSCSC2HC2HC6H4C6H4C6H4C6H4C6H4C6H4CH2CH4C8H2CH2C2H2CHCHC7PC18H20CHC2HC7HC2H4C2H4FeC2HCH2C3H2C2H2CHCHC2PH3SH2C2HC6H5C2HSH2CH4FeCHCHCHC4HCPH2C4PC19HCH18C3FeHC3H5CHCHCHC2HCHCHC3HC2HC3H7C6PCHCHC9HSH3CHFeH2PHCSHFeHSCFeHC2HC2HCHPHCH2C2HCFeS2FeS2FeSFeS3H2FeS2HFeSCSFeSFeSHS2CSFeS2FeS2FeSFeS2C6H4C6H4C6H4C6H4C6H4C2HC6H3CSCH6C8H2CH2SCHCH4C2H6C6PC16H16CHC4H5CHC2HC3HC4H4C4HCH3CH4C4H2C8H2CHC4HCH2C3H5SHCHCH2CHCH3C2SCHCH2PC3H2CH3C2HC4FeSH5C2HC3HC2HC2H2CH2CH2PH2C7HC3HCH2C8HC5H2CHC4HC2H4CHCHCHCHCHC5HC2HCPHCH2C5PC3H3PC3HC3FeHCHCH3C4PCH2C6H2CH3C2H3CSC2HC2H2CH3C2H2C2SHCH3CH
_chemical_formula_sum              "Fe192 S384 C2880 H2304 P96"
_cell_length_a       66.931
_cell_length_b       59.8484
_cell_length_c       57.7433
_cell_angle_alpha    88.6543
_cell_angle_beta     89.5808
_cell_angle_gamma    88.9102

_space_group_name_H-M_alt    "P 1"
_space_group_IT_number       1

loop_
  _space_group_symop_operation_xyz
  'x, y, z'

loop_
  _atom_site_type_symbol
  _atom_site_label
  _atom_site_symmetry_multiplicity
  _atom_site_fract_x
  _atom_site_fract_y
  _atom_site_fract_z
  _atom_site_occupancy
  Fe  Fe1       1.0  0.02661  0.12586  0.46908  1.0000
  Fe  Fe2       1.0  0.05859  0.14973  0.43933  1.0000
  S   S1        1.0  0.07712  0.15741  0.47021  1.0000
  S   S2        1.0  0.06489  0.16472  0.40333  1.0000
  C   C1        1.0  0.22418  0.12271  0.33857  1.0000
  C   C2        1.0  0.12862  0.12010  0.14887  1.0000
  C   C3        1.0  0.20312  0.02466  0.03783  1.0000
  S   S3        1.0  0.05388  0.11359  0.44964  1.0000
  S   S4        1.0  0.03000  0.16130  0.45632  1.0000
  Fe  Fe3       1.0  0.20248  0.17535  0.29516  1.0000
  S   S5        1.0  0.19594  0.21057  0.28200  1.0000
  C   C4        1.0  0.17030  0.48947  0.34604  1.0000
  Fe  Fe4       1.0  0.16428  0.17623  0.32582  1.0000
  S   S6        1.0  0.15545  0.21131  0.31477  1.0000
  S   S7        1.0  0.14950  0.15372  0.35303  1.0000
  Fe  Fe5       1.0  0.16375  0.20021  0.27848  1.0000
  S   S8        1.0  0.14481  0.21188  0.24692  1.0000
  Fe  Fe6       1.0  0.18807  0.21888  0.31920  1.0000
  S   S9        1.0  0.20228  0.24872  0.33719  1.0000
  S   S10       1.0  0.17063  0.16469  0.28959  1.0000
  S   S11       1.0  0.19649  0.18414  0.33229  1.0000
  Fe  Fe7       1.0  0.18597  0.40828  0.41797  1.0000
  S   S12       1.0  0.20917  0.38118  0.41071  1.0000
  S   S13       1.0  0.18160  0.43350  0.38703  1.0000
  Fe  Fe8       1.0  0.17592  0.38623  0.46587  1.0000
  S   S14       1.0  0.19847  0.35843  0.46085  1.0000
  H   H1        1.0  0.19181  0.24419  0.40785  1.0000
  Fe  Fe9       1.0  0.21932  0.38522  0.44774  1.0000
  H   H2        1.0  0.11390  0.18666  0.28875  1.0000
  Fe  Fe10      1.0  0.18670  0.35652  0.42442  1.0000
  S   S15       1.0  0.17463  0.32391  0.40935  1.0000
  S   S16       1.0  0.19741  0.41330  0.45429  1.0000
  S   S17       1.0  0.16295  0.38331  0.43019  1.0000
  C   C5        1.0  0.23124  0.34965  0.36140  1.0000
  H   H3        1.0  0.16051  0.33969  0.48262  1.0000
  H   H4        1.0  0.18521  0.27357  0.47473  1.0000
  Fe  Fe11      1.0  0.07513  0.17015  0.13349  1.0000
  S   S18       1.0  0.06396  0.13684  0.12189  1.0000
  S   S19       1.0  0.09641  0.16577  0.16503  1.0000
  Fe  Fe12      1.0  0.05188  0.19457  0.09431  1.0000
  S   S20       1.0  0.03911  0.16244  0.08154  1.0000
  S   S21       1.0  0.04150  0.22474  0.07166  1.0000
  Fe  Fe13      1.0  0.03315  0.15286  0.11897  1.0000
  S   S22       1.0  0.00751  0.13160  0.13556  1.0000
  Fe  Fe14      1.0  0.07055  0.14879  0.08535  1.0000
  S   S23       1.0  0.08306  0.12626  0.05661  1.0000
  S   S24       1.0  0.04407  0.18596  0.13195  1.0000
  S   S25       1.0  0.08354  0.18107  0.09670  1.0000
  H   H5        1.0  0.04654  0.17545  0.35249  1.0000
  C   C6        1.0  0.16908  0.28920  0.30013  1.0000
  C   C7        1.0  0.10727  0.11055  0.02144  1.0000
  C   C8        1.0  0.10521  0.12625  0.03914  1.0000
  C   C9        1.0  0.12085  0.14099  0.04260  1.0000
  P   P1        1.0  0.23310  0.48743  0.42744  1.0000
  H   H6        1.0  0.04551  0.28655  0.01416  1.0000
  C   C10       1.0  0.00699  0.17970  0.40571  1.0000
  H   H7        1.0  0.11942  0.15332  0.05588  1.0000
  C   C11       1.0  0.06941  0.28822  0.03858  1.0000
  C   C12       1.0  0.07889  0.27697  0.05732  1.0000
  C   C13       1.0  0.07114  0.25698  0.06704  1.0000
  C   C14       1.0  0.05359  0.24812  0.05830  1.0000
  C   C15       1.0  0.04449  0.25898  0.03909  1.0000
  C   C16       1.0  0.05248  0.27869  0.02910  1.0000
  H   H8        1.0  0.09209  0.28403  0.06471  1.0000
  H   H9        1.0  0.07826  0.24892  0.08184  1.0000
  H   H10       1.0  0.03106  0.25216  0.03200  1.0000
  Fe  Fe15      1.0  0.04835  0.16716  0.48812  1.0000
  C   C17       1.0  0.10625  0.46779  0.03622  1.0000
  C   C18       1.0  0.09744  0.44706  0.04128  1.0000
  C   C19       1.0  0.09243  0.43248  0.02346  1.0000
  H   H11       1.0  0.20554  0.04650  0.06660  1.0000
  H   H12       1.0  0.09472  0.44210  0.05915  1.0000
  H   H13       1.0  0.08593  0.41646  0.02766  1.0000
  C   C20       1.0  0.20647  0.02195  0.01415  1.0000
  C   C21       1.0  0.17344  0.46111  0.37767  1.0000
  C   C22       1.0  0.16399  0.47627  0.39251  1.0000
  C   C23       1.0  0.06733  0.15160  0.30464  1.0000
  H   H14       1.0  0.16126  0.47142  0.41037  1.0000
  H   H15       1.0  0.22041  0.05514  0.43073  1.0000
  C   C24       1.0  0.10945  0.17901  0.18788  1.0000
  C   C25       1.0  0.10823  0.20207  0.19142  1.0000
  C   C26       1.0  0.11883  0.21164  0.20976  1.0000
  C   C27       1.0  0.13079  0.19843  0.22496  1.0000
  C   C28       1.0  0.13196  0.17536  0.22147  1.0000
  C   C29       1.0  0.12141  0.16578  0.20308  1.0000
  H   H16       1.0  0.09915  0.21256  0.18000  1.0000
  H   H17       1.0  0.11782  0.22951  0.21211  1.0000
  H   H18       1.0  0.14124  0.16495  0.23272  1.0000
  H   H19       1.0  0.12256  0.14796  0.20058  1.0000
  C   C30       1.0  0.19413  0.26936  0.35736  1.0000
  C   C31       1.0  0.20805  0.28475  0.36535  1.0000
  C   C32       1.0  0.20237  0.30166  0.38095  1.0000
  C   C33       1.0  0.18262  0.30347  0.38889  1.0000
  C   C34       1.0  0.16867  0.28812  0.38087  1.0000
  C   C35       1.0  0.17431  0.27129  0.36514  1.0000
  H   H20       1.0  0.22339  0.28361  0.35941  1.0000
  H   H21       1.0  0.21335  0.31311  0.38706  1.0000
  H   H22       1.0  0.15334  0.28930  0.38678  1.0000
  H   H23       1.0  0.16333  0.25977  0.35912  1.0000
  H   H24       1.0  0.12439  0.19951  0.06389  1.0000
  C   C36       1.0  0.01915  0.35485  0.06113  1.0000
  H   H25       1.0  0.16602  0.25037  0.43786  1.0000
  P   P2        1.0  0.12651  0.23086  0.44609  1.0000
  C   C37       1.0  0.08907  0.16293  0.39060  1.0000
  C   C38       1.0  0.10342  0.14751  0.39885  1.0000
  C   C39       1.0  0.12192  0.14518  0.38729  1.0000
  C   C40       1.0  0.12644  0.15846  0.36762  1.0000
  C   C41       1.0  0.11236  0.17443  0.35977  1.0000
  C   C42       1.0  0.09371  0.17653  0.37115  1.0000
  H   H26       1.0  0.10006  0.13693  0.41378  1.0000
  H   H27       1.0  0.13271  0.13281  0.39353  1.0000
  H   H28       1.0  0.11563  0.18476  0.34464  1.0000
  H   H29       1.0  0.08277  0.18860  0.36472  1.0000
  C   C43       1.0  0.11579  0.13093  0.11119  1.0000
  C   C44       1.0  0.17654  0.46798  0.35438  1.0000
  C   C45       1.0  0.08350  0.18851  0.27590  1.0000
  H   H30       1.0  0.05934  0.23725  0.26032  1.0000
  C   C46       1.0  0.05200  0.14023  0.34869  1.0000
  H   H31       1.0  0.03704  0.19423  0.03192  1.0000
  H   H32       1.0  0.05981  0.18572  0.31387  1.0000
  C   C47       1.0  0.18025  0.47922  0.47857  1.0000
  H   H33       1.0  0.04243  0.43045  0.01459  1.0000
  C   C48       1.0  0.15939  0.29269  0.27898  1.0000
  C   C49       1.0  0.15121  0.21245  0.01522  1.0000
  H   H34       1.0  0.21458  0.32344  0.30406  1.0000
  C   C50       1.0  0.24031  0.46044  0.41612  1.0000
  H   H35       1.0  0.06354  0.03729  0.46395  1.0000
  H   H36       1.0  0.11620  0.18401  0.45437  1.0000
  H   H37       1.0  0.16766  0.47740  0.49034  1.0000
  H   H38       1.0  0.02774  0.36533  0.07224  1.0000
  C   C51       1.0  0.12225  0.30421  0.46881  1.0000
  H   H39       1.0  0.12682  0.36370  0.48273  1.0000
  H   H40       1.0  0.22643  0.16514  0.37020  1.0000
  C   C52       1.0  0.08930  0.23484  0.27358  1.0000
  C   C53       1.0  0.12561  0.25951  0.45531  1.0000
  H   H41       1.0  0.21577  0.11549  0.39652  1.0000
  H   H42       1.0  0.19734  0.46000  0.42713  1.0000
  C   C54       1.0  0.24286  0.03761  0.41084  1.0000
  C   C55       1.0  0.04777  0.18524  0.02128  1.0000
  H   H43       1.0  0.99789  0.19500  0.43740  1.0000
  H   H44       1.0  0.15871  0.20974  0.05140  1.0000
  H   H45       1.0  0.15034  0.15115  0.03174  1.0000
  H   H46       1.0  0.15049  0.14117  0.16300  1.0000
  H   H47       1.0  0.12109  0.32144  0.47409  1.0000
  C   C56       1.0  0.18411  0.49221  0.01063  1.0000
  H   H48       1.0  0.23627  0.14916  0.18072  1.0000
  C   C57       1.0  0.05185  0.16253  0.34099  1.0000
  H   H49       1.0  0.17165  0.27234  0.30694  1.0000
  H   H50       1.0  0.99916  0.16190  0.21821  1.0000
  H   H51       1.0  0.22032  0.09990  0.09829  1.0000
  H   H52       1.0  0.19680  0.01118  0.04819  1.0000
  C   C58       1.0  0.20226  0.38288  0.29137  1.0000
  C   C59       1.0  0.18381  0.37719  0.30141  1.0000
  C   C60       1.0  0.16683  0.39058  0.29648  1.0000
  P   P3        1.0  0.18168  0.35261  0.32000  1.0000
  C   C61       1.0  0.16467  0.35887  0.34356  1.0000
  C   C62       1.0  0.17267  0.32934  0.30384  1.0000
  C   C63       1.0  0.16283  0.33275  0.28260  1.0000
  C   C64       1.0  0.15623  0.31446  0.27024  1.0000
  H   H53       1.0  0.15935  0.46872  0.05648  1.0000
  C   C65       1.0  0.07110  0.22614  0.26677  1.0000
  C   C66       1.0  0.17564  0.30743  0.31250  1.0000
  C   C67       1.0  0.16360  0.38053  0.35250  1.0000
  C   C68       1.0  0.15018  0.38552  0.37038  1.0000
  C   C69       1.0  0.13798  0.36890  0.37978  1.0000
  C   C70       1.0  0.13920  0.34724  0.37131  1.0000
  C   C71       1.0  0.15247  0.34222  0.35328  1.0000
  C   C72       1.0  0.20597  0.34547  0.33187  1.0000
  C   C73       1.0  0.21232  0.35499  0.35248  1.0000
  C   C74       1.0  0.20798  0.04473  0.04816  1.0000
  C   C75       1.0  0.20465  0.12022  0.33078  1.0000
  C   C76       1.0  0.05692  0.00220  0.46321  1.0000
  P   P4        1.0  0.22307  0.08766  0.04862  1.0000
  H   H54       1.0  0.21553  0.37273  0.29463  1.0000
  H   H55       1.0  0.15240  0.38635  0.30380  1.0000
  H   H56       1.0  0.16029  0.34942  0.27548  1.0000
  C   C77       1.0  0.11685  0.20425  0.00562  1.0000
  C   C78       1.0  0.02927  0.46176  0.00266  1.0000
  Fe  Fe16      1.0  0.07054  0.12192  0.48198  1.0000
  H   H57       1.0  0.18314  0.30449  0.32883  1.0000
  H   H58       1.0  0.17324  0.39359  0.34591  1.0000
  H   H59       1.0  0.14955  0.40223  0.37727  1.0000
  H   H60       1.0  0.12794  0.37269  0.39402  1.0000
  H   H61       1.0  0.13027  0.33417  0.37917  1.0000
  H   H62       1.0  0.15336  0.32524  0.34737  1.0000
  H   H63       1.0  0.20267  0.36641  0.36181  1.0000
  C   C79       1.0  0.14563  0.22620  0.42438  1.0000
  H   H64       1.0  0.13453  0.31251  0.43515  1.0000
  C   C80       1.0  0.18924  0.10548  0.10536  1.0000
  C   C81       1.0  0.12773  0.20263  0.04572  1.0000
  C   C82       1.0  0.16422  0.32330  0.48993  1.0000
  H   H65       1.0  0.10562  0.12821  0.09709  1.0000
  C   C83       1.0  0.14139  0.13834  0.14807  1.0000
  C   C84       1.0  0.18099  0.46715  0.45818  1.0000
  H   H66       1.0  0.17405  0.11458  0.34066  1.0000
  C   C85       1.0  0.22963  0.45171  0.39765  1.0000
  C   C86       1.0  0.13116  0.27695  0.44000  1.0000
  C   C87       1.0  0.12928  0.17410  0.48691  1.0000
  H   H67       1.0  0.16897  0.45603  0.45408  1.0000
  S   S26       1.0  0.22653  0.15078  0.28105  1.0000
  C   C88       1.0  0.13840  0.13966  0.02887  1.0000
  H   H68       1.0  0.21691  0.06452  0.35688  1.0000
  H   H69       1.0  0.02238  0.18483  0.40709  1.0000
  C   C89       1.0  0.20377  0.40204  0.27715  1.0000
  H   H70       1.0  0.17742  0.31131  0.45832  1.0000
  H   H71       1.0  0.21722  0.46102  0.38995  1.0000
  H   H72       1.0  0.04512  0.34141  0.04375  1.0000
  C   C90       1.0  0.12977  0.29917  0.44687  1.0000
  C   C91       1.0  0.21664  0.06111  0.39409  1.0000
  H   H73       1.0  0.21808  0.40652  0.26966  1.0000
  C   C92       1.0  0.11269  0.20046  0.02927  1.0000
  H   H74       1.0  0.05990  0.10631  0.34053  1.0000
  H   H75       1.0  0.18129  0.11162  0.38253  1.0000
  C   C93       1.0  0.20552  0.10017  0.09100  1.0000
  C   C94       1.0  0.17373  0.30730  0.47624  1.0000
  C   C95       1.0  0.22411  0.05685  0.37193  1.0000
  H   H76       1.0  0.17988  0.09005  0.04154  1.0000
  C   C96       1.0  0.21305  0.11631  0.37808  1.0000
  C   C97       1.0  0.24296  0.33796  0.49917  1.0000
  H   H77       1.0  0.15534  0.42027  0.27894  1.0000
  H   H78       1.0  0.14665  0.44521  0.02526  1.0000
  C   C98       1.0  0.04677  0.16204  0.01980  1.0000
  H   H79       1.0  0.20349  0.07172  0.39622  1.0000
  C   C99       1.0  0.03719  0.13095  0.23612  1.0000
  C   C100      1.0  0.04170  0.14011  0.21424  1.0000
  C   C101      1.0  0.05739  0.15504  0.21166  1.0000
  C   C102      1.0  0.06863  0.16078  0.23088  1.0000
  C   C103      1.0  0.06426  0.15161  0.25294  1.0000
  C   C104      1.0  0.04844  0.13661  0.25542  1.0000
  P   P5        1.0  0.07944  0.15876  0.27742  1.0000
  C   C105      1.0  0.16446  0.47141  0.03878  1.0000
  C   C106      1.0  0.10299  0.14347  0.27689  1.0000
  C   C107      1.0  0.11031  0.13409  0.25636  1.0000
  C   C108      1.0  0.12838  0.12196  0.25636  1.0000
  C   C109      1.0  0.13920  0.11897  0.27684  1.0000
  C   C110      1.0  0.13197  0.12817  0.29735  1.0000
  C   C111      1.0  0.11404  0.14051  0.29738  1.0000
  H   H80       1.0  0.00323  0.25580  0.08071  1.0000
  C   C112      1.0  0.15829  0.20584  0.39124  1.0000
  H   H81       1.0  0.18382  0.45656  0.34263  1.0000
  C   C113      1.0  0.21897  0.33079  0.32016  1.0000
  C   C114      1.0  0.21604  0.06232  0.03478  1.0000
  H   H82       1.0  0.19638  0.12130  0.02585  1.0000
  H   H83       1.0  0.20135  0.12248  0.31251  1.0000
  H   H84       1.0  0.16617  0.21680  0.00971  1.0000
  H   H85       1.0  0.15634  0.19328  0.37829  1.0000
  C   C115      1.0  0.21924  0.05955  0.01102  1.0000
  H   H86       1.0  0.01222  0.16210  0.37412  1.0000
  H   H87       1.0  0.02506  0.11930  0.23803  1.0000
  H   H88       1.0  0.03316  0.13555  0.19920  1.0000
  H   H89       1.0  0.06100  0.16200  0.19465  1.0000
  H   H90       1.0  0.08091  0.17220  0.22844  1.0000
  C   C116      1.0  0.24137  0.17073  0.36613  1.0000
  H   H91       1.0  0.10226  0.13619  0.24027  1.0000
  H   H92       1.0  0.13406  0.11504  0.24039  1.0000
  H   H93       1.0  0.15330  0.10977  0.27680  1.0000
  H   H94       1.0  0.14043  0.12609  0.31322  1.0000
  H   H95       1.0  0.10891  0.14778  0.31344  1.0000
  C   C117      1.0  0.21480  0.14119  0.00370  1.0000
  C   C118      1.0  0.06715  0.12918  0.31242  1.0000
  H   H96       1.0  0.15719  0.10938  0.10780  1.0000
  H   H97       1.0  0.23597  0.35682  0.37747  1.0000
  C   C119      1.0  0.20244  0.09482  0.06775  1.0000
  C   C120      1.0  0.10972  0.47398  0.01304  1.0000
  C   C121      1.0  0.21144  0.12393  0.01989  1.0000
  H   H98       1.0  0.14873  0.31714  0.25382  1.0000
  C   C122      1.0  0.16980  0.10540  0.09668  1.0000
  C   C123      1.0  0.02895  0.34149  0.04494  1.0000
  C   C124      1.0  0.18930  0.11583  0.34662  1.0000
  C   C125      1.0  0.23778  0.32531  0.32925  1.0000
  C   C126      1.0  0.12503  0.18938  0.46884  1.0000
  H   H99       1.0  0.03529  0.15300  0.02923  1.0000
  H   H100      1.0  0.09801  0.19549  0.03517  1.0000
  H   H101      1.0  0.12811  0.10927  0.16413  1.0000
  H   H102      1.0  0.23249  0.33341  0.48595  1.0000
  C   C127      1.0  0.17564  0.21845  0.39110  1.0000
  C   C128      1.0  0.17836  0.23437  0.40805  1.0000
  H   H103      1.0  0.11252  0.25170  0.48892  1.0000
  H   H104      1.0  0.19165  0.10952  0.12330  1.0000
  C   C129      1.0  0.10181  0.22627  0.43506  1.0000
  C   C130      1.0  0.09753  0.23034  0.41155  1.0000
  C   C131      1.0  0.07835  0.22671  0.40314  1.0000
  C   C132      1.0  0.06325  0.21945  0.41821  1.0000
  C   C133      1.0  0.06724  0.21603  0.44174  1.0000
  C   C134      1.0  0.08639  0.21959  0.45021  1.0000
  H   H105      1.0  0.12350  0.15728  0.48646  1.0000
  H   H106      1.0  0.18694  0.21598  0.37779  1.0000
  H   H107      1.0  0.15149  0.09996  0.06681  1.0000
  H   H108      1.0  0.15800  0.15782  0.07988  1.0000
  H   H109      1.0  0.10899  0.23612  0.39965  1.0000
  H   H110      1.0  0.07527  0.22915  0.38487  1.0000
  H   H111      1.0  0.04856  0.21605  0.41160  1.0000
  H   H112      1.0  0.05555  0.21028  0.45343  1.0000
  C   C135      1.0  0.03682  0.03141  0.44456  1.0000
  C   C136      1.0  0.18277  0.09453  0.05930  1.0000
  C   C137      1.0  0.11488  0.22387  0.11417  1.0000
  C   C138      1.0  0.12462  0.23954  0.10003  1.0000
  C   C139      1.0  0.14475  0.23617  0.09421  1.0000
  C   C140      1.0  0.15505  0.21696  0.10223  1.0000
  C   C141      1.0  0.14516  0.20082  0.11589  1.0000
  C   C142      1.0  0.12513  0.20468  0.12220  1.0000
  P   P6        1.0  0.15847  0.17631  0.12688  1.0000
  C   C143      1.0  0.16853  0.18168  0.15521  1.0000
  C   C144      1.0  0.14154  0.15302  0.12867  1.0000
  C   C145      1.0  0.12825  0.14939  0.11050  1.0000
  C   C146      1.0  0.16222  0.20058  0.16746  1.0000
  C   C147      1.0  0.16948  0.20417  0.18968  1.0000
  C   C148      1.0  0.18265  0.18871  0.20013  1.0000
  C   C149      1.0  0.18902  0.16984  0.18811  1.0000
  C   C150      1.0  0.18216  0.16643  0.16564  1.0000
  C   C151      1.0  0.17807  0.16958  0.10618  1.0000
  C   C152      1.0  0.19816  0.17409  0.11090  1.0000
  C   C153      1.0  0.21316  0.16912  0.09467  1.0000
  C   C154      1.0  0.20821  0.16002  0.07343  1.0000
  C   C155      1.0  0.18824  0.15613  0.06832  1.0000
  C   C156      1.0  0.17326  0.16091  0.08453  1.0000
  H   H113      1.0  0.09932  0.22655  0.11894  1.0000
  H   H114      1.0  0.11658  0.25436  0.09376  1.0000
  H   H115      1.0  0.15235  0.24854  0.08355  1.0000
  H   H116      1.0  0.17069  0.21478  0.09781  1.0000
  H   H117      1.0  0.11742  0.19286  0.13337  1.0000
  S   S27       1.0  0.99743  0.10645  0.47297  1.0000
  H   H118      1.0  0.12717  0.16101  0.09593  1.0000
  H   H119      1.0  0.15136  0.21237  0.16027  1.0000
  H   H120      1.0  0.16427  0.21857  0.19925  1.0000
  H   H121      1.0  0.18752  0.19119  0.21776  1.0000
  H   H122      1.0  0.19891  0.15765  0.19646  1.0000
  H   H123      1.0  0.18697  0.15156  0.15666  1.0000
  H   H124      1.0  0.20232  0.18171  0.12692  1.0000
  H   H125      1.0  0.06060  0.13226  0.00640  1.0000
  C   C157      1.0  0.16842  0.40976  0.28232  1.0000
  H   H126      1.0  0.09529  0.09906  0.01855  1.0000
  H   H127      1.0  0.05394  0.19659  0.26271  1.0000
  H   H128      1.0  0.07343  0.11610  0.30176  1.0000
  C   C158      1.0  0.16355  0.23805  0.42482  1.0000
  C   C159      1.0  0.16658  0.10001  0.07363  1.0000
  C   C160      1.0  0.05952  0.12355  0.33435  1.0000
  H   H129      1.0  0.21794  0.42804  0.49534  1.0000
  C   C161      1.0  0.14051  0.12377  0.01131  1.0000
  H   H130      1.0  0.22862  0.17254  0.09846  1.0000
  C   C162      1.0  0.11776  0.26475  0.47720  1.0000
  H   H131      1.0  0.11658  0.48981  0.00889  1.0000
  C   C163      1.0  0.12471  0.10937  0.00753  1.0000
  C   C164      1.0  0.15722  0.45825  0.02113  1.0000
  C   C165      1.0  0.14344  0.20943  0.40799  1.0000
  H   H132      1.0  0.04474  0.12922  0.27212  1.0000
  C   C166      1.0  0.05951  0.16826  0.31908  1.0000
  H   H133      1.0  0.13643  0.27351  0.42265  1.0000
  H   H134      1.0  0.13024  0.19919  0.40797  1.0000
  H   H135      1.0  0.15441  0.27849  0.26936  1.0000
  C   C167      1.0  0.11591  0.11632  0.13036  1.0000
  C   C168      1.0  0.11621  0.28703  0.48394  1.0000
  C   C169      1.0  0.06304  0.19677  0.00982  1.0000
  C   C170      1.0  0.19723  0.46933  0.44297  1.0000
  C   C171      1.0  0.05346  0.02482  0.45769  1.0000
  S   S28       1.0  0.05389  0.37340  0.00486  1.0000
  C   C172      1.0  0.18689  0.41553  0.27271  1.0000
  H   H136      1.0  0.09175  0.25267  0.27231  1.0000
  H   H137      1.0  0.18428  0.14932  0.05178  1.0000
  H   H138      1.0  0.10569  0.10248  0.13113  1.0000
  H   H139      1.0  0.14013  0.27622  0.00645  1.0000
  H   H140      1.0  0.11876  0.22722  0.28658  1.0000
  H   H141      1.0  0.08909  0.21690  0.46856  1.0000
  C   C173      1.0  0.19345  0.11406  0.37027  1.0000
  C   C174      1.0  0.22612  0.05167  0.41354  1.0000
  C   C175      1.0  0.22866  0.12029  0.36218  1.0000
  H   H142      1.0  0.15018  0.23411  0.48852  1.0000
  C   C176      1.0  0.22725  0.10996  0.02752  1.0000
  H   H143      1.0  0.03401  0.04901  0.44065  1.0000
  H   H144      1.0  0.04312  0.47073  0.00395  1.0000
  C   C177      1.0  0.14701  0.20846  0.03869  1.0000
  H   H145      1.0  0.21979  0.15619  0.06081  1.0000
  C   C178      1.0  0.13202  0.21133  0.46955  1.0000
  C   C179      1.0  0.14411  0.21749  0.48803  1.0000
  C   C180      1.0  0.01798  0.32809  0.03037  1.0000
  S   S29       1.0  0.11306  0.48504  0.05941  1.0000
  H   H146      1.0  0.06386  0.21467  0.01191  1.0000
  C   C181      1.0  0.02362  0.01537  0.43692  1.0000
  S   S30       1.0  0.07922  0.31411  0.02788  1.0000
  H   H147      1.0  0.01054  0.02057  0.42708  1.0000
  C   C182      1.0  0.10451  0.22050  0.28174  1.0000
  C   C183      1.0  0.06815  0.20307  0.26802  1.0000
  C   C184      1.0  0.24068  0.04252  0.36914  1.0000
  H   H148      1.0  0.18811  0.43049  0.26187  1.0000
  C   C185      1.0  0.10170  0.19740  0.28284  1.0000
  H   H149      1.0  0.20273  0.00641  0.00609  1.0000
  H   H150      1.0  0.04677  0.13598  0.36605  1.0000
  C   C186      1.0  0.00129  0.16682  0.38712  1.0000
  C   C187      1.0  0.06100  0.15035  0.00680  1.0000
  H   H151      1.0  0.22571  0.42378  0.37545  1.0000
  C   C188      1.0  0.17816  0.48814  0.03356  1.0000
  C   C189      1.0  0.99987  0.00907  0.48953  1.0000
  H   H152      1.0  0.17287  0.49432  0.32812  1.0000
  C   C190      1.0  0.21295  0.48354  0.44809  1.0000
  H   H153      1.0  0.23180  0.17336  0.21489  1.0000
  C   C191      1.0  0.23447  0.43055  0.38927  1.0000
  C   C192      1.0  0.99713  0.32738  0.03241  1.0000
  S   S31       1.0  0.09665  0.10029  0.49526  1.0000
  C   C193      1.0  0.17812  0.28602  0.48553  1.0000
  H   H154      1.0  0.02584  0.31802  0.01786  1.0000
  H   H155      1.0  0.23152  0.20506  0.36106  1.0000
  H   H156      1.0  0.23574  0.12708  0.32622  1.0000
  H   H157      1.0  0.99935  0.29288  0.06198  1.0000
  C   C194      1.0  0.99529  0.25761  0.06444  1.0000
  H   H158      1.0  0.09995  0.24607  0.00147  1.0000
  C   C195      1.0  0.99834  0.35447  0.06309  1.0000
  C   C196      1.0  0.01107  0.42742  0.00718  1.0000
  H   H159      1.0  0.06956  0.99750  0.47408  1.0000
  C   C197      1.0  0.02888  0.43906  0.00880  1.0000
  H   H160      1.0  0.01081  0.40975  0.01178  1.0000
  C   C198      1.0  0.21463  0.03932  0.00080  1.0000
  C   C199      1.0  0.19557  0.49385  0.48355  1.0000
  H   H161      1.0  0.09541  0.49337  0.11193  1.0000
  H   H162      1.0  0.01266  0.27402  0.00000  1.0000
  C   C200      1.0  0.09628  0.43846  0.00033  1.0000
  H   H163      1.0  0.22536  0.07293  0.00035  1.0000
  C   C201      1.0  0.11113  0.03714  0.51840  1.0000
  C   C202      1.0  0.18965  0.19589  0.95061  1.0000
  Fe  Fe17      1.0  0.05872  0.28724  0.60662  1.0000
  S   S32       1.0  0.04298  0.31486  0.58668  1.0000
  S   S33       1.0  0.05669  0.24985  0.59916  1.0000
  Fe  Fe18      1.0  0.08056  0.32000  0.63810  1.0000
  S   S34       1.0  0.06639  0.34985  0.61894  1.0000
  S   S35       1.0  0.10336  0.32783  0.66687  1.0000
  Fe  Fe19      1.0  0.03710  0.33128  0.62114  1.0000
  S   S36       1.0  0.00750  0.34659  0.63685  1.0000
  Fe  Fe20      1.0  0.07329  0.33128  0.58596  1.0000
  S   S37       1.0  0.08464  0.34116  0.54928  1.0000
  S   S38       1.0  0.05123  0.30217  0.64145  1.0000
  S   S39       1.0  0.08900  0.30288  0.60486  1.0000
  H   H164      1.0  0.22147  0.28007  0.88881  1.0000
  S   S40       1.0  0.04725  0.33066  0.97124  1.0000
  Fe  Fe21      1.0  0.07563  0.38657  0.97832  1.0000
  S   S41       1.0  0.05544  0.38044  0.94798  1.0000
  C   C203      1.0  0.21078  0.45258  0.95360  1.0000
  Fe  Fe22      1.0  0.03434  0.36562  0.97437  1.0000
  Fe  Fe23      1.0  0.07014  0.34621  0.94721  1.0000
  S   S42       1.0  0.07909  0.32587  0.91565  1.0000
  S   S43       1.0  0.09172  0.35329  0.97551  1.0000
  Fe  Fe24      1.0  0.21026  0.31635  0.79893  1.0000
  S   S44       1.0  0.20220  0.28135  0.78854  1.0000
  S   S45       1.0  0.09011  0.99919  0.53203  1.0000
  Fe  Fe25      1.0  0.17286  0.31972  0.83069  1.0000
  S   S46       1.0  0.16240  0.28554  0.82223  1.0000
  S   S47       1.0  0.15912  0.34295  0.85753  1.0000
  Fe  Fe26      1.0  0.19455  0.27465  0.82638  1.0000
  S   S48       1.0  0.20630  0.24671  0.85117  1.0000
  Fe  Fe27      1.0  0.17040  0.29482  0.78488  1.0000
  S   S49       1.0  0.14926  0.28414  0.75564  1.0000
  S   S50       1.0  0.20473  0.30879  0.83667  1.0000
  S   S51       1.0  0.17878  0.32988  0.79341  1.0000
  Fe  Fe28      1.0  0.17574  0.10594  0.96198  1.0000
  S   S52       1.0  0.20027  0.12789  0.94798  1.0000
  C   C204      1.0  0.16821  0.99673  0.88544  1.0000
  Fe  Fe29      1.0  0.18338  0.07141  0.92250  1.0000
  S   S53       1.0  0.20825  0.09219  0.90713  1.0000
  S   S54       1.0  0.17724  0.03572  0.90865  1.0000
  Fe  Fe30      1.0  0.21893  0.09632  0.94399  1.0000
  C   C205      1.0  0.01197  0.47270  0.99445  1.0000
  Fe  Fe31      1.0  0.18777  0.12220  0.91285  1.0000
  S   S55       1.0  0.17769  0.14996  0.88688  1.0000
  S   S56       1.0  0.19499  0.07454  0.95938  1.0000
  S   S57       1.0  0.16231  0.10129  0.92662  1.0000
  H   H165      1.0  0.06262  0.07089  0.50264  1.0000
  C   C206      1.0  0.18566  0.17714  0.87781  1.0000
  C   C207      1.0  0.17491  0.18877  0.86028  1.0000
  C   C208      1.0  0.18069  0.21019  0.85220  1.0000
  C   C209      1.0  0.19734  0.22036  0.86164  1.0000
  C   C210      1.0  0.20792  0.20885  0.87941  1.0000
  C   C211      1.0  0.20218  0.18740  0.88742  1.0000
  H   H166      1.0  0.16213  0.18103  0.85266  1.0000
  H   H167      1.0  0.17253  0.21863  0.83837  1.0000
  H   H168      1.0  0.22087  0.21645  0.88680  1.0000
  H   H169      1.0  0.21059  0.17879  0.90096  1.0000
  C   C212      1.0  0.10179  0.33026  0.90021  1.0000
  C   C213      1.0  0.10772  0.31530  0.88288  1.0000
  C   C214      1.0  0.12540  0.31867  0.86991  1.0000
  C   C215      1.0  0.13725  0.33717  0.87404  1.0000
  C   C216      1.0  0.13146  0.35190  0.89158  1.0000
  C   C217      1.0  0.11389  0.34843  0.90468  1.0000
  H   H170      1.0  0.09859  0.30107  0.87941  1.0000
  H   H171      1.0  0.12971  0.30713  0.85655  1.0000
  H   H172      1.0  0.14053  0.36621  0.89496  1.0000
  H   H173      1.0  0.10955  0.36002  0.91799  1.0000
  C   C218      1.0  0.16713  0.02036  0.88487  1.0000
  C   C219      1.0  0.15808  0.03083  0.86554  1.0000
  H   H174      1.0  0.15658  0.04881  0.86483  1.0000
  C   C220      1.0  0.06525  0.36438  0.84032  1.0000
  H   H175      1.0  0.01864  0.37876  0.55079  1.0000
  C   C221      1.0  0.17232  0.46848  0.92082  1.0000
  C   C222      1.0  0.08217  0.26669  0.97853  1.0000
  C   C223      1.0  0.11578  0.31521  0.69161  1.0000
  C   C224      1.0  0.11245  0.29319  0.69929  1.0000
  C   C225      1.0  0.12270  0.28413  0.71888  1.0000
  C   C226      1.0  0.13649  0.29680  0.73119  1.0000
  C   C227      1.0  0.13979  0.31880  0.72352  1.0000
  C   C228      1.0  0.12948  0.32791  0.70401  1.0000
  H   H176      1.0  0.10203  0.28309  0.69010  1.0000
  H   H177      1.0  0.11998  0.26708  0.72449  1.0000
  H   H178      1.0  0.15046  0.32874  0.73251  1.0000
  H   H179      1.0  0.13229  0.34492  0.69834  1.0000
  C   C229      1.0  0.13948  0.37479  0.51448  1.0000
  C   C230      1.0  0.13691  0.37513  0.53872  1.0000
  C   C231      1.0  0.12056  0.36455  0.54977  1.0000
  C   C232      1.0  0.10625  0.35384  0.53665  1.0000
  H   H180      1.0  0.01811  0.01793  0.79445  1.0000
  H   H181      1.0  0.02782  0.26708  0.96206  1.0000
  H   H182      1.0  0.14766  0.38366  0.54906  1.0000
  H   H183      1.0  0.11882  0.36504  0.56839  1.0000
  H   H184      1.0  0.01453  0.25705  0.62684  1.0000
  C   C233      1.0  0.04676  0.21518  0.52943  1.0000
  C   C234      1.0  0.04258  0.23824  0.53152  1.0000
  C   C235      1.0  0.04572  0.24918  0.55258  1.0000
  C   C236      1.0  0.05291  0.23712  0.57197  1.0000
  C   C237      1.0  0.05683  0.21404  0.56994  1.0000
  C   C238      1.0  0.05393  0.20315  0.54881  1.0000
  C   C239      1.0  0.07627  0.16179  0.99525  1.0000
  H   H185      1.0  0.04255  0.26690  0.55387  1.0000
  H   H186      1.0  0.06228  0.20451  0.58483  1.0000
  H   H187      1.0  0.05714  0.18544  0.54757  1.0000
  H   H188      1.0  0.18607  0.14610  0.82675  1.0000
  H   H189      1.0  0.03701  0.24773  0.51668  1.0000
  H   H190      1.0  0.21999  0.22308  0.80366  1.0000
  C   C240      1.0  0.09260  0.02694  0.52099  1.0000
  H   H191      1.0  0.13914  0.13723  0.95497  1.0000
  H   H192      1.0  0.16401  0.45392  0.88852  1.0000
  H   H193      1.0  0.07613  0.37018  0.80564  1.0000
  H   H194      1.0  0.13839  0.15014  0.91385  1.0000
  C   C241      1.0  0.13840  0.45946  0.91057  1.0000
  C   C242      1.0  0.22239  0.33894  0.57599  1.0000
  C   C243      1.0  0.12527  0.36389  0.50138  1.0000
  H   H195      1.0  0.18652  0.41771  0.91067  1.0000
  C   C244      1.0  0.09248  0.29695  0.78844  1.0000
  C   C245      1.0  0.07742  0.28164  0.78389  1.0000
  P   P7        1.0  0.08674  0.32652  0.78724  1.0000
  C   C246      1.0  0.07489  0.33479  0.81404  1.0000
  C   C247      1.0  0.10921  0.34276  0.78426  1.0000
  C   C248      1.0  0.12000  0.34818  0.80410  1.0000
  C   C249      1.0  0.13645  0.36217  0.80225  1.0000
  C   C250      1.0  0.14262  0.37041  0.78059  1.0000
  C   C251      1.0  0.13224  0.36479  0.76074  1.0000
  C   C252      1.0  0.11556  0.35111  0.76253  1.0000
  C   C253      1.0  0.07221  0.35761  0.81862  1.0000
  H   H196      1.0  0.11571  0.46746  0.93584  1.0000
  C   C254      1.0  0.22180  0.20556  0.80864  1.0000
  H   H197      1.0  0.14412  0.16856  0.51951  1.0000
  C   C255      1.0  0.07124  0.33165  0.76205  1.0000
  C   C256      1.0  0.07652  0.32166  0.74102  1.0000
  C   C257      1.0  0.06523  0.32602  0.72109  1.0000
  C   C258      1.0  0.04834  0.34004  0.72208  1.0000
  C   C259      1.0  0.04272  0.34969  0.74303  1.0000
  C   C260      1.0  0.05412  0.34554  0.76299  1.0000
  C   C261      1.0  0.20794  0.47496  0.95984  1.0000
  H   H198      1.0  0.07085  0.21260  0.94595  1.0000
  C   C262      1.0  0.13152  0.46784  0.93161  1.0000
  C   C263      1.0  0.13110  0.15251  0.95012  1.0000
  H   H199      1.0  0.06254  0.28750  0.77924  1.0000
  H   H200      1.0  0.11570  0.34173  0.82108  1.0000
  H   H201      1.0  0.14461  0.36635  0.81762  1.0000
  H   H202      1.0  0.15565  0.38082  0.77915  1.0000
  H   H203      1.0  0.13719  0.37082  0.74385  1.0000
  H   H204      1.0  0.10788  0.34714  0.74682  1.0000
  H   H205      1.0  0.22085  0.09050  0.80372  1.0000
  H   H206      1.0  0.09789  0.00974  0.58979  1.0000
  H   H207      1.0  0.00707  0.47495  0.92677  1.0000
  H   H208      1.0  0.08970  0.31092  0.73985  1.0000
  H   H209      1.0  0.01989  0.29913  0.52871  1.0000
  H   H210      1.0  0.02960  0.36054  0.74371  1.0000
  H   H211      1.0  0.04954  0.35324  0.77896  1.0000
  C   C264      1.0  0.18527  0.31746  0.90451  1.0000
  C   C265      1.0  0.20364  0.30942  0.89635  1.0000
  C   C266      1.0  0.20765  0.28643  0.89627  1.0000
  C   C267      1.0  0.19342  0.27147  0.90478  1.0000
  C   C268      1.0  0.17513  0.27943  0.91375  1.0000
  C   C269      1.0  0.17100  0.30257  0.91302  1.0000
  P   P8        1.0  0.15664  0.25999  0.92438  1.0000
  C   C270      1.0  0.14022  0.25354  0.90088  1.0000
  C   C271      1.0  0.16934  0.23480  0.93485  1.0000
  H   H212      1.0  0.06062  0.31346  0.86687  1.0000
  C   C272      1.0  0.10072  0.25079  0.79070  1.0000
  C   C273      1.0  0.11997  0.24911  0.90520  1.0000
  C   C274      1.0  0.10731  0.24410  0.88694  1.0000
  C   C275      1.0  0.11486  0.24305  0.86434  1.0000
  C   C276      1.0  0.13509  0.24690  0.86004  1.0000
  C   C277      1.0  0.14774  0.25219  0.87819  1.0000
  C   C278      1.0  0.14261  0.27311  0.94748  1.0000
  C   C279      1.0  0.12782  0.28928  0.94199  1.0000
  C   C280      1.0  0.11800  0.30096  0.95946  1.0000
  H   H213      1.0  0.20872  0.21806  0.96873  1.0000
  H   H214      1.0  0.09774  0.34555  0.50201  1.0000
  H   H215      1.0  0.18176  0.33521  0.90349  1.0000
  C   C281      1.0  0.22546  0.16043  0.82264  1.0000
  C   C282      1.0  0.07516  0.03925  0.51514  1.0000
  H   H216      1.0  0.19658  0.25370  0.90375  1.0000
  H   H217      1.0  0.15673  0.30933  0.91852  1.0000
  C   C283      1.0  0.07040  0.31886  0.83150  1.0000
  C   C284      1.0  0.09103  0.24641  0.98590  1.0000
  H   H218      1.0  0.11388  0.24966  0.92261  1.0000
  H   H219      1.0  0.09164  0.24111  0.89029  1.0000
  H   H220      1.0  0.10509  0.23923  0.85015  1.0000
  H   H221      1.0  0.14103  0.24580  0.84259  1.0000
  H   H222      1.0  0.16338  0.25512  0.87442  1.0000
  H   H223      1.0  0.12411  0.29327  0.92412  1.0000
  H   H224      1.0  0.10669  0.31341  0.95486  1.0000
  H   H225      1.0  0.21716  0.23781  0.59848  1.0000
  H   H226      1.0  0.15778  0.25561  0.97586  1.0000
  H   H227      1.0  0.13973  0.21329  0.98057  1.0000
  C   C285      1.0  0.16335  0.21368  0.92776  1.0000
  C   C286      1.0  0.22854  0.38770  0.89642  1.0000
  H   H228      1.0  0.99705  0.32484  0.93329  1.0000
  C   C287      1.0  0.00091  0.28841  0.61581  1.0000
  H   H229      1.0  0.99803  0.36755  0.92933  1.0000
  C   C288      1.0  0.00876  0.28505  0.98556  1.0000
  C   C289      1.0  0.03520  0.35256  0.53391  1.0000
  H   H230      1.0  0.12793  0.45260  0.89852  1.0000
  C   C290      1.0  0.18585  0.23624  0.94960  1.0000
  H   H231      1.0  0.23820  0.07399  0.77044  1.0000
  H   H232      1.0  0.00299  0.29629  0.63234  1.0000
  C   C291      1.0  0.21284  0.40355  0.89449  1.0000
  C   C292      1.0  0.19238  0.41592  0.54500  1.0000
  H   H233      1.0  0.05722  0.24901  0.93156  1.0000
  H   H234      1.0  0.06979  0.31877  0.70477  1.0000
  H   H235      1.0  0.06079  0.03149  0.51714  1.0000
  C   C293      1.0  0.06345  0.32571  0.85316  1.0000
  C   C294      1.0  0.11056  0.18461  0.96112  1.0000
  H   H236      1.0  0.18832  0.99772  0.57234  1.0000
  P   P9        1.0  0.09810  0.20024  0.98383  1.0000
  C   C295      1.0  0.12132  0.16496  0.96711  1.0000
  C   C296      1.0  0.00014  0.31352  0.94779  1.0000
  H   H237      1.0  0.04819  0.36274  0.53056  1.0000
  C   C297      1.0  0.16559  0.47612  0.94239  1.0000
  S   S58       1.0  0.09123  0.42039  0.97717  1.0000
  H   H238      1.0  0.02043  0.29259  0.92847  1.0000
  C   C298      1.0  0.06101  0.34843  0.85763  1.0000
  C   C299      1.0  0.06674  0.24826  0.94667  1.0000
  C   C300      1.0  0.01559  0.01948  0.50061  1.0000
  C   C301      1.0  0.01318  0.04140  0.50812  1.0000
  C   C302      1.0  0.20977  0.33666  0.61543  1.0000
  H   H239      1.0  0.23519  0.39603  0.78800  1.0000
  C   C303      1.0  0.07476  0.22775  0.95463  1.0000
  H   H240      1.0  0.06437  0.28373  0.95248  1.0000
  H   H241      1.0  0.11505  0.30575  0.99621  1.0000
  C   C304      1.0  0.19589  0.21684  0.95754  1.0000
  C   C305      1.0  0.23945  0.39144  0.82475  1.0000
  H   H242      1.0  0.23513  0.33869  0.85686  1.0000
  C   C306      1.0  0.15064  0.01805  0.84719  1.0000
  H   H243      1.0  0.01124  0.23974  0.58866  1.0000
  H   H244      1.0  0.15522  0.08888  0.85327  1.0000
  H   H245      1.0  0.20189  0.32761  0.62908  1.0000
  C   C307      1.0  0.16910  0.09678  0.84835  1.0000
  C   C308      1.0  0.99935  0.99942  0.84618  1.0000
  C   C309      1.0  0.00207  0.34823  0.55034  1.0000
  H   H246      1.0  0.21772  0.36669  0.95042  1.0000
  H   H247      1.0  0.18968  0.39420  0.94645  1.0000
  H   H248      1.0  0.18549  0.43618  0.51466  1.0000
  C   C310      1.0  0.18566  0.24544  0.59580  1.0000
  C   C311      1.0  0.20571  0.24746  0.58930  1.0000
  C   C312      1.0  0.21102  0.26221  0.57126  1.0000
  C   C313      1.0  0.19627  0.27485  0.55960  1.0000
  C   C314      1.0  0.17605  0.27245  0.56565  1.0000
  C   C315      1.0  0.17087  0.25802  0.58415  1.0000
  P   P10       1.0  0.15716  0.29003  0.55209  1.0000
  C   C316      1.0  0.15445  0.31367  0.57080  1.0000
  C   C317      1.0  0.16413  0.29707  0.52263  1.0000
  H   H249      1.0  0.17805  0.41923  0.55320  1.0000
  C   C318      1.0  0.23105  0.38394  0.84583  1.0000
  C   C319      1.0  0.20510  0.11782  0.83686  1.0000
  C   C320      1.0  0.00734  0.26634  0.61276  1.0000
  C   C321      1.0  0.01563  0.00696  0.80935  1.0000
  C   C322      1.0  0.16641  0.33254  0.56753  1.0000
  C   C323      1.0  0.16505  0.35020  0.58296  1.0000
  C   C324      1.0  0.15197  0.34901  0.60192  1.0000
  C   C325      1.0  0.14043  0.33005  0.60564  1.0000
  C   C326      1.0  0.14180  0.31236  0.59028  1.0000
  C   C327      1.0  0.13424  0.27502  0.54925  1.0000
  C   C328      1.0  0.13488  0.25217  0.54422  1.0000
  C   C329      1.0  0.11719  0.24067  0.54088  1.0000
  C   C330      1.0  0.09879  0.25195  0.54231  1.0000
  C   C331      1.0  0.09802  0.27474  0.54711  1.0000
  C   C332      1.0  0.11570  0.28632  0.55032  1.0000
  H   H250      1.0  0.18156  0.23433  0.61010  1.0000
  H   H251      1.0  0.15110  0.33038  0.52298  1.0000
  H   H252      1.0  0.06089  0.44312  0.95202  1.0000
  H   H253      1.0  0.20068  0.28667  0.54610  1.0000
  H   H254      1.0  0.15544  0.25669  0.58980  1.0000
  C   C333      1.0  0.10481  0.45935  0.99525  1.0000
  H   H255      1.0  0.02980  0.01073  0.50294  1.0000
  H   H256      1.0  0.02553  0.04977  0.51606  1.0000
  H   H257      1.0  0.21111  0.41370  0.87882  1.0000
  H   H258      1.0  0.17685  0.33368  0.55316  1.0000
  H   H259      1.0  0.17404  0.36487  0.58012  1.0000
  H   H260      1.0  0.15073  0.36275  0.61378  1.0000
  H   H261      1.0  0.13037  0.32905  0.62048  1.0000
  H   H262      1.0  0.13304  0.29762  0.59376  1.0000
  H   H263      1.0  0.14903  0.24324  0.54286  1.0000
  H   H264      1.0  0.11759  0.22298  0.53726  1.0000
  H   H265      1.0  0.08516  0.24295  0.53972  1.0000
  H   H266      1.0  0.08371  0.28346  0.54842  1.0000
  H   H267      1.0  0.11481  0.30410  0.55349  1.0000
  C   C334      1.0  0.07616  0.06157  0.50692  1.0000
  C   C335      1.0  0.01909  0.31670  0.53282  1.0000
  C   C336      1.0  0.08777  0.22682  0.97364  1.0000
  C   C337      1.0  0.18731  0.08562  0.85232  1.0000
  H   H268      1.0  0.03971  0.34349  0.70652  1.0000
  H   H269      1.0  0.08719  0.15212  0.98577  1.0000
  H   H270      1.0  0.15774  0.20685  0.52030  1.0000
  C   C338      1.0  0.18673  0.12898  0.83308  1.0000
  C   C339      1.0  0.22466  0.48778  0.96492  1.0000
  H   H271      1.0  0.15122  0.21204  0.91570  1.0000
  C   C340      1.0  0.19891  0.40590  0.91250  1.0000
  C   C341      1.0  0.03334  0.45678  0.93834  1.0000
  H   H272      1.0  0.20514  0.19378  0.77981  1.0000
  C   C342      1.0  0.02154  0.47606  0.93489  1.0000
  C   C343      1.0  0.24344  0.12757  0.85644  1.0000
  H   H273      1.0  0.06366  0.38199  0.84394  1.0000
  C   C344      1.0  0.05872  0.47878  0.95636  1.0000
  P   P11       1.0  0.18302  0.48663  0.96304  1.0000
  H   H274      1.0  0.15472  0.12735  0.83642  1.0000
  C   C345      1.0  0.09466  0.07192  0.50466  1.0000
  H   H275      1.0  0.19756  0.18082  0.95639  1.0000
  H   H276      1.0  0.12213  0.15917  0.98500  1.0000
  H   H277      1.0  0.01269  0.49007  0.98924  1.0000
  C   C346      1.0  0.14500  0.47655  0.94729  1.0000
  H   H278      1.0  0.24001  0.13593  0.91462  1.0000
  S   S59       1.0  0.16324  0.12267  0.99493  1.0000
  C   C347      1.0  0.20888  0.38310  0.80475  1.0000
  C   C348      1.0  0.20040  0.37561  0.82561  1.0000
  H   H279      1.0  0.13937  0.48338  0.96335  1.0000
  H   H280      1.0  0.20263  0.39412  0.57242  1.0000
  H   H281      1.0  0.20069  0.38191  0.78873  1.0000
  H   H282      1.0  0.18545  0.36896  0.82587  1.0000
  H   H283      1.0  0.22407  0.33138  0.55924  1.0000
  H   H284      1.0  0.02803  0.44068  0.93305  1.0000
  C   C349      1.0  0.16311  0.46234  0.99814  1.0000
  C   C350      1.0  0.15876  0.46004  0.90505  1.0000
  H   H285      1.0  0.12649  0.06743  0.50870  1.0000
  H   H286      1.0  0.00276  0.18241  0.52665  1.0000
  C   C351      1.0  0.16881  0.11841  0.83870  1.0000
  H   H287      1.0  0.21575  0.00383  0.91662  1.0000
  C   C352      1.0  0.17328  0.28087  0.50863  1.0000
  C   C353      1.0  0.12068  0.17974  0.92090  1.0000
  H   H288      1.0  0.17655  0.26423  0.51551  1.0000
  C   C354      1.0  0.13685  0.27991  0.98841  1.0000
  H   H289      1.0  0.22103  0.35664  0.51831  1.0000
  H   H290      1.0  0.05627  0.35361  0.87473  1.0000
  H   H291      1.0  0.12465  0.02789  0.52288  1.0000
  H   H292      1.0  0.07003  0.24694  0.78086  1.0000
  H   H293      1.0  0.12086  0.18563  0.90300  1.0000
  C   C355      1.0  0.08956  0.99601  0.59741  1.0000
  H   H294      1.0  0.04885  0.32300  0.51985  1.0000
  H   H295      1.0  0.21730  0.03715  0.98245  1.0000
  H   H296      1.0  0.07284  0.30120  0.82882  1.0000
  H   H297      1.0  0.10415  0.23302  0.79088  1.0000
  C   C356      1.0  0.23391  0.09865  0.79671  1.0000
  C   C357      1.0  0.22456  0.39634  0.54461  1.0000
  C   C358      1.0  0.99743  0.26893  0.57248  1.0000
  C   C359      1.0  0.17346  0.19434  0.93568  1.0000
  C   C360      1.0  0.13063  0.15977  0.92698  1.0000
  C   C361      1.0  0.22835  0.39110  0.80436  1.0000
  H   H298      1.0  0.12346  0.30037  0.79804  1.0000
  C   C362      1.0  0.11090  0.19229  0.93789  1.0000
  H   H299      1.0  0.19807  0.44209  0.95080  1.0000
  C   C363      1.0  0.15913  0.31809  0.51292  1.0000
  H   H300      1.0  0.14375  0.02657  0.83249  1.0000
  H   H301      1.0  0.13066  0.25987  0.79932  1.0000
  C   C364      1.0  0.11564  0.26591  0.79568  1.0000
  H   H302      1.0  0.22066  0.14196  0.87861  1.0000
  H   H303      1.0  0.20649  0.31083  0.59059  1.0000
  H   H304      1.0  0.19106  0.25240  0.95476  1.0000
  C   C365      1.0  0.14680  0.26821  0.97091  1.0000
  C   C366      1.0  0.11212  0.05956  0.51038  1.0000
  H   H305      1.0  0.10782  0.46413  0.97746  1.0000
  C   C367      1.0  0.21333  0.18906  0.79534  1.0000
  C   C368      1.0  0.11154  0.28893  0.79471  1.0000
  C   C369      1.0  0.99405  0.46113  0.99264  1.0000
  C   C370      1.0  0.00209  0.32577  0.54381  1.0000
  H   H306      1.0  0.18759  0.06906  0.86037  1.0000
  H   H307      1.0  0.16911  0.17810  0.92973  1.0000
  C   C371      1.0  0.07062  0.26778  0.95850  1.0000
  H   H308      1.0  0.22661  0.26405  0.56649  1.0000
  H   H309      1.0  0.20472  0.36921  0.86181  1.0000
  C   C372      1.0  0.99369  0.43838  0.99922  1.0000
  H   H310      1.0  0.21924  0.08742  0.85038  1.0000
  H   H311      1.0  0.06351  0.00307  0.57683  1.0000
  C   C373      1.0  0.08157  0.25865  0.78493  1.0000
  C   C374      1.0  0.23548  0.13441  0.87774  1.0000
  C   C375      1.0  0.14091  0.18048  0.50553  1.0000
  P   P12       1.0  0.22857  0.13120  0.83060  1.0000
  H   H312      1.0  0.24210  0.40162  0.51347  1.0000
  C   C376      1.0  0.21473  0.42076  0.51226  1.0000
  H   H313      1.0  0.10404  0.20801  0.93268  1.0000
  C   C377      1.0  0.05192  0.45817  0.94903  1.0000
  C   C378      1.0  0.03551  0.33012  0.52774  1.0000
  H   H314      1.0  0.07289  0.47939  0.96526  1.0000
  C   C379      1.0  0.14849  0.20209  0.50599  1.0000
  C   C380      1.0  0.21143  0.37588  0.84604  1.0000
  C   C381      1.0  0.10877  0.35360  0.51239  1.0000
  S   S60       1.0  0.23567  0.33715  0.78231  1.0000
  C   C382      1.0  0.12270  0.29655  0.98267  1.0000
  C   C383      1.0  0.07743  0.18515  0.99661  1.0000
  C   C384      1.0  0.01854  0.36157  0.54530  1.0000
  C   C385      1.0  0.17604  0.47996  0.99265  1.0000
  P   P13       1.0  0.24208  0.37615  0.55709  1.0000
  C   C386      1.0  0.19656  0.42554  0.52326  1.0000
  C   C387      1.0  0.20524  0.09611  0.84668  1.0000
  C   C388      1.0  0.00547  0.25658  0.59115  1.0000
  H   H315      1.0  0.21442  0.32097  0.88928  1.0000
  C   C389      1.0  0.00244  0.01351  0.82690  1.0000
  C   C390      1.0  0.20636  0.40151  0.55575  1.0000
  H   H316      1.0  0.08416  0.28163  0.98844  1.0000
  H   H317      1.0  0.18799  0.46910  0.91613  1.0000
  C   C391      1.0  0.21643  0.37709  0.93485  1.0000
  C   C392      1.0  0.22722  0.36962  0.60191  1.0000
  C   C393      1.0  0.23034  0.37461  0.91683  1.0000
  H   H318      1.0  0.20231  0.15135  0.99743  1.0000
  C   C394      1.0  0.22851  0.40597  0.52270  1.0000
  C   C395      1.0  0.23412  0.17712  0.83577  1.0000
  C   C396      1.0  0.23239  0.19955  0.82865  1.0000
  C   C397      1.0  0.20066  0.39261  0.93264  1.0000
  S   S61       1.0  0.00136  0.37584  0.97913  1.0000
  H   H319      1.0  0.20890  0.15389  0.79153  1.0000
  H   H320      1.0  0.00089  0.14893  0.50229  1.0000
  C   C398      1.0  0.24093  0.11841  0.80619  1.0000
  C   C399      1.0  0.21721  0.35784  0.61954  1.0000
  H   H321      1.0  0.99721  0.26139  0.55564  1.0000
  C   C400      1.0  0.21535  0.16654  0.80214  1.0000
  C   C401      1.0  0.21241  0.32719  0.59370  1.0000
  C   C402      1.0  0.22992  0.36025  0.58000  1.0000
  H   H322      1.0  0.24217  0.17303  0.85151  1.0000
  H   H323      1.0  0.12602  0.09709  0.99412  1.0000
  C   C403      1.0  0.23657  0.35126  0.51748  1.0000
  S   S62       1.0  0.04314  0.13223  0.50232  1.0000
  H   H324      1.0  0.15733  0.45186  0.98485  1.0000
  H   H325      1.0  0.23225  0.42628  0.94632  1.0000
  S   S63       1.0  0.04258  0.20240  0.50232  1.0000
  C   C404      1.0  0.23011  0.44353  0.95123  1.0000
  C   C405      1.0  0.01757  0.28111  0.96399  1.0000
  H   H326      1.0  0.23271  0.38615  0.60530  1.0000
  C   C406      1.0  0.23399  0.14457  0.99481  1.0000
  C   C407      1.0  0.01330  0.29536  0.94510  1.0000
  H   H327      1.0  0.21515  0.36517  0.63641  1.0000
  H   H328      1.0  0.22984  0.00847  0.87713  1.0000
  H   H329      1.0  0.23650  0.15738  0.98161  1.0000
  S   S64       1.0  0.16060  0.38829  0.50165  1.0000
  Fe  Fe32      1.0  0.06818  0.33919  0.99967  1.0000
  H   H330      1.0  0.23878  0.21246  0.83901  1.0000
  C   C408      1.0  0.13618  0.21045  0.99874  1.0000
  C   C409      1.0  0.99510  0.30295  0.98834  1.0000
  H   H331      1.0  0.11012  0.29108  0.50079  1.0000
  C   C410      1.0  0.99490  0.05271  0.50502  1.0000
  H   H332      1.0  0.24224  0.36223  0.91879  1.0000
  H   H333      1.0  0.99464  0.02952  0.82560  1.0000
  Fe  Fe33      1.0  0.16086  0.55087  0.04080  1.0000
  S   S65       1.0  0.15516  0.52959  0.07320  1.0000
  S   S66       1.0  0.19277  0.54853  0.02496  1.0000
  Fe  Fe34      1.0  0.11681  0.56732  0.03975  1.0000
  S   S67       1.0  0.10869  0.54798  0.07192  1.0000
  H   H334      1.0  0.02141  0.56747  0.31153  1.0000
  Fe  Fe35      1.0  0.13780  0.55904  0.08708  1.0000
  S   S68       1.0  0.14047  0.57496  0.12320  1.0000
  Fe  Fe36      1.0  0.12647  0.51986  0.05600  1.0000
  S   S69       1.0  0.14486  0.58090  0.05549  1.0000
  S   S70       1.0  0.13325  0.53865  0.02286  1.0000
  C   C411      1.0  0.05805  0.61234  0.15563  1.0000
  Fe  Fe37      1.0  0.12205  0.59611  0.30323  1.0000
  S   S71       1.0  0.12297  0.55901  0.29638  1.0000
  S   S72       1.0  0.09431  0.61991  0.30847  1.0000
  Fe  Fe38      1.0  0.16860  0.59898  0.29661  1.0000
  S   S73       1.0  0.17186  0.56199  0.28998  1.0000
  S   S74       1.0  0.19266  0.62598  0.29113  1.0000
  Fe  Fe39      1.0  0.14467  0.56679  0.26706  1.0000
  S   S75       1.0  0.14291  0.54869  0.23213  1.0000
  Fe  Fe40      1.0  0.15010  0.55672  0.31969  1.0000
  S   S76       1.0  0.15250  0.53220  0.35155  1.0000
  S   S77       1.0  0.14228  0.60375  0.27245  1.0000
  S   S78       1.0  0.14829  0.59378  0.32769  1.0000
  H   H335      1.0  0.02969  0.91462  0.47859  1.0000
  C   C412      1.0  0.02836  0.63214  0.33313  1.0000
  C   C413      1.0  0.03838  0.64793  0.31925  1.0000
  C   C414      1.0  0.05842  0.64390  0.31202  1.0000
  C   C415      1.0  0.06885  0.62396  0.31829  1.0000
  C   C416      1.0  0.05879  0.60819  0.33218  1.0000
  C   C417      1.0  0.03883  0.61229  0.33953  1.0000
  H   H336      1.0  0.03072  0.66331  0.31412  1.0000
  H   H337      1.0  0.06589  0.65635  0.30141  1.0000
  H   H338      1.0  0.06654  0.59308  0.33783  1.0000
  H   H339      1.0  0.03145  0.59997  0.35040  1.0000
  C   C418      1.0  0.06797  0.58985  0.02111  1.0000
  C   C419      1.0  0.05746  0.57514  0.03570  1.0000
  C   C420      1.0  0.05743  0.66740  0.37874  1.0000
  H   H340      1.0  0.05412  0.61403  0.27247  1.0000
  C   C421      1.0  0.19772  0.90840  0.48887  1.0000
  C   C422      1.0  0.19658  0.57068  0.23111  1.0000
  C   C423      1.0  0.08558  0.60014  0.10818  1.0000
  C   C424      1.0  0.14172  0.56720  0.15338  1.0000
  C   C425      1.0  0.14159  0.58413  0.16999  1.0000
  C   C426      1.0  0.14227  0.57892  0.19404  1.0000
  C   C427      1.0  0.14284  0.55659  0.20194  1.0000
  C   C428      1.0  0.14312  0.53970  0.18531  1.0000
  C   C429      1.0  0.14274  0.54492  0.16128  1.0000
  H   H341      1.0  0.14100  0.60144  0.16420  1.0000
  H   H342      1.0  0.14228  0.59218  0.20645  1.0000
  H   H343      1.0  0.14378  0.52237  0.19108  1.0000
  H   H344      1.0  0.14345  0.53170  0.14886  1.0000
  C   C430      1.0  0.11682  0.62563  0.08937  1.0000
  H   H345      1.0  0.08233  0.66255  0.35530  1.0000
  C   C431      1.0  0.09131  0.54675  0.13077  1.0000
  H   H346      1.0  0.06644  0.50624  0.08878  1.0000
  H   H347      1.0  0.21024  0.88288  0.46687  1.0000
  H   H348      1.0  0.21232  0.64547  0.12787  1.0000
  C   C432      1.0  0.05596  0.55038  0.29401  1.0000
  C   C433      1.0  0.01561  0.57956  0.29898  1.0000
  C   C434      1.0  0.03511  0.68465  0.43463  1.0000
  H   H349      1.0  0.00538  0.70531  0.33236  1.0000
  C   C435      1.0  0.05456  0.60164  0.19614  1.0000
  H   H350      1.0  0.19481  0.50353  0.49917  1.0000
  C   C436      1.0  0.07465  0.55420  0.11790  1.0000
  C   C437      1.0  0.21824  0.63097  0.29812  1.0000
  C   C438      1.0  0.22946  0.61671  0.31279  1.0000
  C   C439      1.0  0.20648  0.51816  0.40630  1.0000
  C   C440      1.0  0.22755  0.65006  0.28857  1.0000
  H   H351      1.0  0.22264  0.60196  0.32029  1.0000
  C   C441      1.0  0.20970  0.56403  0.00668  1.0000
  H   H352      1.0  0.00779  0.71828  0.41681  1.0000
  H   H353      1.0  0.05820  0.62533  0.14223  1.0000
  H   H354      1.0  0.06294  0.55583  0.16368  1.0000
  C   C442      1.0  0.01544  0.69525  0.38951  1.0000
  C   C443      1.0  0.22882  0.55483  0.00193  1.0000
  H   H355      1.0  0.06918  0.60681  0.40055  1.0000
  H   H356      1.0  0.01080  0.63076  0.39069  1.0000
  H   H357      1.0  0.12749  0.92493  0.45350  1.0000
  H   H358      1.0  0.06555  0.56269  0.04599  1.0000
  C   C444      1.0  0.06146  0.58990  0.14996  1.0000
  C   C445      1.0  0.21921  0.80201  0.25302  1.0000
  H   H359      1.0  0.23888  0.99362  0.41501  1.0000
  H   H360      1.0  0.22532  0.61030  0.25448  1.0000
  P   P14       1.0  0.06601  0.58286  0.12013  1.0000
  C   C446      1.0  0.01683  0.90137  0.44815  1.0000
  P   P15       1.0  0.02481  0.67333  0.40874  1.0000
  C   C447      1.0  0.05443  0.71305  0.45325  1.0000
  H   H361      1.0  0.23344  0.95517  0.42934  1.0000
  H   H362      1.0  0.23038  0.78007  0.30632  1.0000
  C   C448      1.0  0.01341  0.90442  0.42444  1.0000
  C   C449      1.0  0.06591  0.62377  0.39457  1.0000
  C   C450      1.0  0.07757  0.63342  0.37698  1.0000
  C   C451      1.0  0.07202  0.55849  0.30657  1.0000
  H   H363      1.0  0.08970  0.62392  0.36911  1.0000
  H   H364      1.0  0.18753  0.56986  0.19548  1.0000
  C   C452      1.0  0.10609  0.95090  0.44405  1.0000
  C   C453      1.0  0.04889  0.51210  0.22636  1.0000
  H   H365      1.0  0.18505  0.54024  0.38923  1.0000
  C   C454      1.0  0.06216  0.51084  0.03328  1.0000
  C   C455      1.0  0.10361  0.61510  0.07475  1.0000
  H   H366      1.0  0.08190  0.97411  0.43750  1.0000
  H   H367      1.0  0.20686  0.80971  0.24356  1.0000
  H   H368      1.0  0.18814  0.55604  0.23620  1.0000
  H   H369      1.0  0.05751  0.56639  0.20409  1.0000
  C   C456      1.0  0.00637  0.70829  0.35075  1.0000
  S   S79       1.0  0.00298  0.63621  0.34311  1.0000
  C   C457      1.0  0.00015  0.73207  0.38342  1.0000
  C   C458      1.0  0.06601  0.51410  0.00962  1.0000
  H   H370      1.0  0.04851  0.71290  0.41675  1.0000
  H   H371      1.0  0.01613  0.98073  0.43725  1.0000
  H   H372      1.0  0.23119  0.70201  0.30342  1.0000
  C   C459      1.0  0.04135  0.68209  0.47603  1.0000
  C   C460      1.0  0.04524  0.65759  0.39595  1.0000
  H   H373      1.0  0.12911  0.63505  0.08208  1.0000
  C   C461      1.0  0.19622  0.57852  0.20814  1.0000
  C   C462      1.0  0.01429  0.69170  0.36563  1.0000
  C   C463      1.0  0.21329  0.89792  0.47615  1.0000
  H   H374      1.0  0.02519  0.65772  0.45738  1.0000
  H   H375      1.0  0.18292  0.90149  0.48901  1.0000
  C   C464      1.0  0.08198  0.57429  0.24496  1.0000
  H   H376      1.0  0.02817  0.55980  0.12318  1.0000
  C   C465      1.0  0.03918  0.60650  0.09102  1.0000
  C   C466      1.0  0.02626  0.57378  0.11111  1.0000
  C   C467      1.0  0.18459  0.67319  0.23967  1.0000
  C   C468      1.0  0.18646  0.69387  0.22822  1.0000
  C   C469      1.0  0.20129  0.69680  0.21131  1.0000
  C   C470      1.0  0.21427  0.67905  0.20585  1.0000
  C   C471      1.0  0.21237  0.65814  0.21717  1.0000
  C   C472      1.0  0.19745  0.65541  0.23416  1.0000
  C   C473      1.0  0.21996  0.64137  0.16395  1.0000
  H   H377      1.0  0.17325  0.67080  0.25299  1.0000
  H   H378      1.0  0.17643  0.70760  0.23253  1.0000
  H   H379      1.0  0.20277  0.71285  0.20246  1.0000
  H   H380      1.0  0.23376  0.51728  0.34680  1.0000
  H   H381      1.0  0.19564  0.63964  0.24337  1.0000
  C   C474      1.0  0.23397  0.50513  0.38229  1.0000
  H   H382      1.0  0.20471  0.64426  0.16978  1.0000
  C   C475      1.0  0.02066  0.61010  0.08039  1.0000
  C   C476      1.0  0.09846  0.52475  0.12898  1.0000
  H   H383      1.0  0.11147  0.51920  0.13869  1.0000
  H   H384      1.0  0.01304  0.52652  0.03441  1.0000
  C   C477      1.0  0.00773  0.57748  0.10049  1.0000
  C   C478      1.0  0.22421  0.64211  0.14020  1.0000
  P   P16       1.0  0.04754  0.95712  0.46468  1.0000
  C   C479      1.0  0.00023  0.63653  0.40359  1.0000
  C   C480      1.0  0.02363  0.54922  0.23290  1.0000
  C   C481      1.0  0.08651  0.95906  0.44689  1.0000
  H   H385      1.0  0.00223  0.99248  0.48305  1.0000
  H   H386      1.0  0.22307  0.50826  0.47206  1.0000
  C   C482      1.0  0.00354  0.65620  0.41564  1.0000
  H   H387      1.0  0.18398  0.49829  0.04719  1.0000
  C   C483      1.0  0.11467  0.62320  0.11337  1.0000
  H   H388      1.0  0.00905  0.95142  0.48798  1.0000
  C   C484      1.0  0.02688  0.91755  0.46033  1.0000
  C   C485      1.0  0.20664  0.59775  0.20163  1.0000
  H   H389      1.0  0.02925  0.50401  0.19852  1.0000
  H   H390      1.0  0.20761  0.57622  0.26547  1.0000
  C   C486      1.0  0.02470  0.58248  0.27713  1.0000
  C   C487      1.0  0.23617  0.92643  0.48696  1.0000
  C   C488      1.0  0.06082  0.57331  0.16755  1.0000
  C   C489      1.0  0.07292  0.51748  0.10091  1.0000
  C   C490      1.0  0.09698  0.58797  0.23598  1.0000
  H   H391      1.0  0.20584  0.60354  0.18381  1.0000
  C   C491      1.0  0.08932  0.51014  0.11402  1.0000
  C   C492      1.0  0.21173  0.49627  0.46823  1.0000
  H   H392      1.0  0.03405  0.52431  0.29245  1.0000
  C   C493      1.0  0.04028  0.95678  0.49478  1.0000
  H   H393      1.0  0.22581  0.68164  0.19287  1.0000
  H   H394      1.0  0.12553  0.63037  0.12468  1.0000
  H   H395      1.0  0.07913  0.57394  0.30134  1.0000
  C   C494      1.0  0.06555  0.60656  0.26162  1.0000
  C   C495      1.0  0.05288  0.52709  0.24388  1.0000
  H   H396      1.0  0.23304  0.53884  0.00973  1.0000
  H   H397      1.0  0.01181  0.88641  0.45718  1.0000
  H   H398      1.0  0.04114  0.62819  0.41792  1.0000
  C   C496      1.0  0.06589  0.58352  0.25750  1.0000
  H   H399      1.0  0.05361  0.54514  0.09144  1.0000
  C   C497      1.0  0.08827  0.60208  0.08409  1.0000
  C   C498      1.0  0.01702  0.59901  0.26175  1.0000
  H   H400      1.0  0.02516  0.86342  0.49540  1.0000
  C   C499      1.0  0.16074  0.50458  0.36085  1.0000
  C   C500      1.0  0.09887  0.91950  0.46972  1.0000
  H   H401      1.0  0.11650  0.95991  0.43303  1.0000
  H   H402      1.0  0.07864  0.59343  0.07247  1.0000
  C   C501      1.0  0.07012  0.52686  0.33341  1.0000
  H   H403      1.0  0.01854  0.62391  0.06809  1.0000
  C   C502      1.0  0.00794  0.71543  0.39838  1.0000
  C   C503      1.0  0.07908  0.54674  0.32618  1.0000
  C   C504      1.0  0.03165  0.52632  0.00389  1.0000
  H   H404      1.0  0.08335  0.55653  0.24234  1.0000
  C   C505      1.0  0.20747  0.58200  0.24756  1.0000
  C   C506      1.0  0.04304  0.51517  0.04220  1.0000
  C   C507      1.0  0.99914  0.59288  0.30524  1.0000
  H   H405      1.0  0.10945  0.58065  0.22660  1.0000
  C   C508      1.0  0.23254  0.78519  0.28836  1.0000
  C   C509      1.0  0.04992  0.63586  0.40419  1.0000
  H   H406      1.0  0.20218  0.79725  0.28451  1.0000
  H   H407      1.0  0.06584  0.52402  0.25475  1.0000
  C   C510      1.0  0.21747  0.60937  0.21815  1.0000
  C   C511      1.0  0.15771  0.49773  0.38416  1.0000
  C   C512      1.0  0.05390  0.51882  0.32118  1.0000
  C   C513      1.0  0.03077  0.93960  0.42495  1.0000
  H   H408      1.0  0.05243  0.63557  0.18300  1.0000
  H   H409      1.0  0.09856  0.60773  0.14136  1.0000
  C   C514      1.0  0.06566  0.53949  0.10264  1.0000
  C   C515      1.0  0.23266  0.90677  0.47505  1.0000
  H   H410      1.0  0.03675  0.95388  0.41556  1.0000
  H   H411      1.0  0.10365  0.90426  0.47879  1.0000
  H   H412      1.0  0.09161  0.55306  0.33571  1.0000
  H   H413      1.0  0.00540  0.89191  0.41508  1.0000
  C   C516      1.0  0.05472  0.61818  0.17867  1.0000
  H   H414      1.0  0.02393  0.60182  0.24496  1.0000
  C   C517      1.0  0.07312  0.94769  0.46161  1.0000
  H   H415      1.0  0.01814  0.92560  0.39433  1.0000
  H   H416      1.0  0.01932  0.67601  0.35851  1.0000
  P   P17       1.0  0.22955  0.63541  0.21067  1.0000
  C   C518      1.0  0.03639  0.57653  0.03695  1.0000
  C   C519      1.0  0.02049  0.92347  0.41280  1.0000
  H   H417      1.0  0.02847  0.56529  0.04852  1.0000
  H   H418      1.0  0.19830  0.51834  0.42252  1.0000
  C   C520      1.0  0.04228  0.58794  0.10603  1.0000
  H   H419      1.0  0.99429  0.74760  0.39026  1.0000
  C   C521      1.0  0.99926  0.72846  0.35964  1.0000
  H   H420      1.0  0.99552  0.56630  0.10410  1.0000
  C   C522      1.0  0.21772  0.60131  0.24119  1.0000
  C   C523      1.0  0.23786  0.79937  0.24227  1.0000
  C   C524      1.0  0.01965  0.53415  0.21543  1.0000
  C   C525      1.0  0.09630  0.61092  0.23974  1.0000
  C   C526      1.0  0.09924  0.61033  0.12277  1.0000
  C   C527      1.0  0.03350  0.93705  0.44895  1.0000
  C   C528      1.0  0.02551  0.59231  0.02340  1.0000
  C   C529      1.0  0.23520  0.63656  0.18001  1.0000
  H   H421      1.0  0.21914  0.66126  0.27719  1.0000
  C   C530      1.0  0.07337  0.65524  0.36914  1.0000
  C   C531      1.0  0.11228  0.93114  0.45548  1.0000
  H   H422      1.0  0.05837  0.70876  0.49009  1.0000
  H   H423      1.0  0.04005  0.51272  0.06051  1.0000
  H   H424      1.0  0.05464  0.68437  0.37257  1.0000
  C   C532      1.0  0.03231  0.51565  0.21210  1.0000
  C   C533      1.0  0.21657  0.79497  0.27608  1.0000
  C   C534      1.0  0.00499  0.59555  0.08501  1.0000
  C   C535      1.0  0.02779  0.52284  0.02749  1.0000
  C   C536      1.0  0.22631  0.51768  0.36350  1.0000
  C   C537      1.0  0.04620  0.70432  0.43327  1.0000
  C   C538      1.0  0.22400  0.50510  0.40379  1.0000
  C   C539      1.0  0.04389  0.98591  0.45531  1.0000
  H   H425      1.0  0.05093  0.61823  0.08732  1.0000
  H   H426      1.0  0.23916  0.73869  0.28570  1.0000
  C   C540      1.0  0.19893  0.53073  0.38750  1.0000
  C   C541      1.0  0.20872  0.53036  0.36608  1.0000
  H   H427      1.0  0.06927  0.91862  0.48409  1.0000
  H   H428      1.0  0.15038  0.50914  0.39588  1.0000
  H   H429      1.0  0.05224  0.60624  0.21398  1.0000
  H   H430      1.0  0.07577  0.51774  0.34850  1.0000
  H   H431      1.0  0.20239  0.53961  0.35141  1.0000
  H   H432      1.0  0.07407  0.50492  0.04462  1.0000
  H   H433      1.0  0.01356  0.56333  0.23509  1.0000
  C   C542      1.0  0.03305  0.67335  0.45607  1.0000
  H   H434      1.0  0.06281  0.72836  0.45211  1.0000
  H   H435      1.0  0.10558  0.61655  0.05614  1.0000
  P   P18       1.0  0.04642  0.56580  0.26910  1.0000
  H   H436      1.0  0.10830  0.62135  0.23339  1.0000
  C   C543      1.0  0.04676  0.53059  0.30161  1.0000
  S   S80       1.0  0.09453  0.58881  0.01857  1.0000
  C   C544      1.0  0.05753  0.57922  0.19057  1.0000
  C   C545      1.0  0.05194  0.70199  0.47464  1.0000
  H   H437      1.0  0.00672  0.53683  0.20446  1.0000
  H   H438      1.0  0.04687  0.50349  0.32691  1.0000
  C   C546      1.0  0.02702  0.99271  0.44243  1.0000
  H   H439      1.0  0.08063  0.63779  0.25664  1.0000
  C   C547      1.0  0.00061  0.61239  0.26815  1.0000
  C   C548      1.0  0.08061  0.62020  0.25261  1.0000
  C   C549      1.0  0.07941  0.92778  0.47286  1.0000
  C   C550      1.0  0.04041  0.54593  0.24716  1.0000
  H   H440      1.0  0.09905  0.55808  0.14185  1.0000
  S   S81       1.0  0.99889  0.59254  0.02491  1.0000
  H   H441      1.0  0.23999  0.80512  0.22450  1.0000
  H   H442      1.0  0.99495  0.62539  0.25645  1.0000
  H   H443      1.0  0.03966  0.67335  0.49255  1.0000
  H   H444      1.0  0.08083  0.51026  0.00303  1.0000
  C   C551      1.0  0.05711  0.60593  0.00792  1.0000
  H   H445      1.0  0.19474  0.50525  0.00691  1.0000
  C   C552      1.0  0.03604  0.60726  0.00914  1.0000
  H   H446      1.0  0.05873  0.49775  0.22384  1.0000
  H   H447      1.0  0.19013  0.59232  0.99999  1.0000
  H   H448      1.0  0.06210  0.86568  0.49896  1.0000
  C   C553      1.0  0.22061  0.93686  0.49982  1.0000
  C   C554      1.0  0.05421  0.96168  0.51185  1.0000
  Fe  Fe41      1.0  0.14999  0.94034  0.53307  1.0000
  S   S82       1.0  0.14217  0.96775  0.55827  1.0000
  S   S83       1.0  0.18219  0.94202  0.51763  1.0000
  Fe  Fe42      1.0  0.10794  0.92008  0.53960  1.0000
  S   S84       1.0  0.09844  0.94561  0.56542  1.0000
  S   S85       1.0  0.08794  0.89229  0.52637  1.0000
  Fe  Fe43      1.0  0.11228  0.97065  0.54068  1.0000
  C   C555      1.0  0.03604  0.56641  0.96440  1.0000
  Fe  Fe44      1.0  0.12899  0.94072  0.58145  1.0000
  S   S86       1.0  0.13878  0.94238  0.61993  1.0000
  S   S87       1.0  0.12072  0.94520  0.51408  1.0000
  S   S88       1.0  0.13787  0.91325  0.55699  1.0000
  H   H449      1.0  0.05510  0.91689  0.54926  1.0000
  Fe  Fe45      1.0  0.15812  0.89717  0.80382  1.0000
  S   S89       1.0  0.15882  0.92894  0.78198  1.0000
  S   S90       1.0  0.18482  0.87592  0.81789  1.0000
  Fe  Fe46      1.0  0.11161  0.90064  0.81111  1.0000
  S   S91       1.0  0.11024  0.93327  0.79060  1.0000
  S   S92       1.0  0.08517  0.88363  0.83095  1.0000
  Fe  Fe47      1.0  0.13089  0.91649  0.76471  1.0000
  S   S93       1.0  0.12124  0.91290  0.72636  1.0000
  Fe  Fe48      1.0  0.13824  0.94340  0.80960  1.0000
  S   S94       1.0  0.14207  0.97934  0.82362  1.0000
  S   S95       1.0  0.13156  0.88360  0.78505  1.0000
  S   S96       1.0  0.13825  0.91196  0.83163  1.0000
  H   H450      1.0  0.01857  0.51123  0.94020  1.0000
  P   P19       1.0  0.05550  0.93479  0.62642  1.0000
  C   C556      1.0  0.05584  0.92514  0.79542  1.0000
  H   H451      1.0  0.01813  0.91414  0.54620  1.0000
  H   H452      1.0  0.21639  0.84060  0.54998  1.0000
  H   H453      1.0  0.16166  0.96586  0.86814  1.0000
  C   C557      1.0  0.06101  0.90887  0.66681  1.0000
  C   C558      1.0  0.02105  0.85371  0.82785  1.0000
  C   C559      1.0  0.03080  0.85662  0.84897  1.0000
  C   C560      1.0  0.05019  0.86582  0.84949  1.0000
  C   C561      1.0  0.06045  0.87215  0.82898  1.0000
  C   C562      1.0  0.05081  0.86897  0.80785  1.0000
  C   C563      1.0  0.03132  0.86001  0.80733  1.0000
  H   H454      1.0  0.02334  0.85192  0.86498  1.0000
  H   H455      1.0  0.05731  0.86802  0.86602  1.0000
  H   H456      1.0  0.05842  0.87322  0.79185  1.0000
  H   H457      1.0  0.02416  0.85784  0.79083  1.0000
  C   C564      1.0  0.13394  0.93357  0.64940  1.0000
  C   C565      1.0  0.12047  0.91669  0.65533  1.0000
  C   C566      1.0  0.11713  0.91049  0.67882  1.0000
  C   C567      1.0  0.12695  0.92111  0.69694  1.0000
  C   C568      1.0  0.14073  0.93766  0.69104  1.0000
  C   C569      1.0  0.14418  0.94378  0.66749  1.0000
  H   H458      1.0  0.11280  0.90815  0.64187  1.0000
  H   H459      1.0  0.10686  0.89726  0.68298  1.0000
  H   H460      1.0  0.14854  0.94599  0.70461  1.0000
  H   H461      1.0  0.15475  0.95673  0.66328  1.0000
  C   C570      1.0  0.05717  0.87549  0.59199  1.0000
  C   C571      1.0  0.99743  0.76248  0.72719  1.0000
  H   H462      1.0  0.17795  0.78819  0.81539  1.0000
  C   C572      1.0  0.11120  0.52371  0.93480  1.0000
  C   C573      1.0  0.21664  0.93810  0.83055  1.0000
  H   H463      1.0  0.03602  0.98157  0.79738  1.0000
  C   C574      1.0  0.06129  0.89168  0.52419  1.0000
  H   H464      1.0  0.22286  0.50474  0.97095  1.0000
  C   C575      1.0  0.16755  0.88938  0.65957  1.0000
  C   C576      1.0  0.03776  0.93427  0.80364  1.0000
  P   P20       1.0  0.03599  0.94546  0.83239  1.0000
  H   H465      1.0  0.19376  0.96042  0.84425  1.0000
  H   H466      1.0  0.02625  0.77541  0.71768  1.0000
  C   C577      1.0  0.16070  0.98391  0.86711  1.0000
  H   H467      1.0  0.11997  0.82022  0.78008  1.0000
  H   H468      1.0  0.19015  0.90308  0.68110  1.0000
  H   H469      1.0  0.20370  0.82222  0.75586  1.0000
  C   C578      1.0  0.21949  0.87625  0.79038  1.0000
  C   C579      1.0  0.20978  0.86767  0.81010  1.0000
  C   C580      1.0  0.22006  0.85168  0.82409  1.0000
  C   C581      1.0  0.04797  0.96465  0.53474  1.0000
  H   H470      1.0  0.21192  0.88862  0.77950  1.0000
  H   H471      1.0  0.21276  0.84488  0.83940  1.0000
  C   C582      1.0  0.22870  0.56292  0.81235  1.0000
  C   C583      1.0  0.18377  0.88377  0.53950  1.0000
  H   H472      1.0  0.03536  0.89406  0.61122  1.0000
  C   C584      1.0  0.11426  0.83320  0.81386  1.0000
  H   H473      1.0  0.99822  0.95622  0.52844  1.0000
  H   H474      1.0  0.04143  0.91084  0.74144  1.0000
  C   C585      1.0  0.18862  0.90771  0.86596  1.0000
  C   C586      1.0  0.09125  0.51880  0.93984  1.0000
  C   C587      1.0  0.20996  0.78696  0.81261  1.0000
  C   C588      1.0  0.07089  0.92364  0.70364  1.0000
  C   C589      1.0  0.22671  0.79345  0.79972  1.0000
  H   H475      1.0  0.03980  0.56696  0.98257  1.0000
  C   C590      1.0  0.08420  0.90810  0.60433  1.0000
  C   C591      1.0  0.05959  0.97394  0.59913  1.0000
  C   C592      1.0  0.06409  0.91036  0.61102  1.0000
  H   H476      1.0  0.21099  0.85886  0.90345  1.0000
  C   C593      1.0  0.19559  0.54888  0.93646  1.0000
  C   C594      1.0  0.20474  0.87256  0.89308  1.0000
  H   H477      1.0  0.20803  0.97417  0.54546  1.0000
  C   C595      1.0  0.17621  0.89112  0.87515  1.0000
  C   C596      1.0  0.08796  0.96348  0.62306  1.0000
  H   H478      1.0  0.01963  0.53216  0.99274  1.0000
  H   H479      1.0  0.18649  0.85534  0.77363  1.0000
  C   C597      1.0  0.00339  0.80126  0.71707  1.0000
  C   C598      1.0  0.22429  0.80618  0.77932  1.0000
  C   C599      1.0  0.01384  0.95787  0.52384  1.0000
  C   C600      1.0  0.14156  0.77552  0.77484  1.0000
  C   C601      1.0  0.19507  0.52570  0.94011  1.0000
  H   H480      1.0  0.18525  0.88914  0.74848  1.0000
  C   C602      1.0  0.04867  0.90536  0.53739  1.0000
  C   C603      1.0  0.02006  0.95485  0.50096  1.0000
  H   H481      1.0  0.23730  0.91760  0.81063  1.0000
  H   H482      1.0  0.06885  0.92397  0.80639  1.0000
  C   C604      1.0  0.20418  0.96772  0.56258  1.0000
  H   H483      1.0  0.04664  0.86305  0.58682  1.0000
  C   C605      1.0  0.18824  0.80678  0.78511  1.0000
  H   H484      1.0  0.06690  0.88871  0.69756  1.0000
  C   C606      1.0  0.13470  0.75621  0.76453  1.0000
  H   H485      1.0  0.16186  0.52416  0.98520  1.0000
  C   C607      1.0  0.07101  0.96958  0.83817  1.0000
  H   H486      1.0  0.16047  0.89247  0.71690  1.0000
  H   H487      1.0  0.03451  0.94055  0.88297  1.0000
  C   C608      1.0  0.18400  0.56298  0.95032  1.0000
  C   C609      1.0  0.01892  0.88882  0.52033  1.0000
  H   H488      1.0  0.11364  0.98447  0.61945  1.0000
  P   P21       1.0  0.05520  0.52451  0.96397  1.0000
  H   H489      1.0  0.21339  0.55813  0.81566  1.0000
  C   C610      1.0  0.08122  0.52951  0.95805  1.0000
  H   H490      1.0  0.23489  0.97571  0.85233  1.0000
  H   H491      1.0  0.00932  0.92693  0.75571  1.0000
  C   C611      1.0  0.12114  0.53947  0.94772  1.0000
  C   C612      1.0  0.11117  0.55036  0.96570  1.0000
  C   C613      1.0  0.09125  0.54549  0.97078  1.0000
  C   C614      1.0  0.02560  0.58452  0.95426  1.0000
  H   H492      1.0  0.18485  0.58097  0.94798  1.0000
  C   C615      1.0  0.02455  0.92847  0.87585  1.0000
  H   H493      1.0  0.09530  0.95240  0.63554  1.0000
  C   C616      1.0  0.09088  0.97191  0.84499  1.0000
  H   H494      1.0  0.16940  0.88723  0.60093  1.0000
  H   H495      1.0  0.02297  0.96562  0.55835  1.0000
  H   H496      1.0  0.08364  0.55439  0.98453  1.0000
  H   H497      1.0  0.09493  0.92052  0.60882  1.0000
  H   H498      1.0  0.23737  0.81137  0.76952  1.0000
  C   C617      1.0  0.18697  0.97217  0.59917  1.0000
  C   C618      1.0  0.19878  0.90416  0.64502  1.0000
  H   H499      1.0  0.01306  0.59883  0.92294  1.0000
  H   H500      1.0  0.00787  0.90865  0.82467  1.0000
  H   H501      1.0  0.21178  0.93316  0.90734  1.0000
  H   H502      1.0  0.16038  0.89168  0.87143  1.0000
  C   C619      1.0  0.07702  0.87399  0.58452  1.0000
  C   C620      1.0  0.09060  0.89006  0.59105  1.0000
  C   C621      1.0  0.17453  0.89001  0.61834  1.0000
  C   C622      1.0  0.03155  0.87513  0.50712  1.0000
  C   C623      1.0  0.06066  0.93054  0.65691  1.0000
  H   H503      1.0  0.05889  0.96853  0.54770  1.0000
  C   C624      1.0  0.02768  0.90374  0.53563  1.0000
  H   H504      1.0  0.18288  0.97491  0.80615  1.0000
  C   C625      1.0  0.06474  0.94879  0.67090  1.0000
  C   C626      1.0  0.22554  0.93019  0.81012  1.0000
  H   H505      1.0  0.17763  0.98211  0.61056  1.0000
  C   C627      1.0  0.18427  0.87347  0.88853  1.0000
  H   H506      1.0  0.07126  0.90981  0.76690  1.0000
  H   H507      1.0  0.06986  0.96366  0.50747  1.0000
  C   C628      1.0  0.18601  0.89903  0.66360  1.0000
  P   P22       1.0  0.20898  0.90769  0.59808  1.0000
  C   C629      1.0  0.19392  0.86344  0.53647  1.0000
  C   C630      1.0  0.20861  0.85643  0.55225  1.0000
  C   C631      1.0  0.21330  0.86991  0.57086  1.0000
  C   C632      1.0  0.20354  0.89065  0.57360  1.0000
  C   C633      1.0  0.04703  0.49827  0.95280  1.0000
  C   C634      1.0  0.19322  0.89945  0.62224  1.0000
  C   C635      1.0  0.20926  0.90675  0.87014  1.0000
  C   C636      1.0  0.23899  0.86872  0.78458  1.0000
  H   H508      1.0  0.23914  0.55030  0.84525  1.0000
  H   H509      1.0  0.13648  0.54350  0.94357  1.0000
  H   H510      1.0  0.06379  0.91641  0.85861  1.0000
  C   C637      1.0  0.20355  0.93674  0.59060  1.0000
  H   H511      1.0  0.17478  0.98821  0.90031  1.0000
  C   C638      1.0  0.02274  0.97205  0.83040  1.0000
  H   H512      1.0  0.08184  0.86061  0.57331  1.0000
  C   C639      1.0  0.06602  0.90548  0.69014  1.0000
  C   C640      1.0  0.03804  0.54876  0.92713  1.0000
  C   C641      1.0  0.02249  0.92679  0.85174  1.0000
  H   H513      1.0  0.16317  0.56486  0.97887  1.0000
  C   C642      1.0  0.02757  0.56692  0.91704  1.0000
  C   C643      1.0  0.02070  0.93563  0.60008  1.0000
  C   C644      1.0  0.19295  0.98094  0.57765  1.0000
  C   C645      1.0  0.21918  0.93845  0.78849  1.0000
  H   H514      1.0  0.09825  0.83487  0.81134  1.0000
  C   C646      1.0  0.16181  0.88492  0.63696  1.0000
  H   H515      1.0  0.11890  0.51554  0.92068  1.0000
  C   C647      1.0  0.16315  0.83859  0.75584  1.0000
  H   H516      1.0  0.10598  0.88889  0.58517  1.0000
  C   C648      1.0  0.12661  0.82491  0.79625  1.0000
  C   C649      1.0  0.16145  0.87727  0.72741  1.0000
  C   C650      1.0  0.14882  0.84075  0.73823  1.0000
  C   C651      1.0  0.04165  0.54798  0.95108  1.0000
  C   C652      1.0  0.15350  0.79054  0.76215  1.0000
  H   H517      1.0  0.19036  0.85319  0.52189  1.0000
  H   H518      1.0  0.04326  0.53531  0.91628  1.0000
  C   C653      1.0  0.06084  0.94973  0.84339  1.0000
  C   C654      1.0  0.19226  0.95021  0.60567  1.0000
  H   H519      1.0  0.17464  0.86046  0.89526  1.0000
  C   C655      1.0  0.02778  0.96296  0.54071  1.0000
  H   H520      1.0  0.18207  0.92097  0.85528  1.0000
  H   H521      1.0  0.23294  0.88831  0.88808  1.0000
  H   H522      1.0  0.11302  0.84739  0.84776  1.0000
  C   C656      1.0  0.14807  0.86001  0.72399  1.0000
  H   H523      1.0  0.23259  0.78459  0.56274  1.0000
  C   C657      1.0  0.10079  0.95443  0.85683  1.0000
  C   C658      1.0  0.22636  0.99190  0.88376  1.0000
  H   H524      1.0  0.17227  0.88927  0.52741  1.0000
  H   H525      1.0  0.01547  0.91583  0.90951  1.0000
  H   H526      1.0  0.14716  0.87830  0.63378  1.0000
  C   C659      1.0  0.05078  0.89339  0.60552  1.0000
  H   H527      1.0  0.21272  0.91237  0.64835  1.0000
  C   C660      1.0  0.21832  0.59595  0.98157  1.0000
  C   C661      1.0  0.15925  0.78547  0.73942  1.0000
  H   H528      1.0  0.22360  0.95205  0.50886  1.0000
  C   C662      1.0  0.18859  0.89733  0.55793  1.0000
  C   C663      1.0  0.12260  0.84035  0.83445  1.0000
  H   H529      1.0  0.13481  0.73653  0.73376  1.0000
  C   C664      1.0  0.15239  0.76614  0.72915  1.0000
  C   C665      1.0  0.18335  0.51653  0.95811  1.0000
  H   H530      1.0  0.12539  0.74475  0.77438  1.0000
  C   C666      1.0  0.20112  0.95420  0.82887  1.0000
  C   C667      1.0  0.14328  0.83920  0.83748  1.0000
  C   C668      1.0  0.07007  0.94529  0.69409  1.0000
  C   C669      1.0  0.17541  0.87542  0.74520  1.0000
  H   H531      1.0  0.13664  0.86205  0.71088  1.0000
  H   H532      1.0  0.16913  0.79641  0.72970  1.0000
  H   H533      1.0  0.14983  0.84553  0.85305  1.0000
  H   H534      1.0  0.13788  0.82793  0.73590  1.0000
  H   H535      1.0  0.02455  0.56734  0.89863  1.0000
  C   C670      1.0  0.19493  0.96255  0.80724  1.0000
  H   H536      1.0  0.24007  0.58198  0.91209  1.0000
  H   H537      1.0  0.15681  0.76235  0.71157  1.0000
  C   C671      1.0  0.14742  0.82345  0.79928  1.0000
  C   C672      1.0  0.19078  0.79344  0.80526  1.0000
  C   C673      1.0  0.23385  0.57316  0.79118  1.0000
  H   H538      1.0  0.09869  0.92072  0.87044  1.0000
  H   H539      1.0  0.20417  0.51502  0.92925  1.0000
  P   P23       1.0  0.16336  0.81479  0.77564  1.0000
  C   C674      1.0  0.17128  0.53077  0.97147  1.0000
  C   C675      1.0  0.20515  0.81262  0.77187  1.0000
  P   P24       1.0  0.22529  0.92844  0.85878  1.0000
  H   H540      1.0  0.13765  0.77858  0.79274  1.0000
  C   C676      1.0  0.15565  0.83078  0.81999  1.0000
  C   C677      1.0  0.23522  0.90346  0.60467  1.0000
  H   H541      1.0  0.17166  0.83089  0.82238  1.0000
  C   C678      1.0  0.21849  0.98927  0.90610  1.0000
  C   C679      1.0  0.14005  0.75156  0.74167  1.0000
  C   C680      1.0  0.17613  0.85625  0.75944  1.0000
  H   H542      1.0  0.18680  0.94376  0.62214  1.0000
  C   C681      1.0  0.05722  0.91700  0.77295  1.0000
  H   H543      1.0  0.05785  0.89454  0.65645  1.0000
  H   H544      1.0  0.18066  0.91311  0.55986  1.0000
  C   C682      1.0  0.05255  0.87648  0.50917  1.0000
  H   H545      1.0  0.21709  0.93539  0.55640  1.0000
  H   H546      1.0  0.02107  0.59857  0.96467  1.0000
  C   C683      1.0  0.20465  0.58485  0.99652  1.0000
  C   C684      1.0  0.09084  0.93459  0.86193  1.0000
  C   C685      1.0  0.07098  0.93223  0.85522  1.0000
  H   H547      1.0  0.11633  0.95614  0.86158  1.0000
  H   H548      1.0  0.22455  0.86422  0.58300  1.0000
  C   C686      1.0  0.04045  0.91759  0.75866  1.0000
  H   H549      1.0  0.08365  0.50694  0.92931  1.0000
  H   H550      1.0  0.24214  0.88723  0.84020  1.0000
  H   H551      1.0  0.11872  0.56280  0.97565  1.0000
  C   C687      1.0  0.17177  0.55391  0.96771  1.0000
  H   H552      1.0  0.22253  0.57639  0.77814  1.0000
  H   H553      1.0  0.00681  0.96822  0.86308  1.0000
  H   H554      1.0  0.07584  0.92092  0.72135  1.0000
  H   H555      1.0  0.21406  0.61189  0.97367  1.0000
  C   C688      1.0  0.02236  0.92662  0.76671  1.0000
  C   C689      1.0  0.21717  0.88922  0.88411  1.0000
  C   C690      1.0  0.02103  0.93506  0.78907  1.0000
  C   C691      1.0  0.20936  0.94568  0.56892  1.0000
  H   H556      1.0  0.15737  0.88606  0.67385  1.0000
  C   C692      1.0  0.23747  0.58680  0.97688  1.0000
  C   C693      1.0  0.02117  0.58470  0.93066  1.0000
  H   H557      1.0  0.07410  0.95929  0.70456  1.0000
  H   H558      1.0  0.20527  0.55600  0.92322  1.0000
  C   C694      1.0  0.02573  0.98632  0.81106  1.0000
  C   C695      1.0  0.01053  0.77932  0.72030  1.0000
  H   H559      1.0  0.24162  0.78878  0.80558  1.0000
  C   C696      1.0  0.22373  0.95193  0.87793  1.0000
  H   H560      1.0  0.09885  0.98707  0.84062  1.0000
  H   H561      1.0  0.21189  0.77701  0.82838  1.0000
  C   C697      1.0  0.23761  0.80888  0.58893  1.0000
  C   C698      1.0  0.02894  0.93881  0.62207  1.0000
  H   H562      1.0  0.06388  0.98314  0.82852  1.0000
  H   H563      1.0  0.19889  0.96098  0.77031  1.0000
  C   C699      1.0  0.21357  0.96800  0.91458  1.0000
  C   C700      1.0  0.21615  0.94937  0.90058  1.0000
  C   C701      1.0  0.20397  0.95471  0.78705  1.0000
  C   C702      1.0  0.15189  0.99446  0.84767  1.0000
  C   C703      1.0  0.00946  0.97878  0.84797  1.0000
  H   H564      1.0  0.01358  0.81437  0.71197  1.0000
  C   C704      1.0  0.09842  0.98176  0.61402  1.0000
  H   H565      1.0  0.00299  0.74551  0.72995  1.0000
  H   H566      1.0  0.02227  0.94783  0.65747  1.0000
  C   C705      1.0  0.01371  0.91458  0.89096  1.0000
  C   C706      1.0  0.06845  0.95933  0.61567  1.0000
  C   C707      1.0  0.00947  0.91091  0.84306  1.0000
  S   S97       1.0  0.99615  0.84262  0.82596  1.0000
  C   C708      1.0  0.99572  0.94770  0.63689  1.0000
  C   C709      1.0  0.24331  0.55869  0.82918  1.0000
  C   C710      1.0  0.23967  0.84428  0.81841  1.0000
  H   H567      1.0  0.22697  0.80164  0.60106  1.0000
  C   C711      1.0  0.20124  0.92794  0.50099  1.0000
  H   H568      1.0  0.06506  0.61750  0.99670  1.0000
  H   H569      1.0  0.23035  0.87672  0.62996  1.0000
  C   C712      1.0  0.05080  0.52205  0.99477  1.0000
  H   H570      1.0  0.00691  0.94197  0.79513  1.0000
  C   C713      1.0  0.24128  0.88675  0.62080  1.0000
  H   H571      1.0  0.04471  0.97125  0.59288  1.0000
  H   H572      1.0  0.20720  0.96609  0.93180  1.0000
  C   C714      1.0  0.00064  0.89902  0.88214  1.0000
  H   H573      1.0  0.22599  0.93208  0.77284  1.0000
  C   C715      1.0  0.22911  0.97331  0.86976  1.0000
  H   H574      1.0  0.03021  0.93100  0.58560  1.0000
  C   C716      1.0  0.24265  0.56615  0.98735  1.0000
  C   C717      1.0  0.02825  0.49669  0.94228  1.0000
  C   C718      1.0  0.99847  0.89726  0.85824  1.0000
  C   C719      1.0  0.01631  0.94505  0.64042  1.0000
  C   C720      1.0  0.00012  0.93812  0.59665  1.0000
  H   H575      1.0  0.06431  0.96570  0.66380  1.0000
  H   H576      1.0  0.99387  0.93518  0.57973  1.0000
  C   C721      1.0  0.07012  0.99218  0.59008  1.0000
  H   H577      1.0  0.02798  0.61988  0.99905  1.0000
  C   C722      1.0  0.24079  0.79927  0.56735  1.0000
  C   C723      1.0  0.30159  0.01140  0.41872  1.0000
  Fe  Fe49      1.0  0.39176  0.06663  0.03730  1.0000
  S   S98       1.0  0.40013  0.04763  0.06991  1.0000
  S   S99       1.0  0.41300  0.08752  0.01451  1.0000
  Fe  Fe50      1.0  0.34765  0.05135  0.03899  1.0000
  S   S100      1.0  0.35354  0.03078  0.07184  1.0000
  S   S101      1.0  0.31579  0.04860  0.02357  1.0000
  Fe  Fe51      1.0  0.37071  0.05995  0.08496  1.0000
  S   S102      1.0  0.36718  0.07750  0.12033  1.0000
  Fe  Fe52      1.0  0.38245  0.01981  0.05461  1.0000
  S   S103      1.0  0.36336  0.08123  0.05291  1.0000
  S   S104      1.0  0.37555  0.03812  0.02123  1.0000
  Fe  Fe53      1.0  0.35919  0.05604  0.31782  1.0000
  S   S105      1.0  0.36367  0.09225  0.32706  1.0000
  S   S106      1.0  0.35213  0.03283  0.34971  1.0000
  Fe  Fe54      1.0  0.36351  0.06784  0.26528  1.0000
  S   S107      1.0  0.36795  0.10426  0.27192  1.0000
  S   S108      1.0  0.36313  0.05105  0.22947  1.0000
  Fe  Fe55      1.0  0.38891  0.09325  0.30087  1.0000
  S   S109      1.0  0.41914  0.11234  0.30252  1.0000
  Fe  Fe56      1.0  0.34250  0.10095  0.29776  1.0000
  S   S110      1.0  0.31882  0.12872  0.30439  1.0000
  S   S111      1.0  0.38566  0.05649  0.29298  1.0000
  S   S112      1.0  0.33689  0.06501  0.28981  1.0000
  C   C724      1.0  0.29312  0.13418  0.29750  1.0000
  C   C725      1.0  0.28143  0.11928  0.28537  1.0000
  C   C726      1.0  0.26119  0.12469  0.28041  1.0000
  C   C727      1.0  0.27443  0.06929  0.24383  1.0000
  C   C728      1.0  0.26389  0.15965  0.30001  1.0000
  C   C729      1.0  0.28422  0.15446  0.30446  1.0000
  H   H578      1.0  0.28801  0.10365  0.27978  1.0000
  H   H579      1.0  0.28167  0.11053  0.09346  1.0000
  H   H580      1.0  0.26079  0.07738  0.44163  1.0000
  H   H581      1.0  0.29321  0.16632  0.31334  1.0000
  H   H582      1.0  0.25784  0.10851  0.46918  1.0000
  C   C730      1.0  0.42751  0.03696  0.25632  1.0000
  C   C731      1.0  0.24982  0.13072  0.00220  1.0000
  H   H583      1.0  0.43572  0.15885  0.05331  1.0000
  C   C732      1.0  0.43500  0.03862  0.31655  1.0000
  C   C733      1.0  0.44101  0.00921  0.03302  1.0000
  H   H584      1.0  0.48163  0.48975  0.43406  1.0000
  C   C734      1.0  0.47911  0.13558  0.33500  1.0000
  C   C735      1.0  0.47460  0.13998  0.31161  1.0000
  C   C736      1.0  0.45627  0.13295  0.30213  1.0000
  C   C737      1.0  0.44201  0.12134  0.31570  1.0000
  C   C738      1.0  0.44651  0.11706  0.33912  1.0000
  C   C739      1.0  0.46481  0.12409  0.34859  1.0000
  C   C740      1.0  0.25702  0.11194  0.45069  1.0000
  H   H585      1.0  0.45319  0.13640  0.28403  1.0000
  H   H586      1.0  0.43589  0.10824  0.34997  1.0000
  H   H587      1.0  0.46804  0.12027  0.36658  1.0000
  C   C741      1.0  0.36661  0.06970  0.15064  1.0000
  C   C742      1.0  0.36582  0.08659  0.16733  1.0000
  C   C743      1.0  0.36486  0.08135  0.19140  1.0000
  C   C744      1.0  0.36455  0.05901  0.19926  1.0000
  C   C745      1.0  0.36523  0.04216  0.18259  1.0000
  C   C746      1.0  0.36630  0.04740  0.15855  1.0000
  H   H588      1.0  0.36589  0.10391  0.16157  1.0000
  H   H589      1.0  0.36433  0.09458  0.20383  1.0000
  H   H590      1.0  0.36497  0.02482  0.18829  1.0000
  H   H591      1.0  0.36680  0.03414  0.14613  1.0000
  C   C747      1.0  0.42547  0.01810  0.32015  1.0000
  H   H592      1.0  0.45633  0.15190  0.01741  1.0000
  C   C748      1.0  0.41378  0.06758  0.23290  1.0000
  H   H593      1.0  0.27686  0.45088  0.49653  1.0000
  C   C749      1.0  0.46008  0.24288  0.40718  1.0000
  C   C750      1.0  0.26965  0.39895  0.47503  1.0000
  H   H594      1.0  0.38019  0.48857  0.45232  1.0000
  H   H595      1.0  0.28276  0.49331  0.49008  1.0000
  C   C751      1.0  0.26577  0.42132  0.48047  1.0000
  C   C752      1.0  0.27795  0.08889  0.23088  1.0000
  H   H596      1.0  0.45967  0.18779  0.35876  1.0000
  C   C753      1.0  0.43903  0.01829  0.01062  1.0000
  C   C754      1.0  0.26532  0.13668  0.19123  1.0000
  C   C755      1.0  0.43955  0.08953  0.01555  1.0000
  C   C756      1.0  0.45118  0.07724  0.03157  1.0000
  H   H597      1.0  0.41462  0.12646  0.06309  1.0000
  H   H598      1.0  0.44441  0.38530  0.48373  1.0000
  H   H599      1.0  0.27994  0.06806  0.31880  1.0000
  H   H600      1.0  0.31236  0.13703  0.12281  1.0000
  H   H601      1.0  0.30685  0.02942  0.35944  1.0000
  H   H602      1.0  0.40534  0.47372  0.42454  1.0000
  C   C757      1.0  0.30262  0.07961  0.34154  1.0000
  C   C758      1.0  0.44656  0.20603  0.10345  1.0000
  H   H603      1.0  0.32526  0.00997  0.44381  1.0000
  C   C759      1.0  0.40166  0.49323  0.47924  1.0000
  C   C760      1.0  0.29217  0.10812  0.36831  1.0000
  C   C761      1.0  0.46560  0.21165  0.06046  1.0000
  H   H604      1.0  0.42803  0.03152  0.00767  1.0000
  H   H605      1.0  0.42955  0.09231  0.08120  1.0000
  H   H606      1.0  0.42300  0.10049  0.24208  1.0000
  C   C762      1.0  0.45973  0.26526  0.41369  1.0000
  C   C763      1.0  0.30707  0.09406  0.35930  1.0000
  C   C764      1.0  0.47561  0.22835  0.41454  1.0000
  H   H607      1.0  0.46414  0.40289  0.44873  1.0000
  C   C765      1.0  0.44626  0.22697  0.09221  1.0000
  C   C766      1.0  0.30951  0.05916  0.24122  1.0000
  H   H608      1.0  0.24754  0.31362  0.32038  1.0000
  H   H609      1.0  0.31476  0.12900  0.25288  1.0000
  H   H610      1.0  0.28866  0.15161  0.24072  1.0000
  C   C767      1.0  0.39575  0.48692  0.45723  1.0000
  H   H611      1.0  0.24616  0.03947  0.35182  1.0000
  C   C768      1.0  0.26029  0.16408  0.22946  1.0000
  C   C769      1.0  0.27476  0.09708  0.08441  1.0000
  C   C770      1.0  0.26830  0.09332  0.34161  1.0000
  H   H612      1.0  0.32271  0.06830  0.14269  1.0000
  H   H613      1.0  0.40377  0.07358  0.21936  1.0000
  C   C771      1.0  0.29849  0.06282  0.00427  1.0000
  H   H614      1.0  0.44490  0.08703  0.27359  1.0000
  H   H615      1.0  0.43535  0.07321  0.32629  1.0000
  H   H616      1.0  0.27680  0.03675  0.00762  1.0000
  C   C772      1.0  0.26304  0.33144  0.49725  1.0000
  C   C773      1.0  0.26324  0.20118  0.35575  1.0000
  H   H617      1.0  0.25946  0.06566  0.24988  1.0000
  H   H618      1.0  0.34570  0.01285  0.39497  1.0000
  C   C774      1.0  0.46831  0.16263  0.01177  1.0000
  C   C775      1.0  0.27687  0.05995  0.06884  1.0000
  H   H619      1.0  0.34334  0.14929  0.26789  1.0000
  H   H620      1.0  0.31430  0.06889  0.33453  1.0000
  C   C776      1.0  0.47197  0.08070  0.03285  1.0000
  C   C777      1.0  0.29085  0.00820  0.30907  1.0000
  H   H621      1.0  0.28552  0.04483  0.06546  1.0000
  H   H622      1.0  0.30259  0.14563  0.16306  1.0000
  C   C778      1.0  0.42468  0.08269  0.24559  1.0000
  C   C779      1.0  0.29019  0.05437  0.24890  1.0000
  H   H623      1.0  0.37048  0.16158  0.24142  1.0000
  C   C780      1.0  0.47265  0.41756  0.45253  1.0000
  C   C781      1.0  0.25554  0.09997  0.07527  1.0000
  H   H624      1.0  0.32175  0.04751  0.24489  1.0000
  H   H625      1.0  0.28749  0.03909  0.25874  1.0000
  C   C782      1.0  0.40992  0.47850  0.44164  1.0000
  C   C783      1.0  0.41423  0.05475  0.34679  1.0000
  C   C784      1.0  0.28544  0.07709  0.08112  1.0000
  C   C785      1.0  0.48343  0.07228  0.28324  1.0000
  C   C786      1.0  0.24793  0.14984  0.19355  1.0000
  H   H626      1.0  0.25889  0.10229  0.02297  1.0000
  C   C787      1.0  0.24663  0.08263  0.06327  1.0000
  C   C788      1.0  0.25762  0.15548  0.36561  1.0000
  C   C789      1.0  0.47373  0.19600  0.35601  1.0000
  H   H627      1.0  0.25349  0.09250  0.33449  1.0000
  C   C790      1.0  0.43891  0.05200  0.26876  1.0000
  H   H628      1.0  0.26531  0.21874  0.35154  1.0000
  H   H629      1.0  0.44844  0.23702  0.39601  1.0000
  H   H630      1.0  0.45643  0.17174  0.10215  1.0000
  C   C791      1.0  0.43049  0.12575  0.06675  1.0000
  C   C792      1.0  0.24991  0.03238  0.38860  1.0000
  H   H631      1.0  0.25861  0.08507  0.39951  1.0000
  P   P25       1.0  0.47838  0.16685  0.05860  1.0000
  H   H632      1.0  0.26482  0.45367  0.43994  1.0000
  H   H633      1.0  0.32221  0.09451  0.36581  1.0000
  H   H634      1.0  0.40943  0.06914  0.35657  1.0000
  C   C793      1.0  0.47167  0.12303  0.07472  1.0000
  C   C794      1.0  0.40520  0.03414  0.35072  1.0000
  H   H635      1.0  0.39354  0.03246  0.36374  1.0000
  C   C795      1.0  0.47513  0.27343  0.42714  1.0000
  H   H636      1.0  0.32832  0.08258  0.22327  1.0000
  H   H637      1.0  0.29142  0.37204  0.47773  1.0000
  H   H638      1.0  0.30058  0.07500  0.08749  1.0000
  H   H639      1.0  0.33938  0.13557  0.18374  1.0000
  H   H640      1.0  0.48759  0.12135  0.07751  1.0000
  C   C796      1.0  0.27270  0.10820  0.35928  1.0000
  H   H641      1.0  0.32659  0.48997  0.43623  1.0000
  C   C797      1.0  0.42897  0.05701  0.32967  1.0000
  C   C798      1.0  0.27897  0.01191  0.35560  1.0000
  C   C799      1.0  0.25496  0.12086  0.40282  1.0000
  C   C800      1.0  0.44255  0.14391  0.06096  1.0000
  C   C801      1.0  0.42997  0.47612  0.44818  1.0000
  C   C802      1.0  0.31028  0.05682  0.41368  1.0000
  C   C803      1.0  0.29512  0.04771  0.40054  1.0000
  H   H642      1.0  0.44729  0.43538  0.46634  1.0000
  H   H643      1.0  0.25111  0.15551  0.41242  1.0000
  H   H644      1.0  0.31390  0.07430  0.41143  1.0000
  H   H645      1.0  0.28710  0.05831  0.38816  1.0000
  C   C804      1.0  0.46326  0.14267  0.06481  1.0000
  H   H646      1.0  0.26548  0.10010  0.22706  1.0000
  C   C805      1.0  0.31667  0.02060  0.43194  1.0000
  H   H647      1.0  0.25347  0.40125  0.39316  1.0000
  C   C806      1.0  0.30242  0.40155  0.49398  1.0000
  C   C807      1.0  0.47411  0.45512  0.46736  1.0000
  H   H648      1.0  0.46602  0.08990  0.08839  1.0000
  C   C808      1.0  0.45637  0.18788  0.09323  1.0000
  P   P26       1.0  0.47677  0.20004  0.40429  1.0000
  C   C809      1.0  0.29861  0.42397  0.49924  1.0000
  C   C810      1.0  0.34578  0.00479  0.35883  1.0000
  H   H649      1.0  0.25843  0.33033  0.35703  1.0000
  C   C811      1.0  0.45350  0.18532  0.40633  1.0000
  C   C812      1.0  0.43698  0.19407  0.41849  1.0000
  C   C813      1.0  0.41916  0.18222  0.41985  1.0000
  C   C814      1.0  0.41782  0.16146  0.40941  1.0000
  C   C815      1.0  0.43440  0.15233  0.39795  1.0000
  C   C816      1.0  0.45225  0.16406  0.39671  1.0000
  H   H650      1.0  0.29572  0.00639  0.29127  1.0000
  C   C817      1.0  0.48146  0.09623  0.01797  1.0000
  H   H651      1.0  0.25175  0.42913  0.47534  1.0000
  C   C818      1.0  0.26702  0.00065  0.33992  1.0000
  C   C819      1.0  0.43590  0.48189  0.47050  1.0000
  H   H652      1.0  0.48063  0.37535  0.48596  1.0000
  C   C820      1.0  0.46595  0.19055  0.07163  1.0000
  C   C821      1.0  0.28811  0.38925  0.48189  1.0000
  H   H653      1.0  0.43782  0.20985  0.42713  1.0000
  H   H654      1.0  0.40638  0.18913  0.42903  1.0000
  H   H655      1.0  0.40397  0.15236  0.41029  1.0000
  H   H656      1.0  0.43345  0.13620  0.38990  1.0000
  H   H657      1.0  0.46505  0.15669  0.38788  1.0000
  H   H658      1.0  0.29590  0.11907  0.38223  1.0000
  C   C822      1.0  0.32108  0.04326  0.42936  1.0000
  H   H659      1.0  0.25807  0.17417  0.24467  1.0000
  C   C823      1.0  0.41519  0.04473  0.23828  1.0000
  H   H660      1.0  0.44407  0.06557  0.04345  1.0000
  P   P27       1.0  0.45313  0.04215  0.29352  1.0000
  C   C824      1.0  0.46617  0.01627  0.28754  1.0000
  C   C825      1.0  0.45578  0.22977  0.07074  1.0000
  H   H661      1.0  0.43140  0.01518  0.04685  1.0000
  H   H662      1.0  0.25736  0.17526  0.30576  1.0000
  C   C826      1.0  0.43715  0.07495  0.26347  1.0000
  C   C827      1.0  0.25005  0.41789  0.39921  1.0000
  C   C828      1.0  0.24648  0.11335  0.01830  1.0000
  C   C829      1.0  0.49134  0.23689  0.42748  1.0000
  H   H663      1.0  0.47510  0.29086  0.43190  1.0000
  S   S113      1.0  0.25238  0.38252  0.45927  1.0000
  H   H664      1.0  0.40612  0.03317  0.22893  1.0000
  C   C830      1.0  0.47196  0.00180  0.30587  1.0000
  C   C831      1.0  0.27675  0.16346  0.36027  1.0000
  H   H665      1.0  0.32304  0.09847  0.11281  1.0000
  H   H666      1.0  0.26666  0.12560  0.17674  1.0000
  H   H667      1.0  0.36843  0.15427  0.19936  1.0000
  C   C832      1.0  0.45947  0.10511  0.08100  1.0000
  C   C833      1.0  0.28011  0.43366  0.49246  1.0000
  C   C834      1.0  0.47250  0.06135  0.30085  1.0000
  H   H668      1.0  0.46845  0.00595  0.32362  1.0000
  C   C835      1.0  0.25865  0.09441  0.43518  1.0000
  H   H669      1.0  0.28952  0.15224  0.35910  1.0000
  C   C836      1.0  0.43891  0.10644  0.07696  1.0000
  H   H670      1.0  0.45546  0.24598  0.06197  1.0000
  C   C837      1.0  0.30279  0.01942  0.32456  1.0000
  C   C838      1.0  0.25752  0.09883  0.41134  1.0000
  C   C839      1.0  0.48521  0.20323  0.37462  1.0000
  C   C840      1.0  0.26094  0.42651  0.41737  1.0000
  C   C841      1.0  0.25757  0.06263  0.05997  1.0000
  C   C842      1.0  0.27952  0.18623  0.35546  1.0000
  C   C843      1.0  0.41071  0.01586  0.33730  1.0000
  H   H671      1.0  0.42908  0.00397  0.30943  1.0000
  H   H672      1.0  0.42776  0.01931  0.26088  1.0000
  C   C844      1.0  0.35637  0.14934  0.21087  1.0000
  C   C845      1.0  0.35755  0.15344  0.23453  1.0000
  C   C846      1.0  0.34226  0.14651  0.24945  1.0000
  C   C847      1.0  0.32595  0.13516  0.24083  1.0000
  C   C848      1.0  0.32419  0.13172  0.21699  1.0000
  C   C849      1.0  0.33972  0.13867  0.20208  1.0000
  P   P28       1.0  0.30210  0.11875  0.20590  1.0000
  C   C850      1.0  0.28052  0.13740  0.20787  1.0000
  C   C851      1.0  0.30672  0.11161  0.17598  1.0000
  C   C852      1.0  0.30635  0.12855  0.15868  1.0000
  C   C853      1.0  0.31190  0.12378  0.13589  1.0000
  C   C854      1.0  0.31775  0.10206  0.13016  1.0000
  C   C855      1.0  0.31763  0.08501  0.14708  1.0000
  C   C856      1.0  0.31225  0.08972  0.16992  1.0000
  C   C857      1.0  0.27776  0.15115  0.22709  1.0000
  C   C858      1.0  0.24418  0.19344  0.36112  1.0000
  H   H673      1.0  0.31316  0.07630  0.18273  1.0000
  H   H674      1.0  0.48066  0.07164  0.04583  1.0000
  C   C859      1.0  0.31319  0.07903  0.22885  1.0000
  C   C860      1.0  0.29739  0.09385  0.22321  1.0000
  H   H675      1.0  0.25015  0.03049  0.42609  1.0000
  C   C861      1.0  0.46313  0.43609  0.46239  1.0000
  H   H676      1.0  0.43911  0.20380  0.12005  1.0000
  H   H677      1.0  0.29426  0.19218  0.35092  1.0000
  H   H678      1.0  0.27280  0.41649  0.42536  1.0000
  H   H679      1.0  0.33307  0.05020  0.43926  1.0000
  C   C862      1.0  0.29695  0.02123  0.34775  1.0000
  C   C863      1.0  0.28325  0.07916  0.33276  1.0000
  C   C864      1.0  0.47161  0.01097  0.26476  1.0000
  C   C865      1.0  0.29076  0.02490  0.40284  1.0000
  H   H680      1.0  0.25238  0.11310  0.27089  1.0000
  P   P29       1.0  0.27117  0.01356  0.38556  1.0000
  H   H681      1.0  0.44080  0.46976  0.43585  1.0000
  H   H682      1.0  0.34003  0.99897  0.00802  1.0000
  H   H683      1.0  0.32892  0.47470  0.47651  1.0000
  C   C866      1.0  0.25221  0.14486  0.28779  1.0000
  C   C867      1.0  0.25617  0.44769  0.42577  1.0000
  H   H684      1.0  0.43857  0.24100  0.10009  1.0000
  P   P30       1.0  0.46186  0.47969  0.47869  1.0000
  H   H685      1.0  0.44773  0.27641  0.40794  1.0000
  C   C868      1.0  0.48043  0.19922  0.33320  1.0000
  H   H686      1.0  0.48428  0.19479  0.45404  1.0000
  H   H687      1.0  0.31695  0.02618  0.31880  1.0000
  C   C869      1.0  0.34330  0.99984  0.38269  1.0000
  H   H688      1.0  0.47272  0.21422  0.04377  1.0000
  H   H689      1.0  0.47185  0.19290  0.31901  1.0000
  P   P31       1.0  0.25358  0.12611  0.37196  1.0000
  C   C870      1.0  0.48138  0.17179  0.02776  1.0000
  H   H690      1.0  0.46986  0.05588  0.33801  1.0000
  H   H691      1.0  0.46792  0.02226  0.25042  1.0000
  C   C871      1.0  0.49321  0.41765  0.44820  1.0000
  H   H692      1.0  0.24789  0.11596  0.07688  1.0000
  C   C872      1.0  0.47757  0.06461  0.32409  1.0000
  H   H693      1.0  0.25356  0.47708  0.47126  1.0000
  C   C873      1.0  0.45286  0.38988  0.49873  1.0000
  C   C874      1.0  0.47003  0.10756  0.00111  1.0000
  H   H694      1.0  0.48020  0.06952  0.26520  1.0000
  H   H695      1.0  0.25296  0.14748  0.45439  1.0000
  H   H696      1.0  0.40312  0.00014  0.33987  1.0000
  H   H697      1.0  0.26806  0.32182  0.48258  1.0000
  C   C875      1.0  0.25429  0.13390  0.44235  1.0000
  C   C876      1.0  0.25326  0.13839  0.41849  1.0000
  C   C877      1.0  0.24540  0.16349  0.21271  1.0000
  C   C878      1.0  0.42166  0.49094  0.48575  1.0000
  C   C879      1.0  0.27294  0.99884  0.31674  1.0000
  H   H698      1.0  0.48530  0.14865  0.30075  1.0000
  H   H699      1.0  0.25174  0.04935  0.04974  1.0000
  C   C880      1.0  0.26100  0.49107  0.46289  1.0000
  C   C881      1.0  0.33516  0.49088  0.47202  1.0000
  C   C882      1.0  0.24391  0.33471  0.34988  1.0000
  C   C883      1.0  0.49095  0.25928  0.43393  1.0000
  C   C884      1.0  0.49266  0.07942  0.32958  1.0000
  H   H700      1.0  0.31650  0.39376  0.49898  1.0000
  C   C885      1.0  0.44921  0.10434  0.00002  1.0000
  Fe  Fe57      1.0  0.34722  0.43851  0.53194  1.0000
  S   S114      1.0  0.34952  0.46079  0.56280  1.0000
  S   S115      1.0  0.31635  0.44090  0.51368  1.0000
  Fe  Fe58      1.0  0.39305  0.42715  0.53487  1.0000
  S   S116      1.0  0.39780  0.44892  0.56568  1.0000
  C   C886      1.0  0.26249  0.11731  0.85584  1.0000
  Fe  Fe59      1.0  0.36906  0.43421  0.57984  1.0000
  S   S117      1.0  0.36192  0.41921  0.61625  1.0000
  Fe  Fe60      1.0  0.37783  0.47391  0.54655  1.0000
  S   S118      1.0  0.36527  0.41089  0.54975  1.0000
  S   S119      1.0  0.37467  0.45313  0.51500  1.0000
  Fe  Fe61      1.0  0.39245  0.40015  0.80376  1.0000
  S   S120      1.0  0.39251  0.43498  0.78812  1.0000
  S   S121      1.0  0.41945  0.37767  0.81651  1.0000
  Fe  Fe62      1.0  0.34583  0.39891  0.79969  1.0000
  S   S122      1.0  0.34380  0.43394  0.78385  1.0000
  S   S123      1.0  0.32005  0.37681  0.81371  1.0000
  Fe  Fe63      1.0  0.37044  0.42318  0.76180  1.0000
  S   S124      1.0  0.37823  0.43580  0.72450  1.0000
  Fe  Fe64      1.0  0.36601  0.44351  0.81116  1.0000
  S   S125      1.0  0.36618  0.47770  0.82979  1.0000
  S   S126      1.0  0.37146  0.38771  0.77643  1.0000
  S   S127      1.0  0.36691  0.40918  0.82793  1.0000
  H   H701      1.0  0.38854  0.47441  0.87892  1.0000
  C   C887      1.0  0.27335  0.11397  0.87630  1.0000
  C   C888      1.0  0.26981  0.08382  0.97369  1.0000
  H   H702      1.0  0.45798  0.35828  0.61754  1.0000
  H   H703      1.0  0.44212  0.05328  0.92598  1.0000
  H   H704      1.0  0.36270  0.03943  0.95878  1.0000
  C   C889      1.0  0.26528  0.12079  0.89743  1.0000
  C   C890      1.0  0.39598  0.47597  0.89542  1.0000
  C   C891      1.0  0.29689  0.36563  0.80406  1.0000
  C   C892      1.0  0.28779  0.37239  0.78320  1.0000
  C   C893      1.0  0.26921  0.36344  0.77681  1.0000
  C   C894      1.0  0.25933  0.34766  0.79113  1.0000
  C   C895      1.0  0.26854  0.34076  0.81181  1.0000
  C   C896      1.0  0.28705  0.34973  0.81827  1.0000
  H   H705      1.0  0.29504  0.38452  0.77198  1.0000
  H   H706      1.0  0.26242  0.36882  0.76063  1.0000
  H   H707      1.0  0.29390  0.34412  0.83434  1.0000
  H   H708      1.0  0.49038  0.38631  0.74200  1.0000
  C   C897      1.0  0.41488  0.48072  0.93797  1.0000
  C   C898      1.0  0.43354  0.42730  0.63839  1.0000
  H   H709      1.0  0.26153  0.32813  0.82252  1.0000
  H   H710      1.0  0.33772  0.46817  0.86822  1.0000
  C   C899      1.0  0.39750  0.37184  0.57901  1.0000
  C   C900      1.0  0.42212  0.38659  0.61457  1.0000
  C   C901      1.0  0.39192  0.05186  0.96596  1.0000
  C   C902      1.0  0.48092  0.38452  0.82009  1.0000
  C   C903      1.0  0.46031  0.38917  0.81632  1.0000
  C   C904      1.0  0.44592  0.37298  0.82139  1.0000
  C   C905      1.0  0.45274  0.35208  0.83035  1.0000
  C   C906      1.0  0.47338  0.34738  0.83404  1.0000
  C   C907      1.0  0.26139  0.42519  0.88216  1.0000
  H   H711      1.0  0.45564  0.40523  0.80919  1.0000
  H   H712      1.0  0.44197  0.33929  0.83438  1.0000
  H   H713      1.0  0.47815  0.33118  0.84085  1.0000
  C   C908      1.0  0.47966  0.40456  0.90234  1.0000
  H   H714      1.0  0.45733  0.36236  0.66665  1.0000
  H   H715      1.0  0.37479  0.36876  0.60544  1.0000
  C   C909      1.0  0.41240  0.46199  0.90120  1.0000
  C   C910      1.0  0.45420  0.40683  0.53615  1.0000
  C   C911      1.0  0.47476  0.40107  0.53744  1.0000
  H   H716      1.0  0.32349  0.49219  0.89922  1.0000
  H   H717      1.0  0.44690  0.41526  0.55028  1.0000
  H   H718      1.0  0.46279  0.44439  0.86416  1.0000
  C   C912      1.0  0.36647  0.42450  0.64623  1.0000
  C   C913      1.0  0.37801  0.44228  0.65350  1.0000
  C   C914      1.0  0.38125  0.44550  0.67741  1.0000
  C   C915      1.0  0.37298  0.43114  0.69453  1.0000
  C   C916      1.0  0.36142  0.41337  0.68724  1.0000
  C   C917      1.0  0.35829  0.41007  0.66333  1.0000
  H   H719      1.0  0.38440  0.45357  0.64072  1.0000
  H   H720      1.0  0.39020  0.45931  0.68271  1.0000
  H   H721      1.0  0.35495  0.40211  0.70002  1.0000
  H   H722      1.0  0.34934  0.39624  0.65806  1.0000
  H   H723      1.0  0.43324  0.46970  0.67689  1.0000
  H   H724      1.0  0.28431  0.38596  0.84864  1.0000
  C   C918      1.0  0.44310  0.40140  0.51668  1.0000
  H   H725      1.0  0.38792  0.36647  0.56524  1.0000
  C   C919      1.0  0.39019  0.37290  0.60167  1.0000
  C   C920      1.0  0.46504  0.07721  0.93120  1.0000
  H   H726      1.0  0.39604  0.38167  0.63657  1.0000
  C   C921      1.0  0.37863  0.03579  0.95865  1.0000
  C   C922      1.0  0.40947  0.38275  0.69864  1.0000
  C   C923      1.0  0.48666  0.18004  0.98003  1.0000
  C   C924      1.0  0.43908  0.35901  0.69707  1.0000
  C   C925      1.0  0.46775  0.47578  0.55826  1.0000
  H   H727      1.0  0.45956  0.32712  0.76541  1.0000
  C   C926      1.0  0.43373  0.44950  0.81209  1.0000
  H   H728      1.0  0.31651  0.09145  0.99660  1.0000
  H   H729      1.0  0.43730  0.48001  0.79213  1.0000
  C   C927      1.0  0.42182  0.46450  0.92262  1.0000
  C   C928      1.0  0.40321  0.41860  0.87990  1.0000
  C   C929      1.0  0.27608  0.44155  0.88084  1.0000
  H   H730      1.0  0.35488  0.40602  0.89333  1.0000
  C   C930      1.0  0.48457  0.38979  0.51930  1.0000
  C   C931      1.0  0.28009  0.05279  0.99960  1.0000
  C   C932      1.0  0.45969  0.04468  0.95637  1.0000
  C   C933      1.0  0.43039  0.48641  0.82789  1.0000
  H   H731      1.0  0.26456  0.13278  0.99466  1.0000
  H   H732      1.0  0.26167  0.44959  0.95398  1.0000
  H   H733      1.0  0.31232  0.41755  0.58989  1.0000
  H   H734      1.0  0.43457  0.45413  0.92752  1.0000
  C   C934      1.0  0.48126  0.48835  0.54505  1.0000
  C   C935      1.0  0.34197  0.48545  0.86916  1.0000
  C   C936      1.0  0.46230  0.43235  0.87841  1.0000
  H   H735      1.0  0.44403  0.39156  0.58709  1.0000
  S   S128      1.0  0.25235  0.09796  0.95447  1.0000
  C   C937      1.0  0.26415  0.40493  0.87062  1.0000
  C   C938      1.0  0.42484  0.46285  0.61949  1.0000
  P   P32       1.0  0.42099  0.44102  0.88114  1.0000
  C   C939      1.0  0.42183  0.36623  0.70869  1.0000
  C   C940      1.0  0.48777  0.36354  0.82884  1.0000
  C   C941      1.0  0.37020  0.40359  0.88766  1.0000
  H   H736      1.0  0.47718  0.11911  0.98918  1.0000
  C   C942      1.0  0.47737  0.35510  0.75356  1.0000
  H   H737      1.0  0.41801  0.35914  0.72555  1.0000
  H   H738      1.0  0.42647  0.43166  0.60201  1.0000
  H   H739      1.0  0.43989  0.45519  0.51493  1.0000
  H   H740      1.0  0.43071  0.40852  0.91805  1.0000
  P   P33       1.0  0.43767  0.39741  0.63709  1.0000
  C   C943      1.0  0.46623  0.00261  0.92374  1.0000
  H   H741      1.0  0.42350  0.49143  0.64149  1.0000
  H   H742      1.0  0.43985  0.42918  0.67509  1.0000
  C   C944      1.0  0.35558  0.49406  0.85283  1.0000
  C   C945      1.0  0.41420  0.39189  0.67684  1.0000
  C   C946      1.0  0.41240  0.04698  0.96668  1.0000
  H   H743      1.0  0.29882  0.33122  0.89993  1.0000
  P   P34       1.0  0.44622  0.01940  0.96285  1.0000
  C   C947      1.0  0.42882  0.43998  0.83368  1.0000
  H   H744      1.0  0.43659  0.43883  0.79748  1.0000
  C   C948      1.0  0.42918  0.38597  0.59158  1.0000
  C   C949      1.0  0.38908  0.49212  0.91081  1.0000
  C   C950      1.0  0.47554  0.05117  0.97030  1.0000
  H   H745      1.0  0.30493  0.45048  0.86691  1.0000
  C   C951      1.0  0.45287  0.46397  0.54729  1.0000
  H   H746      1.0  0.26354  0.41704  0.54234  1.0000
  H   H747      1.0  0.25678  0.48872  0.96649  1.0000
  H   H748      1.0  0.37794  0.43730  0.89396  1.0000
  C   C952      1.0  0.27595  0.31407  0.88172  1.0000
  H   H749      1.0  0.42827  0.42199  0.83549  1.0000
  C   C953      1.0  0.26599  0.06305  0.98434  1.0000
  C   C954      1.0  0.44441  0.41223  0.90873  1.0000
  P   P35       1.0  0.24544  0.38346  0.87226  1.0000
  S   S129      1.0  0.41709  0.40824  0.51383  1.0000
  H   H750      1.0  0.25238  0.05462  0.98039  1.0000
  H   H751      1.0  0.49319  0.39511  0.90654  1.0000
  C   C955      1.0  0.47968  0.48936  0.52090  1.0000
  C   C956      1.0  0.47982  0.42051  0.88429  1.0000
  C   C957      1.0  0.40946  0.39757  0.87191  1.0000
  C   C958      1.0  0.41984  0.02599  0.95993  1.0000
  H   H752      1.0  0.46186  0.38802  0.92853  1.0000
  C   C959      1.0  0.40642  0.01006  0.95222  1.0000
  C   C960      1.0  0.29348  0.49286  0.83222  1.0000
  H   H753      1.0  0.24800  0.42844  0.89219  1.0000
  H   H754      1.0  0.30988  0.41482  0.84628  1.0000
  H   H755      1.0  0.29168  0.10968  0.96998  1.0000
  C   C961      1.0  0.46910  0.37085  0.62040  1.0000
  H   H756      1.0  0.49347  0.42335  0.87451  1.0000
  H   H757      1.0  0.48904  0.18289  0.96159  1.0000
  C   C962      1.0  0.25030  0.35817  0.53404  1.0000
  H   H758      1.0  0.46092  0.08741  0.91618  1.0000
  C   C963      1.0  0.47719  0.37824  0.74887  1.0000
  H   H759      1.0  0.26892  0.11152  0.83979  1.0000
  H   H760      1.0  0.46885  0.47509  0.57697  1.0000
  C   C964      1.0  0.24882  0.33733  0.86667  1.0000
  H   H761      1.0  0.36620  0.36917  0.87880  1.0000
  H   H762      1.0  0.46113  0.15923  0.97571  1.0000
  H   H763      1.0  0.47450  0.42321  0.64135  1.0000
  H   H764      1.0  0.39622  0.38862  0.70780  1.0000
  C   C965      1.0  0.39619  0.37983  0.87168  1.0000
  C   C966      1.0  0.29357  0.43783  0.86799  1.0000
  C   C967      1.0  0.43418  0.47269  0.80908  1.0000
  H   H765      1.0  0.47109  0.01943  0.91997  1.0000
  C   C968      1.0  0.48891  0.36662  0.61370  1.0000
  H   H766      1.0  0.25120  0.30172  0.86238  1.0000
  H   H767      1.0  0.26798  0.09219  0.75316  1.0000
  H   H768      1.0  0.28258  0.36838  0.89516  1.0000
  H   H769      1.0  0.38634  0.06789  0.97191  1.0000
  C   C969      1.0  0.45442  0.05792  0.93686  1.0000
  C   C970      1.0  0.45994  0.34497  0.76199  1.0000
  C   C971      1.0  0.44277  0.35792  0.76627  1.0000
  C   C972      1.0  0.44275  0.38097  0.76182  1.0000
  C   C973      1.0  0.45993  0.39112  0.75306  1.0000
  H   H770      1.0  0.28612  0.47707  0.83508  1.0000
  C   C974      1.0  0.43571  0.43836  0.65940  1.0000
  H   H771      1.0  0.42244  0.37804  0.55624  1.0000
  C   C975      1.0  0.42497  0.45360  0.85271  1.0000
  C   C976      1.0  0.45066  0.00981  0.99235  1.0000
  C   C977      1.0  0.48525  0.31511  0.70880  1.0000
  C   C978      1.0  0.43215  0.46141  0.66047  1.0000
  H   H772      1.0  0.42232  0.05944  0.97324  1.0000
  C   C979      1.0  0.26046  0.09950  0.76793  1.0000
  C   C980      1.0  0.24669  0.45662  0.95560  1.0000
  H   H773      1.0  0.28320  0.29779  0.88367  1.0000
  C   C981      1.0  0.37658  0.38280  0.87958  1.0000
  H   H774      1.0  0.40445  0.40474  0.66937  1.0000
  H   H775      1.0  0.27349  0.11779  0.91337  1.0000
  H   H776      1.0  0.44046  0.11365  0.98727  1.0000
  C   C982      1.0  0.25769  0.12871  0.79616  1.0000
  H   H777      1.0  0.42952  0.35023  0.77357  1.0000
  H   H778      1.0  0.42947  0.39097  0.76557  1.0000
  H   H779      1.0  0.45988  0.40900  0.74976  1.0000
  H   H780      1.0  0.28036  0.12729  0.76952  1.0000
  C   C983      1.0  0.24639  0.13107  0.89813  1.0000
  H   H781      1.0  0.47371  0.29768  0.67967  1.0000
  C   C984      1.0  0.27672  0.33791  0.51386  1.0000
  C   C985      1.0  0.27040  0.35117  0.53225  1.0000
  H   H782      1.0  0.31888  0.47804  0.81464  1.0000
  C   C986      1.0  0.47831  0.40732  0.63375  1.0000
  C   C987      1.0  0.48620  0.07042  0.96449  1.0000
  C   C988      1.0  0.26371  0.39008  0.56821  1.0000
  H   H783      1.0  0.47861  0.30372  0.72140  1.0000
  C   C989      1.0  0.42614  0.47694  0.84970  1.0000
  H   H784      1.0  0.42031  0.47232  0.60411  1.0000
  C   C990      1.0  0.44436  0.42808  0.89040  1.0000
  H   H785      1.0  0.44247  0.45411  0.55748  1.0000
  H   H786      1.0  0.28793  0.10581  0.87588  1.0000
  C   C991      1.0  0.27440  0.38051  0.58697  1.0000
  C   C992      1.0  0.29174  0.39051  0.59486  1.0000
  C   C993      1.0  0.29871  0.40997  0.58396  1.0000
  C   C994      1.0  0.28830  0.41947  0.56520  1.0000
  C   C995      1.0  0.27093  0.40957  0.55726  1.0000
  H   H787      1.0  0.26323  0.14408  0.80309  1.0000
  C   C996      1.0  0.45135  0.46480  0.52314  1.0000
  C   C997      1.0  0.38341  0.42144  0.88779  1.0000
  C   C998      1.0  0.44388  0.36816  0.67523  1.0000
  C   C999      1.0  0.46200  0.40055  0.91468  1.0000
  H   H788      1.0  0.42222  0.48266  0.95445  1.0000
  H   H789      1.0  0.27395  0.45715  0.88977  1.0000
  H   H790      1.0  0.48986  0.32860  0.79492  1.0000
  H   H791      1.0  0.28137  0.35634  0.54461  1.0000
  C   C1000     1.0  0.26743  0.11925  0.77715  1.0000
  H   H792      1.0  0.48313  0.40530  0.55262  1.0000
  C   C1001     1.0  0.28828  0.09379  0.97824  1.0000
  H   H793      1.0  0.42458  0.39478  0.86565  1.0000
  H   H794      1.0  0.29236  0.33318  0.51214  1.0000
  H   H795      1.0  0.47955  0.04156  0.98569  1.0000
  H   H796      1.0  0.26961  0.36511  0.59528  1.0000
  H   H797      1.0  0.30000  0.38308  0.60928  1.0000
  C   C1002     1.0  0.25769  0.35640  0.87543  1.0000
  H   H798      1.0  0.29392  0.43435  0.55652  1.0000
  C   C1003     1.0  0.38588  0.01491  0.95174  1.0000
  C   C1004     1.0  0.39851  0.49450  0.93207  1.0000
  C   C1005     1.0  0.48098  0.08340  0.94497  1.0000
  H   H799      1.0  0.48809  0.32393  0.65039  1.0000
  C   C1006     1.0  0.49034  0.32658  0.66869  1.0000
  C   C1007     1.0  0.28180  0.40138  0.85778  1.0000
  H   H800      1.0  0.48921  0.09838  0.94066  1.0000
  C   C1008     1.0  0.29639  0.41776  0.85643  1.0000
  C   C1009     1.0  0.46358  0.39140  0.63010  1.0000
  C   C1010     1.0  0.28475  0.33292  0.89083  1.0000
  C   C1011     1.0  0.41697  0.37842  0.57396  1.0000
  H   H801      1.0  0.40106  0.36393  0.86474  1.0000
  C   C1012     1.0  0.30247  0.08346  0.99339  1.0000
  C   C1013     1.0  0.43142  0.38467  0.66490  1.0000
  C   C1014     1.0  0.40238  0.38032  0.61938  1.0000
  C   C1015     1.0  0.42665  0.47364  0.64054  1.0000
  H   H802      1.0  0.44877  0.34640  0.70508  1.0000
  H   H803      1.0  0.25475  0.39687  0.82367  1.0000
  C   C1016     1.0  0.27558  0.35399  0.88791  1.0000
  C   C1017     1.0  0.42826  0.43976  0.61839  1.0000
  C   C1018     1.0  0.25792  0.31626  0.86979  1.0000
  H   H804      1.0  0.49296  0.35104  0.60551  1.0000
  H   H805      1.0  0.37554  0.00235  0.94641  1.0000
  H   H806      1.0  0.42389  0.48799  0.86406  1.0000
  C   C1019     1.0  0.45420  0.99772  0.94321  1.0000
  H   H807      1.0  0.49171  0.39724  0.81590  1.0000
  C   C1020     1.0  0.46433  0.47813  0.50982  1.0000
  C   C1021     1.0  0.48229  0.31176  0.68518  1.0000
  C   C1022     1.0  0.47100  0.16673  0.98800  1.0000
  C   C1023     1.0  0.31180  0.49339  0.82048  1.0000
  C   C1024     1.0  0.24370  0.08923  0.77768  1.0000
  C   C1025     1.0  0.24395  0.47868  0.96259  1.0000
  C   C1026     1.0  0.47343  0.38420  0.49994  1.0000
  C   C1027     1.0  0.38386  0.87462  0.00972  1.0000
  H   H808      1.0  0.35021  0.69154  0.48697  1.0000
  Fe  Fe65      1.0  0.43864  0.65092  0.07919  1.0000
  S   S130      1.0  0.42574  0.68316  0.09254  1.0000
  S   S131      1.0  0.42715  0.63069  0.04886  1.0000
  Fe  Fe66      1.0  0.47585  0.65134  0.11207  1.0000
  S   S132      1.0  0.46501  0.68393  0.12736  1.0000
  Fe  Fe67      1.0  0.43391  0.66965  0.12843  1.0000
  S   S133      1.0  0.41487  0.66631  0.16214  1.0000
  Fe  Fe68      1.0  0.45745  0.69516  0.09050  1.0000
  S   S134      1.0  0.46894  0.72715  0.07256  1.0000
  S   S135      1.0  0.44511  0.63658  0.11481  1.0000
  S   S136      1.0  0.47009  0.66340  0.07552  1.0000
  H   H809      1.0  0.40651  0.60425  0.08965  1.0000
  H   H810      1.0  0.30513  0.73091  0.22964  1.0000
  S   S137      1.0  0.46147  0.65267  0.45475  1.0000
  H   H811      1.0  0.32219  0.56305  0.43706  1.0000
  S   S138      1.0  0.45226  0.59958  0.46113  1.0000
  H   H812      1.0  0.29876  0.99371  0.42076  1.0000
  Fe  Fe69      1.0  0.47987  0.62067  0.45845  1.0000
  Fe  Fe70      1.0  0.43438  0.63173  0.46053  1.0000
  S   S139      1.0  0.40344  0.63881  0.44522  1.0000
  H   H813      1.0  0.42113  0.59299  0.12762  1.0000
  Fe  Fe71      1.0  0.33995  0.69043  0.27391  1.0000
  S   S140      1.0  0.33783  0.65737  0.29319  1.0000
  S   S141      1.0  0.34669  0.69705  0.23496  1.0000
  Fe  Fe72      1.0  0.32892  0.71722  0.31842  1.0000
  S   S142      1.0  0.32595  0.68551  0.34011  1.0000
  S   S143      1.0  0.33060  0.75409  0.32980  1.0000
  Fe  Fe73      1.0  0.35400  0.67378  0.32233  1.0000
  S   S144      1.0  0.38206  0.65841  0.33903  1.0000
  Fe  Fe74      1.0  0.30957  0.67135  0.30960  1.0000
  S   S145      1.0  0.28383  0.64686  0.31709  1.0000
  S   S146      1.0  0.35781  0.70582  0.30190  1.0000
  S   S147      1.0  0.31073  0.70382  0.28887  1.0000
  Fe  Fe75      1.0  0.31986  0.90913  0.41553  1.0000
  S   S148      1.0  0.29354  0.88634  0.41032  1.0000
  S   S149      1.0  0.32766  0.93323  0.38452  1.0000
  Fe  Fe76      1.0  0.32929  0.88701  0.46306  1.0000
  S   S150      1.0  0.30386  0.86346  0.46021  1.0000
  C   C1028     1.0  0.35124  0.81358  0.48111  1.0000
  Fe  Fe77      1.0  0.31354  0.85811  0.42321  1.0000
  S   S151      1.0  0.31045  0.82113  0.41279  1.0000
  Fe  Fe78      1.0  0.28509  0.89277  0.44762  1.0000
  H   H814      1.0  0.33976  0.84771  0.00641  1.0000
  S   S152      1.0  0.34048  0.88010  0.42677  1.0000
  S   S153      1.0  0.31005  0.91719  0.45216  1.0000
  P   P36       1.0  0.39002  0.76028  0.48820  1.0000
  H   H815      1.0  0.31209  0.66277  0.05171  1.0000
  S   S154      1.0  0.39464  0.98389  0.05733  1.0000
  H   H816      1.0  0.39601  0.79125  0.44806  1.0000
  C   C1029     1.0  0.28882  0.82818  0.32388  1.0000
  H   H817      1.0  0.33183  0.65827  0.20608  1.0000
  C   C1030     1.0  0.32491  0.77239  0.35320  1.0000
  C   C1031     1.0  0.31312  0.76597  0.37225  1.0000
  C   C1032     1.0  0.30920  0.78099  0.39034  1.0000
  C   C1033     1.0  0.31651  0.80292  0.38947  1.0000
  C   C1034     1.0  0.32816  0.80947  0.37033  1.0000
  C   C1035     1.0  0.33234  0.79429  0.35241  1.0000
  H   H818      1.0  0.30663  0.74962  0.37288  1.0000
  H   H819      1.0  0.30003  0.77572  0.40489  1.0000
  H   H820      1.0  0.33393  0.82623  0.36930  1.0000
  H   H821      1.0  0.34136  0.79962  0.33775  1.0000
  C   C1036     1.0  0.39788  0.64485  0.41570  1.0000
  C   C1037     1.0  0.37878  0.65332  0.40978  1.0000
  C   C1038     1.0  0.37375  0.65813  0.38646  1.0000
  C   C1039     1.0  0.38771  0.65408  0.36881  1.0000
  C   C1040     1.0  0.40682  0.64574  0.37481  1.0000
  C   C1041     1.0  0.41193  0.64123  0.39810  1.0000
  H   H822      1.0  0.36780  0.65616  0.42327  1.0000
  H   H823      1.0  0.35902  0.66461  0.38210  1.0000
  H   H824      1.0  0.41772  0.64257  0.36129  1.0000
  H   H825      1.0  0.42666  0.63469  0.40238  1.0000
  C   C1042     1.0  0.33478  0.96102  0.37533  1.0000
  C   C1043     1.0  0.33722  0.96598  0.35146  1.0000
  H   H826      1.0  0.33490  0.95296  0.33914  1.0000
  C   C1044     1.0  0.39633  0.67569  0.18257  1.0000
  C   C1045     1.0  0.38461  0.69506  0.17883  1.0000
  C   C1046     1.0  0.36973  0.70138  0.19510  1.0000
  C   C1047     1.0  0.36662  0.68885  0.21576  1.0000
  C   C1048     1.0  0.37857  0.66967  0.21972  1.0000
  C   C1049     1.0  0.39316  0.66309  0.20318  1.0000
  H   H827      1.0  0.38694  0.70515  0.16335  1.0000
  H   H828      1.0  0.36062  0.71618  0.19167  1.0000
  H   H829      1.0  0.37636  0.65967  0.23534  1.0000
  H   H830      1.0  0.40208  0.64810  0.20641  1.0000
  H   H831      1.0  0.41137  0.68403  0.46527  1.0000
  C   C1050     1.0  0.44383  0.69315  0.00092  1.0000
  H   H832      1.0  0.37831  0.85898  0.48102  1.0000
  H   H833      1.0  0.24698  0.63873  0.11388  1.0000
  C   C1051     1.0  0.40372  0.62986  0.03447  1.0000
  C   C1052     1.0  0.38688  0.64184  0.04207  1.0000
  C   C1053     1.0  0.36836  0.63957  0.03091  1.0000
  H   H834      1.0  0.38476  0.75949  0.30600  1.0000
  C   C1054     1.0  0.37916  0.60944  0.49494  1.0000
  H   H835      1.0  0.38806  0.65250  0.05682  1.0000
  H   H836      1.0  0.28673  0.83749  0.35971  1.0000
  C   C1055     1.0  0.44013  0.78761  0.03295  1.0000
  C   C1056     1.0  0.46081  0.78380  0.03268  1.0000
  C   C1057     1.0  0.46922  0.76504  0.04458  1.0000
  C   C1058     1.0  0.45712  0.74959  0.05663  1.0000
  C   C1059     1.0  0.43636  0.75294  0.05624  1.0000
  C   C1060     1.0  0.42795  0.77195  0.04466  1.0000
  H   H837      1.0  0.47039  0.79560  0.02376  1.0000
  H   H838      1.0  0.35903  0.96856  0.02834  1.0000
  H   H839      1.0  0.42682  0.74120  0.06529  1.0000
  H   H840      1.0  0.41193  0.77460  0.04489  1.0000
  C   C1061     1.0  0.36404  0.57788  0.47648  1.0000
  C   C1062     1.0  0.40392  0.96721  0.03438  1.0000
  C   C1063     1.0  0.41259  0.94609  0.03963  1.0000
  C   C1064     1.0  0.41975  0.93209  0.02193  1.0000
  H   H841      1.0  0.41381  0.94054  0.05754  1.0000
  C   C1065     1.0  0.47074  0.52497  0.47817  1.0000
  H   H842      1.0  0.28913  0.81454  0.28983  1.0000
  C   C1066     1.0  0.33787  0.97824  0.39088  1.0000
  H   H843      1.0  0.29568  0.84367  0.31831  1.0000
  H   H844      1.0  0.43484  0.54383  0.46906  1.0000
  H   H845      1.0  0.33617  0.97488  0.40926  1.0000
  C   C1067     1.0  0.32624  0.61102  0.07150  1.0000
  C   C1068     1.0  0.31785  0.62759  0.05698  1.0000
  C   C1069     1.0  0.31838  0.64998  0.06323  1.0000
  C   C1070     1.0  0.32766  0.65588  0.08380  1.0000
  C   C1071     1.0  0.33644  0.63935  0.09835  1.0000
  C   C1072     1.0  0.33535  0.61681  0.09219  1.0000
  P   P37       1.0  0.34999  0.64675  0.12404  1.0000
  C   C1073     1.0  0.33557  0.64133  0.15012  1.0000
  C   C1074     1.0  0.32113  0.62461  0.15095  1.0000
  C   C1075     1.0  0.31060  0.62010  0.17153  1.0000
  C   C1076     1.0  0.25943  0.65956  0.23208  1.0000
  C   C1077     1.0  0.32869  0.64895  0.19065  1.0000
  C   C1078     1.0  0.33936  0.65334  0.17020  1.0000
  C   C1079     1.0  0.35578  0.67613  0.12273  1.0000
  C   C1080     1.0  0.37501  0.68324  0.11665  1.0000
  C   C1081     1.0  0.37924  0.70607  0.11571  1.0000
  C   C1082     1.0  0.36439  0.72189  0.12098  1.0000
  C   C1083     1.0  0.34523  0.71493  0.12716  1.0000
  C   C1084     1.0  0.34092  0.69215  0.12802  1.0000
  H   H846      1.0  0.41546  0.77677  0.37571  1.0000
  H   H847      1.0  0.39063  0.62198  0.49499  1.0000
  H   H848      1.0  0.40046  0.55363  0.47952  1.0000
  H   H849      1.0  0.34984  0.83039  0.48757  1.0000
  H   H850      1.0  0.34215  0.60375  0.10297  1.0000
  C   C1085     1.0  0.33983  0.78520  0.45547  1.0000
  H   H851      1.0  0.31815  0.61482  0.13591  1.0000
  C   C1086     1.0  0.27265  0.71316  0.33442  1.0000
  H   H852      1.0  0.35083  0.66587  0.17024  1.0000
  H   H853      1.0  0.38685  0.67121  0.11312  1.0000
  H   H854      1.0  0.39422  0.71150  0.11158  1.0000
  H   H855      1.0  0.36788  0.73950  0.12069  1.0000
  H   H856      1.0  0.33380  0.72718  0.13159  1.0000
  H   H857      1.0  0.32603  0.68699  0.13296  1.0000
  H   H858      1.0  0.30667  0.58481  0.40469  1.0000
  Fe  Fe79      1.0  0.45500  0.60411  0.49935  1.0000
  H   H859      1.0  0.35539  0.64863  0.03721  1.0000
  H   H860      1.0  0.36832  0.72817  0.06254  1.0000
  C   C1087     1.0  0.28730  0.64268  0.25305  1.0000
  C   C1088     1.0  0.25479  0.63276  0.17196  1.0000
  H   H861      1.0  0.45556  0.98421  0.05467  1.0000
  C   C1089     1.0  0.34933  0.57739  0.49394  1.0000
  H   H862      1.0  0.24743  0.49507  0.37991  1.0000
  H   H863      1.0  0.29990  0.52556  0.47171  1.0000
  H   H864      1.0  0.38908  0.69350  0.06507  1.0000
  C   C1090     1.0  0.41317  0.53762  0.41652  1.0000
  C   C1091     1.0  0.48590  0.54478  0.44570  1.0000
  C   C1092     1.0  0.47874  0.67337  0.01963  1.0000
  C   C1093     1.0  0.39931  0.60946  0.10561  1.0000
  H   H865      1.0  0.28226  0.67812  0.24907  1.0000
  H   H866      1.0  0.39552  0.99018  0.00678  1.0000
  C   C1094     1.0  0.33770  0.80647  0.46472  1.0000
  H   H867      1.0  0.25537  0.83987  0.45939  1.0000
  C   C1095     1.0  0.39987  0.80626  0.38718  1.0000
  C   C1096     1.0  0.39256  0.73242  0.01062  1.0000
  H   H868      1.0  0.28526  0.93249  0.39186  1.0000
  C   C1097     1.0  0.45468  0.99174  0.03744  1.0000
  H   H869      1.0  0.37955  0.59017  0.41820  1.0000
  C   C1098     1.0  0.37284  0.63018  0.12525  1.0000
  C   C1099     1.0  0.28050  0.62147  0.24786  1.0000
  H   H870      1.0  0.47719  0.96994  0.02294  1.0000
  H   H871      1.0  0.44515  0.63825  0.18759  1.0000
  C   C1100     1.0  0.27747  0.50029  0.47367  1.0000
  H   H872      1.0  0.37814  0.66776  0.47243  1.0000
  C   C1101     1.0  0.35325  0.52355  0.48319  1.0000
  C   C1102     1.0  0.27709  0.73413  0.32474  1.0000
  C   C1103     1.0  0.26585  0.98538  0.39556  1.0000
  H   H873      1.0  0.36151  0.53203  0.49633  1.0000
  C   C1104     1.0  0.40386  0.54947  0.46186  1.0000
  P   P38       1.0  0.27177  0.77023  0.29401  1.0000
  C   C1105     1.0  0.27480  0.80486  0.35441  1.0000
  C   C1106     1.0  0.40346  0.69913  0.03205  1.0000
  H   H874      1.0  0.40294  0.69260  0.40127  1.0000
  H   H875      1.0  0.29973  0.60692  0.17220  1.0000
  H   H876      1.0  0.25284  0.68523  0.33406  1.0000
  H   H877      1.0  0.25442  0.66971  0.28628  1.0000
  C   C1107     1.0  0.44651  0.78891  0.45315  1.0000
  C   C1108     1.0  0.40236  0.78317  0.38471  1.0000
  H   H878      1.0  0.30042  0.64439  0.26373  1.0000
  H   H879      1.0  0.36652  0.93324  0.00898  1.0000
  C   C1109     1.0  0.26420  0.51786  0.43102  1.0000
  C   C1110     1.0  0.46037  0.66917  0.19226  1.0000
  C   C1111     1.0  0.40755  0.60313  0.12699  1.0000
  C   C1112     1.0  0.36676  0.79929  0.48869  1.0000
  H   H880      1.0  0.41487  0.60696  0.00894  1.0000
  P   P39       1.0  0.36377  0.55850  0.45295  1.0000
  H   H881      1.0  0.37275  0.84458  0.02591  1.0000
  C   C1113     1.0  0.48238  0.98187  0.30138  1.0000
  H   H882      1.0  0.47596  0.56029  0.47718  1.0000
  C   C1114     1.0  0.40534  0.71553  0.35057  1.0000
  C   C1115     1.0  0.40860  0.71266  0.32688  1.0000
  C   C1116     1.0  0.40168  0.72879  0.31085  1.0000
  C   C1117     1.0  0.39098  0.74753  0.31847  1.0000
  C   C1118     1.0  0.36821  0.72469  0.39734  1.0000
  C   C1119     1.0  0.35206  0.72480  0.38205  1.0000
  C   C1120     1.0  0.33421  0.71459  0.38852  1.0000
  C   C1121     1.0  0.33246  0.70369  0.41001  1.0000
  C   C1122     1.0  0.34845  0.70348  0.42534  1.0000
  C   C1123     1.0  0.36617  0.71427  0.41926  1.0000
  H   H883      1.0  0.41053  0.70250  0.36241  1.0000
  H   H884      1.0  0.41596  0.69753  0.32093  1.0000
  H   H885      1.0  0.40382  0.72625  0.29247  1.0000
  H   H886      1.0  0.38981  0.59556  0.46317  1.0000
  H   H887      1.0  0.35321  0.73279  0.36513  1.0000
  H   H888      1.0  0.32176  0.71495  0.37670  1.0000
  H   H889      1.0  0.31874  0.69531  0.41465  1.0000
  H   H890      1.0  0.34713  0.69468  0.44178  1.0000
  H   H891      1.0  0.25933  0.52496  0.41456  1.0000
  C   C1124     1.0  0.24387  0.71118  0.30951  1.0000
  C   C1125     1.0  0.39904  0.69464  0.47097  1.0000
  C   C1126     1.0  0.38608  0.73121  0.48178  1.0000
  H   H892      1.0  0.35501  0.73179  0.49264  1.0000
  H   H893      1.0  0.33848  0.74589  0.23751  1.0000
  C   C1127     1.0  0.27872  0.96776  0.38907  1.0000
  H   H894      1.0  0.39827  0.87331  0.01822  1.0000
  H   H895      1.0  0.44671  0.67845  0.19608  1.0000
  C   C1128     1.0  0.42344  0.54360  0.45594  1.0000
  H   H896      1.0  0.42629  0.80732  0.43063  1.0000
  C   C1129     1.0  0.35559  0.77100  0.46261  1.0000
  C   C1130     1.0  0.32567  0.75130  0.24770  1.0000
  H   H897      1.0  0.41682  0.53305  0.39893  1.0000
  C   C1131     1.0  0.25429  0.49968  0.44139  1.0000
  C   C1132     1.0  0.35218  0.57401  0.42929  1.0000
  C   C1133     1.0  0.32263  0.58556  0.40754  1.0000
  C   C1134     1.0  0.44188  0.73120  0.42822  1.0000
  C   C1135     1.0  0.30679  0.74289  0.24325  1.0000
  C   C1136     1.0  0.35135  0.53279  0.46069  1.0000
  H   H898      1.0  0.35752  0.75504  0.45440  1.0000
  H   H899      1.0  0.32961  0.78012  0.44216  1.0000
  C   C1137     1.0  0.35096  0.86020  0.00298  1.0000
  H   H900      1.0  0.25144  0.67452  0.22638  1.0000
  C   C1138     1.0  0.24931  0.98066  0.40991  1.0000
  H   H901      1.0  0.28849  0.60676  0.25444  1.0000
  H   H902      1.0  0.47895  0.69788  0.19384  1.0000
  C   C1139     1.0  0.24947  0.62176  0.31813  1.0000
  C   C1140     1.0  0.35368  0.96612  0.01088  1.0000
  H   H903      1.0  0.43320  0.65907  0.00006  1.0000
  H   H904      1.0  0.38067  0.83275  0.39979  1.0000
  S   S155      1.0  0.25159  0.89260  0.45839  1.0000
  C   C1141     1.0  0.28366  0.82480  0.34717  1.0000
  H   H905      1.0  0.31136  0.62311  0.04058  1.0000
  H   H906      1.0  0.29024  0.74260  0.33045  1.0000
  H   H907      1.0  0.27381  0.80566  0.44734  1.0000
  H   H908      1.0  0.26382  0.98982  0.30482  1.0000
  H   H909      1.0  0.34450  0.99086  0.32489  1.0000
  H   H910      1.0  0.25648  0.92449  0.41790  1.0000
  C   C1142     1.0  0.46291  0.66001  0.01325  1.0000
  H   H911      1.0  0.47604  0.61723  0.17671  1.0000
  H   H912      1.0  0.48879  0.70704  0.02349  1.0000
  C   C1143     1.0  0.26750  0.83906  0.49383  1.0000
  C   C1144     1.0  0.33432  0.59918  0.39308  1.0000
  C   C1145     1.0  0.38887  0.55017  0.44509  1.0000
  C   C1146     1.0  0.38281  0.81484  0.39816  1.0000
  C   C1147     1.0  0.34491  0.50287  0.48888  1.0000
  H   H913      1.0  0.29589  0.78523  0.47523  1.0000
  C   C1148     1.0  0.29041  0.74905  0.25707  1.0000
  C   C1149     1.0  0.38343  0.61409  0.00376  1.0000
  C   C1150     1.0  0.43111  0.76414  0.48150  1.0000
  H   H914      1.0  0.41101  0.81755  0.38025  1.0000
  C   C1151     1.0  0.45946  0.64644  0.18746  1.0000
  C   C1152     1.0  0.47865  0.68007  0.19101  1.0000
  H   H915      1.0  0.26441  0.77291  0.34458  1.0000
  H   H916      1.0  0.42480  0.75856  0.41390  1.0000
  C   C1153     1.0  0.36461  0.69882  0.48330  1.0000
  C   C1154     1.0  0.47697  0.69660  0.01736  1.0000
  C   C1155     1.0  0.33385  0.49953  0.44936  1.0000
  H   H917      1.0  0.28810  0.54122  0.43386  1.0000
  H   H918      1.0  0.45612  0.70082  0.44091  1.0000
  C   C1156     1.0  0.42817  0.53771  0.43326  1.0000
  C   C1157     1.0  0.47684  0.63458  0.18150  1.0000
  H   H919      1.0  0.44343  0.53330  0.42869  1.0000
  H   H920      1.0  0.35476  0.80716  0.41449  1.0000
  C   C1158     1.0  0.27694  0.66171  0.24487  1.0000
  C   C1159     1.0  0.27521  0.94592  0.39695  1.0000
  C   C1160     1.0  0.36947  0.85844  0.01402  1.0000
  C   C1161     1.0  0.24602  0.95878  0.41799  1.0000
  H   H921      1.0  0.37048  0.75307  0.02759  1.0000
  C   C1162     1.0  0.34206  0.52032  0.44364  1.0000
  C   C1163     1.0  0.25899  0.94143  0.41154  1.0000
  C   C1164     1.0  0.39884  0.61079  0.14745  1.0000
  C   C1165     1.0  0.34271  0.98757  0.34327  1.0000
  C   C1166     1.0  0.38786  0.76844  0.39338  1.0000
  S   S156      1.0  0.45959  0.86959  0.00161  1.0000
  H   H922      1.0  0.41670  0.72393  0.47116  1.0000
  C   C1167     1.0  0.25122  0.78213  0.27756  1.0000
  H   H923      1.0  0.27093  0.80229  0.37252  1.0000
  C   C1168     1.0  0.36371  0.58830  0.41514  1.0000
  C   C1169     1.0  0.36822  0.80035  0.40659  1.0000
  H   H924      1.0  0.33742  0.56543  0.49361  1.0000
  C   C1170     1.0  0.48733  0.97643  0.27861  1.0000
  H   H925      1.0  0.25782  0.61074  0.32977  1.0000
  C   C1171     1.0  0.27525  0.81150  0.46489  1.0000
  H   H926      1.0  0.41251  0.68395  0.03360  1.0000
  C   C1172     1.0  0.27698  0.79114  0.31514  1.0000
  H   H927      1.0  0.48604  0.98692  0.24269  1.0000
  H   H928      1.0  0.37827  0.71423  0.43152  1.0000
  H   H929      1.0  0.36386  0.61140  0.38592  1.0000
  C   C1173     1.0  0.27140  0.78810  0.33850  1.0000
  H   H930      1.0  0.42653  0.91599  0.02628  1.0000
  H   H931      1.0  0.32749  0.60885  0.37899  1.0000
  C   C1174     1.0  0.39015  0.70447  0.04996  1.0000
  H   H932      1.0  0.27601  0.74179  0.25393  1.0000
  H   H933      1.0  0.27415  0.63073  0.14200  1.0000
  H   H934      1.0  0.48670  0.97069  0.31559  1.0000
  H   H935      1.0  0.49098  0.56029  0.43774  1.0000
  C   C1175     1.0  0.28057  0.52718  0.44195  1.0000
  C   C1176     1.0  0.28527  0.81155  0.30787  1.0000
  C   C1177     1.0  0.37868  0.59435  0.47686  1.0000
  H   H936      1.0  0.37536  0.63040  0.16268  1.0000
  C   C1178     1.0  0.37955  0.73791  0.02877  1.0000
  H   H937      1.0  0.32835  0.67337  0.08785  1.0000
  C   C1179     1.0  0.40492  0.71321  0.01234  1.0000
  H   H938      1.0  0.32611  0.59372  0.06636  1.0000
  C   C1180     1.0  0.47250  0.50481  0.46636  1.0000
  H   H939      1.0  0.30626  0.62882  0.20729  1.0000
  C   C1181     1.0  0.47749  0.54481  0.46790  1.0000
  C   C1182     1.0  0.39507  0.73461  0.35847  1.0000
  C   C1183     1.0  0.44824  0.77337  0.47150  1.0000
  H   H940      1.0  0.46381  0.64206  0.01621  1.0000
  H   H941      1.0  0.26680  0.62905  0.18396  1.0000
  C   C1184     1.0  0.36739  0.72165  0.48636  1.0000
  C   C1185     1.0  0.40196  0.71741  0.47429  1.0000
  C   C1186     1.0  0.41206  0.77054  0.47340  1.0000
  H   H942      1.0  0.28233  0.70553  0.34745  1.0000
  H   H943      1.0  0.25087  0.93362  0.48622  1.0000
  H   H944      1.0  0.45981  0.79624  0.44559  1.0000
  C   C1187     1.0  0.36895  0.77780  0.47963  1.0000
  H   H945      1.0  0.32579  0.81768  0.45882  1.0000
  H   H946      1.0  0.25838  0.60264  0.23062  1.0000
  Fe  Fe80      1.0  0.46246  0.65481  0.49387  1.0000
  C   C1188     1.0  0.48080  0.50490  0.44392  1.0000
  C   C1189     1.0  0.31430  0.63235  0.19132  1.0000
  C   C1190     1.0  0.38156  0.62428  0.14663  1.0000
  C   C1191     1.0  0.28719  0.51841  0.46326  1.0000
  C   C1192     1.0  0.37835  0.72394  0.04844  1.0000
  S   S157      1.0  0.42885  0.81170  0.01924  1.0000
  H   H947      1.0  0.43301  0.75049  0.00180  1.0000
  C   C1193     1.0  0.42588  0.74063  0.41569  1.0000
  H   H948      1.0  0.25326  0.99300  0.34573  1.0000
  C   C1194     1.0  0.24761  0.65496  0.29372  1.0000
  C   C1195     1.0  0.41045  0.78595  0.45472  1.0000
  C   C1196     1.0  0.26487  0.83076  0.47165  1.0000
  C   C1197     1.0  0.28785  0.80014  0.48055  1.0000
  H   H949      1.0  0.45291  0.74180  0.43573  1.0000
  C   C1198     1.0  0.26326  0.61924  0.23462  1.0000
  C   C1199     1.0  0.38034  0.68540  0.47521  1.0000
  C   C1200     1.0  0.40192  0.61623  0.01506  1.0000
  C   C1201     1.0  0.35482  0.60060  0.39695  1.0000
  C   C1202     1.0  0.25872  0.64096  0.30876  1.0000
  H   H950      1.0  0.37858  0.76461  0.34753  1.0000
  P   P40       1.0  0.39095  0.73869  0.38912  1.0000
  C   C1203     1.0  0.41372  0.70360  0.40867  1.0000
  C   C1204     1.0  0.42971  0.69425  0.42121  1.0000
  C   C1205     1.0  0.42764  0.79514  0.44473  1.0000
  H   H951      1.0  0.43116  0.67626  0.42336  1.0000
  H   H952      1.0  0.38207  0.54368  0.40928  1.0000
  C   C1206     1.0  0.37064  0.77724  0.40416  1.0000
  C   C1207     1.0  0.41167  0.72689  0.40569  1.0000
  H   H953      1.0  0.48528  0.76265  0.04470  1.0000
  H   H954      1.0  0.31439  0.78291  0.29410  1.0000
  H   H955      1.0  0.37608  0.62784  0.08797  1.0000
  H   H956      1.0  0.43269  0.75237  0.49595  1.0000
  C   C1208     1.0  0.38209  0.62301  0.10472  1.0000
  C   C1209     1.0  0.32817  0.76596  0.26586  1.0000
  C   C1210     1.0  0.39353  0.54374  0.42242  1.0000
  C   C1211     1.0  0.24374  0.63827  0.13231  1.0000
  H   H957      1.0  0.34294  0.77184  0.26986  1.0000
  C   C1212     1.0  0.40233  0.97411  0.01114  1.0000
  C   C1213     1.0  0.38753  0.75036  0.34214  1.0000
  H   H958      1.0  0.29166  0.97085  0.37813  1.0000
  C   C1214     1.0  0.31182  0.77228  0.27959  1.0000
  H   H959      1.0  0.34143  0.52643  0.42586  1.0000
  H   H960      1.0  0.35881  0.76646  0.41018  1.0000
  C   C1215     1.0  0.44377  0.70805  0.43105  1.0000
  H   H961      1.0  0.40577  0.60679  0.16396  1.0000
  C   C1216     1.0  0.45963  0.70647  0.00806  1.0000
  C   C1217     1.0  0.25903  0.63368  0.14818  1.0000
  C   C1218     1.0  0.33149  0.57313  0.42571  1.0000
  C   C1219     1.0  0.29279  0.76388  0.27531  1.0000
  H   H962      1.0  0.46360  0.52564  0.49505  1.0000
  C   C1220     1.0  0.36642  0.62547  0.01188  1.0000
  H   H963      1.0  0.46286  0.76859  0.47819  1.0000
  C   C1221     1.0  0.26484  0.74393  0.30754  1.0000
  H   H964      1.0  0.45865  0.72447  0.00706  1.0000
  C   C1222     1.0  0.25602  0.70171  0.32685  1.0000
  C   C1223     1.0  0.46680  0.98370  0.01956  1.0000
  C   C1224     1.0  0.48202  0.99102  0.26032  1.0000
  S   S158      1.0  0.48319  0.62435  0.49691  1.0000
  H   H965      1.0  0.39078  0.49983  0.49140  1.0000
  C   C1225     1.0  0.44549  0.66981  0.00408  1.0000
  C   C1226     1.0  0.48766  0.52481  0.43375  1.0000
  C   C1227     1.0  0.25228  0.63828  0.22710  1.0000
  H   H966      1.0  0.26829  0.78818  0.24601  1.0000
  H   H967      1.0  0.34554  0.70879  0.00461  1.0000
  C   C1228     1.0  0.25387  0.78959  0.25451  1.0000
  H   H968      1.0  0.49203  0.66576  0.02729  1.0000
  C   C1229     1.0  0.24838  0.73208  0.29965  1.0000
  S   S159      1.0  0.43478  0.63457  0.49940  1.0000
  C   C1230     1.0  0.37988  0.86031  0.49956  1.0000
  S   S160      1.0  0.34459  0.88640  0.49878  1.0000
  H   H969      1.0  0.25966  0.85437  0.49825  1.0000
  H   H970      1.0  0.28520  0.91106  0.94325  1.0000
  Fe  Fe81      1.0  0.44256  0.84639  0.94257  1.0000
  S   S161      1.0  0.42114  0.85497  0.97106  1.0000
  S   S162      1.0  0.43326  0.82804  0.91024  1.0000
  Fe  Fe82      1.0  0.47885  0.86146  0.97037  1.0000
  H   H971      1.0  0.31238  0.87594  0.53161  1.0000
  Fe  Fe83      1.0  0.43897  0.88618  0.97561  1.0000
  H   H972      1.0  0.36543  0.61995  0.52680  1.0000
  S   S163      1.0  0.46447  0.82794  0.96583  1.0000
  S   S164      1.0  0.45872  0.87903  0.94464  1.0000
  Fe  Fe84      1.0  0.31336  0.77486  0.82609  1.0000
  S   S165      1.0  0.30266  0.80779  0.84043  1.0000
  S   S166      1.0  0.29906  0.74335  0.84214  1.0000
  Fe  Fe85      1.0  0.33954  0.79833  0.78847  1.0000
  S   S167      1.0  0.33064  0.83257  0.80099  1.0000
  S   S168      1.0  0.36164  0.78887  0.75885  1.0000
  Fe  Fe86      1.0  0.33477  0.81788  0.83701  1.0000
  S   S169      1.0  0.34635  0.83785  0.86709  1.0000
  Fe  Fe87      1.0  0.29895  0.82009  0.80374  1.0000
  S   S170      1.0  0.27367  0.84338  0.78956  1.0000
  S   S171      1.0  0.34576  0.78437  0.82481  1.0000
  S   S172      1.0  0.30757  0.78648  0.78906  1.0000
  Fe  Fe88      1.0  0.32326  0.57419  0.92580  1.0000
  S   S173      1.0  0.29914  0.59695  0.91041  1.0000
  S   S174      1.0  0.32864  0.53825  0.91152  1.0000
  Fe  Fe89      1.0  0.33013  0.60714  0.96624  1.0000
  S   S175      1.0  0.30606  0.63066  0.95279  1.0000
  H   H973      1.0  0.36286  0.77232  0.88475  1.0000
  Fe  Fe90      1.0  0.28747  0.60014  0.94728  1.0000
  H   H974      1.0  0.33253  0.87895  0.97909  1.0000
  Fe  Fe91      1.0  0.31963  0.62573  0.91763  1.0000
  S   S176      1.0  0.33234  0.65527  0.89600  1.0000
  S   S177      1.0  0.31075  0.57673  0.96255  1.0000
  S   S178      1.0  0.34446  0.60278  0.93110  1.0000
  C   C1231     1.0  0.25074  0.56965  0.90577  1.0000
  C   C1232     1.0  0.47149  0.89504  0.66497  1.0000
  Fe  Fe92      1.0  0.42869  0.81945  0.63827  1.0000
  S   S179      1.0  0.44036  0.84842  0.61634  1.0000
  S   S180      1.0  0.40906  0.82948  0.66989  1.0000
  Fe  Fe93      1.0  0.44965  0.78539  0.60588  1.0000
  S   S181      1.0  0.46322  0.81247  0.58347  1.0000
  S   S182      1.0  0.45257  0.74745  0.59935  1.0000
  Fe  Fe94      1.0  0.47034  0.83013  0.61666  1.0000
  Fe  Fe95      1.0  0.43236  0.82873  0.58487  1.0000
  S   S183      1.0  0.41974  0.83738  0.54848  1.0000
  S   S184      1.0  0.45877  0.80174  0.63940  1.0000
  S   S185      1.0  0.41875  0.80120  0.60671  1.0000
  C   C1233     1.0  0.36581  0.87287  0.51206  1.0000
  C   C1234     1.0  0.37901  0.92051  0.94448  1.0000
  C   C1235     1.0  0.39617  0.84963  0.51105  1.0000
  C   C1236     1.0  0.39868  0.85121  0.53518  1.0000
  C   C1237     1.0  0.38460  0.86373  0.54769  1.0000
  C   C1238     1.0  0.36840  0.87459  0.53617  1.0000
  H   H975      1.0  0.43592  0.67931  0.94983  1.0000
  H   H976      1.0  0.38628  0.86522  0.56620  1.0000
  H   H977      1.0  0.35768  0.88424  0.54609  1.0000
  C   C1239     1.0  0.46100  0.70636  0.53239  1.0000
  C   C1240     1.0  0.46046  0.72992  0.53125  1.0000
  C   C1241     1.0  0.45781  0.74274  0.55137  1.0000
  C   C1242     1.0  0.45606  0.73219  0.57318  1.0000
  C   C1243     1.0  0.45703  0.70861  0.57440  1.0000
  C   C1244     1.0  0.45933  0.69579  0.55419  1.0000
  H   H978      1.0  0.45591  0.70020  0.59111  1.0000
  H   H979      1.0  0.45986  0.67774  0.55544  1.0000
  C   C1245     1.0  0.33846  0.68952  0.97491  1.0000
  H   H980      1.0  0.35490  0.74212  0.98175  1.0000
  H   H981      1.0  0.29883  0.93051  0.86925  1.0000
  H   H982      1.0  0.45883  0.88859  0.65576  1.0000
  C   C1246     1.0  0.37446  0.80059  0.73402  1.0000
  C   C1247     1.0  0.38661  0.78651  0.72033  1.0000
  C   C1248     1.0  0.39705  0.79484  0.70059  1.0000
  C   C1249     1.0  0.39580  0.81760  0.69433  1.0000
  C   C1250     1.0  0.38381  0.83171  0.70816  1.0000
  C   C1251     1.0  0.37310  0.82331  0.72766  1.0000
  H   H983      1.0  0.38785  0.76892  0.72494  1.0000
  H   H984      1.0  0.40615  0.78367  0.69029  1.0000
  H   H985      1.0  0.38262  0.84932  0.70360  1.0000
  H   H986      1.0  0.36379  0.83442  0.73776  1.0000
  C   C1252     1.0  0.30879  0.71945  0.85780  1.0000
  C   C1253     1.0  0.29532  0.70384  0.86731  1.0000
  C   C1254     1.0  0.30217  0.68435  0.87936  1.0000
  C   C1255     1.0  0.32266  0.68005  0.88187  1.0000
  C   C1256     1.0  0.33615  0.69575  0.87252  1.0000
  C   C1257     1.0  0.32930  0.71540  0.86076  1.0000
  H   H987      1.0  0.27944  0.70677  0.86521  1.0000
  H   H988      1.0  0.29158  0.67253  0.88641  1.0000
  H   H989      1.0  0.35204  0.69269  0.87437  1.0000
  H   H990      1.0  0.33987  0.72723  0.85369  1.0000
  C   C1258     1.0  0.34334  0.70797  0.93758  1.0000
  C   C1259     1.0  0.25438  0.89677  0.84673  1.0000
  H   H991      1.0  0.38046  0.73662  0.57027  1.0000
  C   C1260     1.0  0.31662  0.75133  0.91178  1.0000
  C   C1261     1.0  0.40833  0.82892  0.90007  1.0000
  C   C1262     1.0  0.40302  0.81560  0.88143  1.0000
  C   C1263     1.0  0.38387  0.81759  0.87150  1.0000
  C   C1264     1.0  0.36984  0.83284  0.88032  1.0000
  C   C1265     1.0  0.37482  0.84527  0.89971  1.0000
  C   C1266     1.0  0.39395  0.84327  0.90959  1.0000
  H   H992      1.0  0.41382  0.80388  0.87450  1.0000
  H   H993      1.0  0.38015  0.80779  0.85668  1.0000
  H   H994      1.0  0.36393  0.85672  0.90693  1.0000
  H   H995      1.0  0.39772  0.85303  0.92433  1.0000
  H   H996      1.0  0.44661  0.82837  0.69909  1.0000
  C   C1267     1.0  0.33927  0.52180  0.88853  1.0000
  C   C1268     1.0  0.47136  0.89323  0.76757  1.0000
  C   C1269     1.0  0.40109  0.52805  0.53552  1.0000
  C   C1270     1.0  0.26829  0.57475  0.80352  1.0000
  C   C1271     1.0  0.49348  0.92116  0.98127  1.0000
  C   C1272     1.0  0.42702  0.73081  0.94742  1.0000
  H   H997      1.0  0.24582  0.92823  0.57969  1.0000
  C   C1273     1.0  0.29992  0.76095  0.90080  1.0000
  C   C1274     1.0  0.29907  0.78390  0.89594  1.0000
  C   C1275     1.0  0.31504  0.79727  0.90186  1.0000
  C   C1276     1.0  0.33178  0.78773  0.91286  1.0000
  C   C1277     1.0  0.33262  0.76467  0.91824  1.0000
  P   P41       1.0  0.35502  0.75230  0.93088  1.0000
  C   C1278     1.0  0.37160  0.74448  0.90749  1.0000
  C   C1279     1.0  0.36630  0.77357  0.94805  1.0000
  C   C1280     1.0  0.38563  0.78115  0.94299  1.0000
  C   C1281     1.0  0.39392  0.79799  0.95609  1.0000
  C   C1282     1.0  0.47962  0.64494  0.58936  1.0000
  C   C1283     1.0  0.25869  0.55347  0.92110  1.0000
  C   C1284     1.0  0.35521  0.78369  0.96585  1.0000
  C   C1285     1.0  0.34895  0.72768  0.94840  1.0000
  C   C1286     1.0  0.33108  0.81705  0.57901  1.0000
  C   C1287     1.0  0.33962  0.89829  0.92338  1.0000
  C   C1288     1.0  0.34996  0.72769  0.97274  1.0000
  H   H998      1.0  0.28630  0.79114  0.88690  1.0000
  H   H999      1.0  0.31475  0.81494  0.89725  1.0000
  H   H1000     1.0  0.34426  0.79835  0.91650  1.0000
  H   H1001     1.0  0.39428  0.77441  0.92880  1.0000
  C   C1289     1.0  0.26159  0.88264  0.62506  1.0000
  H   H1002     1.0  0.33567  0.95837  0.94797  1.0000
  H   H1003     1.0  0.33998  0.77873  0.96941  1.0000
  H   H1004     1.0  0.38419  0.71538  0.92557  1.0000
  C   C1290     1.0  0.45924  0.64491  0.59488  1.0000
  H   H1005     1.0  0.40872  0.80404  0.95197  1.0000
  H   H1006     1.0  0.46231  0.73836  0.51466  1.0000
  C   C1291     1.0  0.32358  0.89144  0.91006  1.0000
  C   C1292     1.0  0.37673  0.58690  0.57593  1.0000
  C   C1293     1.0  0.38711  0.56651  0.57822  1.0000
  C   C1294     1.0  0.40746  0.56616  0.58346  1.0000
  C   C1295     1.0  0.41748  0.58618  0.58641  1.0000
  C   C1296     1.0  0.40728  0.60678  0.58352  1.0000
  C   C1297     1.0  0.38671  0.60698  0.57880  1.0000
  P   P42       1.0  0.41970  0.63272  0.58857  1.0000
  C   C1298     1.0  0.41447  0.63958  0.61826  1.0000
  C   C1299     1.0  0.44624  0.63103  0.58309  1.0000
  C   C1300     1.0  0.45383  0.61774  0.56523  1.0000
  C   C1301     1.0  0.39822  0.65369  0.62382  1.0000
  C   C1302     1.0  0.39416  0.65878  0.64693  1.0000
  C   C1303     1.0  0.40607  0.64953  0.66462  1.0000
  C   C1304     1.0  0.42197  0.63504  0.65923  1.0000
  C   C1305     1.0  0.42611  0.62997  0.63614  1.0000
  C   C1306     1.0  0.41147  0.65465  0.56879  1.0000
  C   C1307     1.0  0.40467  0.64950  0.54666  1.0000
  C   C1308     1.0  0.40055  0.66661  0.53039  1.0000
  C   C1309     1.0  0.40360  0.68888  0.53592  1.0000
  C   C1310     1.0  0.41046  0.69409  0.55787  1.0000
  C   C1311     1.0  0.41441  0.67707  0.57426  1.0000
  P   P43       1.0  0.28407  0.83879  0.53822  1.0000
  H   H1007     1.0  0.37945  0.55092  0.57576  1.0000
  H   H1008     1.0  0.41549  0.55030  0.58501  1.0000
  H   H1009     1.0  0.43316  0.58548  0.59087  1.0000
  H   H1010     1.0  0.37839  0.62263  0.57744  1.0000
  H   H1011     1.0  0.44398  0.60779  0.55503  1.0000
  H   H1012     1.0  0.38868  0.66078  0.61038  1.0000
  H   H1013     1.0  0.38176  0.66991  0.65114  1.0000
  H   H1014     1.0  0.40291  0.65352  0.68251  1.0000
  H   H1015     1.0  0.43109  0.62773  0.67297  1.0000
  H   H1016     1.0  0.43838  0.61857  0.63223  1.0000
  H   H1017     1.0  0.40346  0.63230  0.54154  1.0000
  H   H1018     1.0  0.24621  0.87536  0.76914  1.0000
  H   H1019     1.0  0.48192  0.98938  0.89416  1.0000
  H   H1020     1.0  0.41390  0.71121  0.56179  1.0000
  H   H1021     1.0  0.42070  0.68141  0.59075  1.0000
  C   C1312     1.0  0.39853  0.54986  0.52630  1.0000
  H   H1022     1.0  0.25403  0.55326  0.93912  1.0000
  H   H1023     1.0  0.32259  0.56076  0.86421  1.0000
  C   C1313     1.0  0.25754  0.57088  0.88282  1.0000
  H   H1024     1.0  0.37733  0.80524  0.50116  1.0000
  H   H1025     1.0  0.48951  0.65605  0.59815  1.0000
  C   C1314     1.0  0.39365  0.76230  0.51911  1.0000
  C   C1315     1.0  0.34455  0.82668  0.54126  1.0000
  C   C1316     1.0  0.40725  0.77755  0.52784  1.0000
  H   H1026     1.0  0.33338  0.81111  0.59669  1.0000
  H   H1027     1.0  0.41286  0.58036  0.51492  1.0000
  C   C1317     1.0  0.34062  0.96024  0.96561  1.0000
  C   C1318     1.0  0.40907  0.95991  0.99348  1.0000
  H   H1028     1.0  0.29179  0.89158  0.61612  1.0000
  S   S186      1.0  0.37961  0.51180  0.54096  1.0000
  C   C1319     1.0  0.27018  0.91119  0.59657  1.0000
  H   H1029     1.0  0.39602  0.66246  0.51311  1.0000
  C   C1320     1.0  0.28093  0.86887  0.53667  1.0000
  C   C1321     1.0  0.40970  0.68469  0.97129  1.0000
  H   H1030     1.0  0.47215  0.92582  0.64501  1.0000
  H   H1031     1.0  0.31993  0.54917  0.82067  1.0000
  C   C1322     1.0  0.41254  0.92518  0.91537  1.0000
  H   H1032     1.0  0.44006  0.97110  0.96293  1.0000
  C   C1323     1.0  0.34691  0.87804  0.98749  1.0000
  H   H1033     1.0  0.33668  0.62999  0.85504  1.0000
  C   C1324     1.0  0.30730  0.62082  0.84416  1.0000
  H   H1034     1.0  0.48000  0.60704  0.54635  1.0000
  H   H1035     1.0  0.26617  0.86996  0.63775  1.0000
  C   C1325     1.0  0.27604  0.89482  0.61290  1.0000
  H   H1036     1.0  0.30284  0.63788  0.83964  1.0000
  H   H1037     1.0  0.38190  0.68384  0.99085  1.0000
  C   C1326     1.0  0.30041  0.90758  0.93766  1.0000
  C   C1327     1.0  0.45478  0.95856  0.93279  1.0000
  H   H1038     1.0  0.42316  0.78818  0.55773  1.0000
  C   C1328     1.0  0.29451  0.90584  0.52979  1.0000
  H   H1039     1.0  0.27659  0.87230  0.83647  1.0000
  C   C1329     1.0  0.40255  0.76204  0.56656  1.0000
  C   C1330     1.0  0.29387  0.60339  0.84182  1.0000
  C   C1331     1.0  0.33620  0.90970  0.94408  1.0000
  C   C1332     1.0  0.39771  0.73268  0.87133  1.0000
  H   H1040     1.0  0.29157  0.89065  0.90688  1.0000
  C   C1333     1.0  0.28989  0.90038  0.85284  1.0000
  C   C1334     1.0  0.27389  0.88825  0.84466  1.0000
  H   H1041     1.0  0.27897  0.60725  0.83558  1.0000
  H   H1042     1.0  0.26448  0.94584  0.87274  1.0000
  C   C1335     1.0  0.48251  0.82741  0.84356  1.0000
  H   H1043     1.0  0.40144  0.70204  0.52295  1.0000
  C   C1336     1.0  0.32119  0.51375  0.81639  1.0000
  H   H1044     1.0  0.28367  0.57895  0.79968  1.0000
  C   C1337     1.0  0.39041  0.67713  0.97654  1.0000
  C   C1338     1.0  0.36493  0.60834  0.51272  1.0000
  C   C1339     1.0  0.39718  0.71966  0.89174  1.0000
  H   H1045     1.0  0.42563  0.92694  0.90439  1.0000
  C   C1340     1.0  0.38498  0.94182  0.93678  1.0000
  H   H1046     1.0  0.37169  0.52351  0.84244  1.0000
  C   C1341     1.0  0.43842  0.76910  0.97036  1.0000
  C   C1342     1.0  0.43690  0.53411  0.53684  1.0000
  P   P44       1.0  0.28233  0.55871  0.84607  1.0000
  H   H1047     1.0  0.47164  0.95030  0.90217  1.0000
  C   C1343     1.0  0.48715  0.63118  0.57199  1.0000
  C   C1344     1.0  0.25366  0.57896  0.78673  1.0000
  S   S187      1.0  0.45546  0.57274  0.52259  1.0000
  H   H1048     1.0  0.34637  0.49591  0.50635  1.0000
  H   H1049     1.0  0.42251  0.50364  0.54838  1.0000
  H   H1050     1.0  0.33550  0.51401  0.80745  1.0000
  C   C1345     1.0  0.25883  0.90160  0.53465  1.0000
  H   H1051     1.0  0.30501  0.89372  0.85113  1.0000
  C   C1346     1.0  0.37984  0.89243  0.99426  1.0000
  C   C1347     1.0  0.31244  0.53361  0.82426  1.0000
  C   C1348     1.0  0.31643  0.91423  0.95116  1.0000
  H   H1052     1.0  0.40667  0.76122  0.58468  1.0000
  C   C1349     1.0  0.38208  0.66013  0.96372  1.0000
  H   H1053     1.0  0.24725  0.83188  0.82927  1.0000
  C   C1350     1.0  0.37232  0.75755  0.88698  1.0000
  H   H1054     1.0  0.45051  0.94146  0.93664  1.0000
  C   C1351     1.0  0.38795  0.74798  0.55834  1.0000
  C   C1352     1.0  0.38429  0.72560  0.90984  1.0000
  C   C1353     1.0  0.42067  0.67449  0.95344  1.0000
  C   C1354     1.0  0.34467  0.70872  0.98589  1.0000
  H   H1055     1.0  0.35733  0.82838  0.52984  1.0000
  H   H1056     1.0  0.30728  0.91626  0.52604  1.0000
  H   H1057     1.0  0.36093  0.58707  0.57203  1.0000
  H   H1058     1.0  0.35771  0.54744  0.87350  1.0000
  S   S188      1.0  0.42695  0.92230  0.97556  1.0000
  C   C1355     1.0  0.31187  0.82303  0.57134  1.0000
  H   H1059     1.0  0.47432  0.86590  0.68689  1.0000
  C   C1356     1.0  0.29736  0.88276  0.53287  1.0000
  H   H1060     1.0  0.40706  0.96505  0.97562  1.0000
  H   H1061     1.0  0.48859  0.79602  0.73871  1.0000
  H   H1062     1.0  0.28792  0.75044  0.89524  1.0000
  H   H1063     1.0  0.25199  0.58425  0.87151  1.0000
  P   P45       1.0  0.42128  0.70559  0.98868  1.0000
  C   C1357     1.0  0.47906  0.91597  0.65887  1.0000
  C   C1358     1.0  0.26685  0.92973  0.86495  1.0000
  H   H1064     1.0  0.33443  0.67473  0.98504  1.0000
  C   C1359     1.0  0.43296  0.75000  0.98307  1.0000
  H   H1065     1.0  0.39303  0.74330  0.99538  1.0000
  C   C1360     1.0  0.25067  0.91758  0.85684  1.0000
  H   H1066     1.0  0.48443  0.92444  0.94580  1.0000
  H   H1067     1.0  0.38595  0.88509  0.94364  1.0000
  H   H1068     1.0  0.38365  0.55622  0.52252  1.0000
  H   H1069     1.0  0.38568  0.76179  0.85319  1.0000
  C   C1361     1.0  0.38315  0.80718  0.97446  1.0000
  C   C1362     1.0  0.46499  0.99286  0.99714  1.0000
  H   H1070     1.0  0.42069  0.64988  0.92672  1.0000
  C   C1363     1.0  0.32637  0.61643  0.85302  1.0000
  H   H1071     1.0  0.44189  0.79017  0.71506  1.0000
  H   H1072     1.0  0.36738  0.65394  0.96814  1.0000
  H   H1073     1.0  0.38625  0.63738  0.93575  1.0000
  C   C1364     1.0  0.43241  0.75002  0.93472  1.0000
  C   C1365     1.0  0.28015  0.53953  0.89050  1.0000
  C   C1366     1.0  0.26541  0.82738  0.55766  1.0000
  C   C1367     1.0  0.39013  0.90163  0.93764  1.0000
  H   H1074     1.0  0.41540  0.88931  0.91806  1.0000
  C   C1368     1.0  0.35108  0.94274  0.97716  1.0000
  C   C1369     1.0  0.39284  0.65059  0.94555  1.0000
  H   H1075     1.0  0.40765  0.72803  0.85730  1.0000
  C   C1370     1.0  0.37814  0.85332  0.78937  1.0000
  C   C1371     1.0  0.37584  0.86229  0.81137  1.0000
  C   C1372     1.0  0.39016  0.85766  0.82836  1.0000
  C   C1373     1.0  0.40672  0.84392  0.82347  1.0000
  C   C1374     1.0  0.40911  0.83473  0.80142  1.0000
  C   C1375     1.0  0.39460  0.83948  0.78446  1.0000
  P   P46       1.0  0.42932  0.81522  0.79523  1.0000
  C   C1376     1.0  0.42092  0.78704  0.80060  1.0000
  C   C1377     1.0  0.43609  0.81908  0.76501  1.0000
  C   C1378     1.0  0.43880  0.84076  0.75577  1.0000
  C   C1379     1.0  0.44280  0.84406  0.73213  1.0000
  C   C1380     1.0  0.44415  0.82579  0.71756  1.0000
  C   C1381     1.0  0.44151  0.80420  0.72660  1.0000
  C   C1382     1.0  0.43744  0.80080  0.75021  1.0000
  C   C1383     1.0  0.43485  0.76967  0.80519  1.0000
  C   C1384     1.0  0.42848  0.74765  0.80826  1.0000
  C   C1385     1.0  0.40820  0.74279  0.80649  1.0000
  C   C1386     1.0  0.39429  0.75998  0.80193  1.0000
  C   C1387     1.0  0.40058  0.78203  0.79918  1.0000
  C   C1388     1.0  0.45040  0.82000  0.81379  1.0000
  C   C1389     1.0  0.44939  0.81338  0.83725  1.0000
  C   C1390     1.0  0.46521  0.81741  0.85215  1.0000
  H   H1076     1.0  0.27008  0.85179  0.58404  1.0000
  H   H1077     1.0  0.45614  0.89966  0.76886  1.0000
  C   C1391     1.0  0.46791  0.82992  0.80521  1.0000
  H   H1078     1.0  0.36681  0.85648  0.77631  1.0000
  H   H1079     1.0  0.36270  0.87235  0.81545  1.0000
  H   H1080     1.0  0.38809  0.86417  0.84560  1.0000
  H   H1081     1.0  0.41725  0.84031  0.83718  1.0000
  H   H1082     1.0  0.39566  0.83196  0.76760  1.0000
  H   H1083     1.0  0.43728  0.85512  0.76675  1.0000
  H   H1084     1.0  0.44419  0.86079  0.72485  1.0000
  H   H1085     1.0  0.37694  0.95668  0.94209  1.0000
  C   C1392     1.0  0.43433  0.55577  0.52720  1.0000
  H   H1086     1.0  0.43474  0.78398  0.75658  1.0000
  H   H1087     1.0  0.45065  0.77309  0.80609  1.0000
  H   H1088     1.0  0.43929  0.73429  0.81163  1.0000
  H   H1089     1.0  0.40323  0.72571  0.80840  1.0000
  H   H1090     1.0  0.37858  0.75627  0.80006  1.0000
  H   H1091     1.0  0.38949  0.79497  0.79548  1.0000
  H   H1092     1.0  0.43619  0.80536  0.84412  1.0000
  H   H1093     1.0  0.46395  0.81291  0.87043  1.0000
  H   H1094     1.0  0.33343  0.67410  0.94221  1.0000
  C   C1393     1.0  0.26192  0.83714  0.57923  1.0000
  H   H1095     1.0  0.46933  0.83485  0.78716  1.0000
  H   H1096     1.0  0.36239  0.81462  0.56994  1.0000
  C   C1394     1.0  0.35307  0.53030  0.87235  1.0000
  C   C1395     1.0  0.30397  0.89611  0.91717  1.0000
  H   H1097     1.0  0.40648  0.96057  0.91672  1.0000
  H   H1098     1.0  0.42594  0.49631  0.50268  1.0000
  H   H1099     1.0  0.42243  0.71643  0.93807  1.0000
  C   C1396     1.0  0.30887  0.83115  0.54853  1.0000
  C   C1397     1.0  0.25470  0.80839  0.55178  1.0000
  C   C1398     1.0  0.27211  0.55560  0.87493  1.0000
  C   C1399     1.0  0.36111  0.51657  0.85476  1.0000
  H   H1100     1.0  0.45737  0.76081  0.55003  1.0000
  C   C1400     1.0  0.29959  0.58137  0.84810  1.0000
  H   H1101     1.0  0.40665  0.70484  0.89351  1.0000
  H   H1102     1.0  0.27303  0.93307  0.52755  1.0000
  H   H1103     1.0  0.47048  0.89096  0.73059  1.0000
  C   C1401     1.0  0.48279  0.88999  0.78758  1.0000
  S   S189      1.0  0.25373  0.60141  0.95701  1.0000
  H   H1104     1.0  0.45359  0.65626  0.60783  1.0000
  C   C1402     1.0  0.42037  0.52026  0.54093  1.0000
  H   H1105     1.0  0.47439  0.98619  0.98353  1.0000
  H   H1106     1.0  0.39116  0.90474  0.99108  1.0000
  H   H1107     1.0  0.37641  0.50283  0.90622  1.0000
  H   H1108     1.0  0.31697  0.73345  0.91459  1.0000
  H   H1109     1.0  0.30038  0.79934  0.51465  1.0000
  C   C1403     1.0  0.33794  0.68912  0.95077  1.0000
  C   C1404     1.0  0.40173  0.94412  0.92231  1.0000
  C   C1405     1.0  0.41217  0.65771  0.94045  1.0000
  H   H1110     1.0  0.44249  0.78399  0.93638  1.0000
  C   C1406     1.0  0.27526  0.91527  0.53062  1.0000
  C   C1407     1.0  0.47426  0.61753  0.56002  1.0000
  C   C1408     1.0  0.24825  0.82774  0.59491  1.0000
  H   H1111     1.0  0.34305  0.70711  0.91888  1.0000
  H   H1112     1.0  0.25727  0.55882  0.98411  1.0000
  H   H1113     1.0  0.29957  0.82127  0.58337  1.0000
  C   C1409     1.0  0.42757  0.73049  0.97177  1.0000
  C   C1410     1.0  0.38533  0.75165  0.86899  1.0000
  C   C1411     1.0  0.46667  0.96355  0.91346  1.0000
  C   C1412     1.0  0.38358  0.74798  0.53471  1.0000
  C   C1413     1.0  0.29428  0.53316  0.83660  1.0000
  H   H1114     1.0  0.40701  0.84014  0.50112  1.0000
  C   C1414     1.0  0.33188  0.59473  0.86013  1.0000
  C   C1415     1.0  0.48050  0.88207  0.68258  1.0000
  C   C1416     1.0  0.44872  0.97549  0.94766  1.0000
  H   H1115     1.0  0.28140  0.92049  0.58697  1.0000
  H   H1116     1.0  0.44268  0.78397  0.97935  1.0000
  C   C1417     1.0  0.43831  0.76908  0.94619  1.0000
  H   H1117     1.0  0.43194  0.75022  0.91597  1.0000
  C   C1418     1.0  0.28638  0.92110  0.86300  1.0000
  C   C1419     1.0  0.40677  0.90396  0.92305  1.0000
  H   H1118     1.0  0.35462  0.89435  0.91753  1.0000
  C   C1420     1.0  0.41506  0.56362  0.52201  1.0000
  C   C1421     1.0  0.34742  0.81891  0.56397  1.0000
  H   H1119     1.0  0.34634  0.59151  0.86797  1.0000
  H   H1120     1.0  0.24588  0.83509  0.61170  1.0000
  S   S190      1.0  0.46406  0.69126  0.50607  1.0000
  H   H1121     1.0  0.24869  0.86815  0.53970  1.0000
  H   H1122     1.0  0.48354  0.90748  0.98509  1.0000
  H   H1123     1.0  0.35530  0.80757  0.99325  1.0000
  H   H1124     1.0  0.33877  0.59166  0.52580  1.0000
  H   H1125     1.0  0.45175  0.52800  0.54117  1.0000
  C   C1422     1.0  0.36374  0.80015  0.97924  1.0000
  H   H1126     1.0  0.49033  0.49907  0.51096  1.0000
  C   C1423     1.0  0.47247  0.98555  0.90899  1.0000
  C   C1424     1.0  0.26165  0.87853  0.53764  1.0000
  C   C1425     1.0  0.31846  0.57731  0.85787  1.0000
  H   H1127     1.0  0.32641  0.88219  0.89436  1.0000
  H   H1128     1.0  0.39311  0.50708  0.94393  1.0000
  H   H1129     1.0  0.29229  0.52849  0.88529  1.0000
  H   H1130     1.0  0.38987  0.81985  0.98487  1.0000
  H   H1131     1.0  0.27043  0.51205  0.84913  1.0000
  H   H1132     1.0  0.25711  0.80051  0.53528  1.0000
  H   H1133     1.0  0.38225  0.60326  0.98912  1.0000
  C   C1426     1.0  0.24989  0.91556  0.59251  1.0000
  C   C1427     1.0  0.36139  0.89431  0.98294  1.0000
  C   C1428     1.0  0.24924  0.85261  0.79843  1.0000
  C   C1429     1.0  0.47956  0.88833  0.74588  1.0000
  P   P47       1.0  0.35688  0.91706  0.96228  1.0000
  C   C1430     1.0  0.41196  0.77705  0.55137  1.0000
  C   C1431     1.0  0.26312  0.56513  0.82510  1.0000
  C   C1432     1.0  0.34994  0.59240  0.51215  1.0000
  H   H1134     1.0  0.47645  0.89392  0.80437  1.0000
  Fe  Fe96      1.0  0.44355  0.83743  0.99469  1.0000
  C   C1433     1.0  0.27344  0.53847  0.91349  1.0000
  C   C1434     1.0  0.41811  0.93900  0.99872  1.0000
  C   C1435     1.0  0.48394  0.83344  0.82007  1.0000
  H   H1135     1.0  0.32360  0.83950  0.51602  1.0000
  H   H1136     1.0  0.41163  0.99377  0.94698  1.0000
  H   H1137     1.0  0.49286  0.49743  0.55353  1.0000
  H   H1138     1.0  0.31340  0.92258  0.96729  1.0000
  H   H1139     1.0  0.37260  0.73651  0.52882  1.0000
  C   C1436     1.0  0.33393  0.49918  0.88679  1.0000
  C   C1437     1.0  0.33658  0.98040  0.97674  1.0000
  H   H1140     1.0  0.28043  0.52674  0.92566  1.0000
  C   C1438     1.0  0.32543  0.83294  0.53356  1.0000
  H   H1141     1.0  0.43067  0.50441  0.82558  1.0000
  H   H1142     1.0  0.49055  0.78221  0.69851  1.0000
  C   C1439     1.0  0.28469  0.51268  0.84019  1.0000
  H   H1143     1.0  0.32843  0.99384  0.96787  1.0000
  H   H1144     1.0  0.41466  0.78959  0.51660  1.0000
  C   C1440     1.0  0.28068  0.82818  0.50945  1.0000
  H   H1145     1.0  0.25773  0.58659  0.77020  1.0000
  H   H1146     1.0  0.24384  0.90877  0.53463  1.0000
  C   C1441     1.0  0.29048  0.80834  0.50281  1.0000
  C   C1442     1.0  0.35784  0.94599  0.99980  1.0000
  C   C1443     1.0  0.34309  0.98332  0.99938  1.0000
  S   S191      1.0  0.34231  0.62220  0.99957  1.0000
  H   H1147     1.0  0.51436  0.10265  0.31636  1.0000
  H   H1148     1.0  0.73250  0.16017  0.21861  1.0000
  C   C1444     1.0  0.68948  0.12106  0.35168  1.0000
  H   H1149     1.0  0.66240  0.23283  0.42383  1.0000
  Fe  Fe97      1.0  0.66858  0.17918  0.17765  1.0000
  S   S192      1.0  0.67147  0.14675  0.15891  1.0000
  S   S193      1.0  0.66213  0.18313  0.21668  1.0000
  Fe  Fe98      1.0  0.67820  0.20705  0.13267  1.0000
  S   S194      1.0  0.68158  0.17610  0.11114  1.0000
  S   S195      1.0  0.67299  0.24350  0.11993  1.0000
  Fe  Fe99      1.0  0.65427  0.16392  0.12996  1.0000
  S   S196      1.0  0.62660  0.14778  0.11540  1.0000
  Fe  Fe100     1.0  0.69900  0.16100  0.14162  1.0000
  S   S197      1.0  0.72433  0.13492  0.13521  1.0000
  S   S198      1.0  0.64975  0.19536  0.14981  1.0000
  S   S199      1.0  0.69725  0.19287  0.16210  1.0000
  Fe  Fe101     1.0  0.68733  0.40302  0.03922  1.0000
  S   S200      1.0  0.71765  0.38556  0.03818  1.0000
  S   S201      1.0  0.68247  0.43684  0.05790  1.0000
  H   H1150     1.0  0.56173  0.19987  0.22033  1.0000
  H   H1151     1.0  0.65112  0.26963  0.04987  1.0000
  Fe  Fe102     1.0  0.70062  0.35307  0.03701  1.0000
  S   S202      1.0  0.71091  0.31993  0.05456  1.0000
  C   C1445     1.0  0.70493  0.30067  0.13512  1.0000
  S   S203      1.0  0.67069  0.37037  0.04085  1.0000
  C   C1446     1.0  0.65230  0.23850  0.21991  1.0000
  C   C1447     1.0  0.64364  0.21306  0.02478  1.0000
  Fe  Fe103     1.0  0.54567  0.33276  0.45879  1.0000
  S   S204      1.0  0.53870  0.29712  0.44707  1.0000
  Fe  Fe104     1.0  0.55717  0.38262  0.45336  1.0000
  S   S205      1.0  0.55967  0.41339  0.42920  1.0000
  S   S206      1.0  0.57467  0.35010  0.45184  1.0000
  S   S207      1.0  0.52750  0.36522  0.45691  1.0000
  S   S208      1.0  0.66818  0.13080  0.46149  1.0000
  C   C1448     1.0  0.62819  0.46547  0.01504  1.0000
  Fe  Fe105     1.0  0.57484  0.16516  0.31882  1.0000
  S   S209      1.0  0.56177  0.13726  0.34111  1.0000
  S   S210      1.0  0.58749  0.15737  0.28245  1.0000
  Fe  Fe106     1.0  0.56067  0.20076  0.35305  1.0000
  S   S211      1.0  0.54663  0.17541  0.37684  1.0000
  S   S212      1.0  0.56177  0.23865  0.35859  1.0000
  Fe  Fe107     1.0  0.57484  0.15497  0.37151  1.0000
  S   S213      1.0  0.58651  0.13567  0.40377  1.0000
  Fe  Fe108     1.0  0.53414  0.15918  0.34501  1.0000
  C   C1449     1.0  0.64569  0.40350  0.48134  1.0000
  S   S214      1.0  0.58969  0.18124  0.34907  1.0000
  S   S215      1.0  0.54654  0.18630  0.32125  1.0000
  C   C1450     1.0  0.64512  0.13231  0.44610  1.0000
  C   C1451     1.0  0.64339  0.14687  0.42662  1.0000
  C   C1452     1.0  0.62562  0.14824  0.41350  1.0000
  C   C1453     1.0  0.60927  0.13512  0.41978  1.0000
  C   C1454     1.0  0.61094  0.12080  0.43942  1.0000
  C   C1455     1.0  0.62871  0.11938  0.45249  1.0000
  H   H1152     1.0  0.65598  0.15697  0.42150  1.0000
  H   H1153     1.0  0.62463  0.15919  0.39839  1.0000
  H   H1154     1.0  0.59843  0.11053  0.44444  1.0000
  H   H1155     1.0  0.62976  0.10808  0.46735  1.0000
  C   C1456     1.0  0.54633  0.28106  0.42271  1.0000
  C   C1457     1.0  0.55404  0.29089  0.40239  1.0000
  C   C1458     1.0  0.55885  0.27760  0.38314  1.0000
  C   C1459     1.0  0.55615  0.25431  0.38387  1.0000
  C   C1460     1.0  0.54893  0.24437  0.40439  1.0000
  C   C1461     1.0  0.54400  0.25768  0.42360  1.0000
  H   H1156     1.0  0.55590  0.30880  0.40133  1.0000
  H   H1157     1.0  0.56447  0.28551  0.36743  1.0000
  H   H1158     1.0  0.54698  0.22647  0.40539  1.0000
  H   H1159     1.0  0.53834  0.24978  0.43928  1.0000
  C   C1462     1.0  0.60969  0.46479  0.43672  1.0000
  C   C1463     1.0  0.59409  0.46882  0.42104  1.0000
  C   C1464     1.0  0.57887  0.45298  0.41875  1.0000
  C   C1465     1.0  0.57890  0.43315  0.43240  1.0000
  C   C1466     1.0  0.59405  0.42959  0.44865  1.0000
  C   C1467     1.0  0.60933  0.44523  0.45069  1.0000
  H   H1160     1.0  0.64491  0.29931  0.46359  1.0000
  H   H1161     1.0  0.56699  0.45615  0.40646  1.0000
  H   H1162     1.0  0.59406  0.41464  0.45952  1.0000
  H   H1163     1.0  0.62099  0.44193  0.46310  1.0000
  C   C1468     1.0  0.67187  0.45430  0.08006  1.0000
  C   C1469     1.0  0.67584  0.47740  0.07969  1.0000
  H   H1164     1.0  0.65273  0.25420  0.16294  1.0000
  S   S216      1.0  0.50230  0.14358  0.34810  1.0000
  C   C1470     1.0  0.64130  0.17562  0.23475  1.0000
  C   C1471     1.0  0.64039  0.18314  0.25772  1.0000
  C   C1472     1.0  0.62429  0.17755  0.27269  1.0000
  C   C1473     1.0  0.60885  0.16417  0.26494  1.0000
  C   C1474     1.0  0.60984  0.15660  0.24202  1.0000
  C   C1475     1.0  0.62588  0.16226  0.22705  1.0000
  H   H1165     1.0  0.65223  0.19342  0.26396  1.0000
  H   H1166     1.0  0.62380  0.18365  0.29017  1.0000
  H   H1167     1.0  0.59803  0.14629  0.23574  1.0000
  H   H1168     1.0  0.62642  0.15608  0.20961  1.0000
  C   C1476     1.0  0.68312  0.26348  0.09982  1.0000
  C   C1477     1.0  0.70203  0.26079  0.08966  1.0000
  C   C1478     1.0  0.71009  0.27810  0.07561  1.0000
  C   C1479     1.0  0.69930  0.29819  0.07119  1.0000
  C   C1480     1.0  0.68015  0.30060  0.08080  1.0000
  C   C1481     1.0  0.67215  0.28337  0.09501  1.0000
  H   H1169     1.0  0.71074  0.24572  0.09327  1.0000
  H   H1170     1.0  0.72495  0.27606  0.06838  1.0000
  H   H1171     1.0  0.67173  0.31599  0.07782  1.0000
  H   H1172     1.0  0.65752  0.28570  0.10277  1.0000
  C   C1482     1.0  0.60918  0.14507  0.03860  1.0000
  C   C1483     1.0  0.59635  0.13714  0.05598  1.0000
  C   C1484     1.0  0.60188  0.13821  0.07941  1.0000
  C   C1485     1.0  0.62015  0.14749  0.08570  1.0000
  C   C1486     1.0  0.63283  0.15584  0.06832  1.0000
  C   C1487     1.0  0.62740  0.15448  0.04487  1.0000
  H   H1173     1.0  0.58243  0.12967  0.05129  1.0000
  H   H1174     1.0  0.59206  0.13159  0.09274  1.0000
  H   H1175     1.0  0.64692  0.16305  0.07291  1.0000
  H   H1176     1.0  0.63742  0.16063  0.03151  1.0000
  C   C1488     1.0  0.60445  0.30537  0.03260  1.0000
  H   H1177     1.0  0.63495  0.44815  0.04731  1.0000
  C   C1489     1.0  0.65961  0.22029  0.43725  1.0000
  H   H1178     1.0  0.59382  0.48406  0.41064  1.0000
  C   C1490     1.0  0.70286  0.00533  0.04644  1.0000
  C   C1491     1.0  0.58893  0.19845  0.42698  1.0000
  C   C1492     1.0  0.56284  0.46970  0.34950  1.0000
  C   C1493     1.0  0.59815  0.22725  0.03128  1.0000
  H   H1179     1.0  0.68091  0.29939  0.00121  1.0000
  H   H1180     1.0  0.50555  0.16523  0.39097  1.0000
  H   H1181     1.0  0.66056  0.09514  0.02459  1.0000
  C   C1494     1.0  0.54840  0.48678  0.48758  1.0000
  C   C1495     1.0  0.59934  0.29427  0.43893  1.0000
  C   C1496     1.0  0.54737  0.45492  0.35445  1.0000
  C   C1497     1.0  0.63269  0.29166  0.45468  1.0000
  C   C1498     1.0  0.69486  0.04358  0.05658  1.0000
  C   C1499     1.0  0.73706  0.28155  0.13635  1.0000
  C   C1500     1.0  0.66741  0.11257  0.38395  1.0000
  C   C1501     1.0  0.68357  0.10356  0.39646  1.0000
  H   H1182     1.0  0.68998  0.39268  0.08514  1.0000
  C   C1502     1.0  0.58821  0.20432  0.19897  1.0000
  C   C1503     1.0  0.65598  0.48325  0.11496  1.0000
  H   H1183     1.0  0.51615  0.05761  0.01134  1.0000
  H   H1184     1.0  0.55587  0.43165  0.47614  1.0000
  C   C1504     1.0  0.65290  0.18686  0.47080  1.0000
  H   H1185     1.0  0.59414  0.20277  0.24810  1.0000
  H   H1186     1.0  0.52037  0.43597  0.45086  1.0000
  C   C1505     1.0  0.49848  0.08711  0.28881  1.0000
  H   H1187     1.0  0.64279  0.45326  0.12904  1.0000
  S   S217      1.0  0.50734  0.10162  0.02187  1.0000
  H   H1188     1.0  0.73501  0.02947  0.13186  1.0000
  C   C1506     1.0  0.73470  0.32013  0.12216  1.0000
  C   C1507     1.0  0.49411  0.18326  0.44504  1.0000
  H   H1189     1.0  0.67694  0.25141  0.47925  1.0000
  C   C1508     1.0  0.65201  0.46016  0.11528  1.0000
  H   H1190     1.0  0.50424  0.22657  0.43202  1.0000
  C   C1509     1.0  0.71161  0.07691  0.11188  1.0000
  H   H1191     1.0  0.65773  0.12821  0.35190  1.0000
  H   H1192     1.0  0.65262  0.11307  0.39180  1.0000
  H   H1193     1.0  0.69173  0.12814  0.33443  1.0000
  C   C1510     1.0  0.63670  0.19864  0.46099  1.0000
  C   C1511     1.0  0.56864  0.17049  0.20105  1.0000
  H   H1194     1.0  0.68389  0.02552  0.42486  1.0000
  Fe  Fe109     1.0  0.57681  0.35228  0.49064  1.0000
  C   C1512     1.0  0.62014  0.48863  0.32075  1.0000
  C   C1513     1.0  0.66898  0.47667  0.48788  1.0000
  H   H1195     1.0  0.70663  0.11383  0.44333  1.0000
  C   C1514     1.0  0.56706  0.21528  0.46441  1.0000
  C   C1515     1.0  0.61538  0.30422  0.44979  1.0000
  C   C1516     1.0  0.62590  0.48562  0.36866  1.0000
  C   C1517     1.0  0.57104  0.18852  0.43389  1.0000
  C   C1518     1.0  0.54365  0.48598  0.31772  1.0000
  H   H1196     1.0  0.51816  0.44403  0.34485  1.0000
  S   S218      1.0  0.63006  0.48327  0.43947  1.0000
  H   H1197     1.0  0.59032  0.23913  0.46738  1.0000
  C   C1519     1.0  0.70276  0.10262  0.38640  1.0000
  H   H1198     1.0  0.60782  0.16436  0.16367  1.0000
  H   H1199     1.0  0.67313  0.11934  0.05492  1.0000
  H   H1200     1.0  0.52802  0.14012  0.41351  1.0000
  C   C1520     1.0  0.58111  0.49137  0.27887  1.0000
  H   H1201     1.0  0.54606  0.18950  0.45748  1.0000
  C   C1521     1.0  0.67684  0.20276  0.03830  1.0000
  C   C1522     1.0  0.57629  0.19652  0.02283  1.0000
  H   H1202     1.0  0.69710  0.06810  0.02886  1.0000
  H   H1203     1.0  0.50654  0.09596  0.27522  1.0000
  C   C1523     1.0  0.59763  0.17227  0.17585  1.0000
  C   C1524     1.0  0.50947  0.21808  0.34709  1.0000
  H   H1204     1.0  0.62478  0.48120  0.02325  1.0000
  H   H1205     1.0  0.73742  0.07616  0.44878  1.0000
  C   C1525     1.0  0.71643  0.28148  0.14015  1.0000
  H   H1206     1.0  0.69429  0.01565  0.08072  1.0000
  H   H1207     1.0  0.59015  0.29798  0.48797  1.0000
  C   C1526     1.0  0.63382  0.44683  0.02866  1.0000
  C   C1527     1.0  0.63409  0.26922  0.44846  1.0000
  H   H1208     1.0  0.62826  0.48469  0.38721  1.0000
  C   C1528     1.0  0.65949  0.45606  0.48815  1.0000
  H   H1209     1.0  0.69090  0.21200  0.44160  1.0000
  C   C1529     1.0  0.63846  0.42658  0.01819  1.0000
  C   C1530     1.0  0.58150  0.16044  0.18502  1.0000
  P   P48       1.0  0.72364  0.09171  0.40311  1.0000
  C   C1531     1.0  0.64133  0.47939  0.35360  1.0000
  H   H1210     1.0  0.58750  0.27566  0.03853  1.0000
  H   H1211     1.0  0.52875  0.14201  0.45635  1.0000
  C   C1532     1.0  0.58507  0.22510  0.45777  1.0000
  C   C1533     1.0  0.72047  0.04712  0.45765  1.0000
  S   S219      1.0  0.60343  0.14289  0.00887  1.0000
  C   C1534     1.0  0.50308  0.16262  0.07059  1.0000
  H   H1212     1.0  0.72238  0.13186  0.19061  1.0000
  H   H1213     1.0  0.51377  0.14313  0.04182  1.0000
  H   H1214     1.0  0.64309  0.41223  0.02875  1.0000
  C   C1535     1.0  0.70528  0.03294  0.45112  1.0000
  H   H1215     1.0  0.72557  0.07109  0.35715  1.0000
  H   H1216     1.0  0.68480  0.18209  0.47124  1.0000
  C   C1536     1.0  0.51277  0.02201  0.01038  1.0000
  C   C1537     1.0  0.57130  0.25891  0.26852  1.0000
  C   C1538     1.0  0.53006  0.45562  0.34107  1.0000
  H   H1217     1.0  0.72297  0.41804  0.14190  1.0000
  H   H1218     1.0  0.67575  0.24741  0.19585  1.0000
  C   C1539     1.0  0.71593  0.06920  0.42221  1.0000
  C   C1540     1.0  0.60229  0.28270  0.03843  1.0000
  C   C1541     1.0  0.65975  0.44586  0.09799  1.0000
  C   C1542     1.0  0.72486  0.14216  0.44943  1.0000
  C   C1543     1.0  0.54197  0.15650  0.08794  1.0000
  H   H1219     1.0  0.61419  0.32150  0.45497  1.0000
  H   H1220     1.0  0.58569  0.30380  0.43559  1.0000
  H   H1221     1.0  0.61670  0.24806  0.16786  1.0000
  C   C1544     1.0  0.60064  0.27181  0.43288  1.0000
  C   C1545     1.0  0.57398  0.24105  0.28432  1.0000
  H   H1222     1.0  0.59966  0.02808  0.01129  1.0000
  C   C1546     1.0  0.63547  0.20626  0.36634  1.0000
  H   H1223     1.0  0.62653  0.22870  0.23949  1.0000
  H   H1224     1.0  0.70460  0.33431  0.12191  1.0000
  H   H1225     1.0  0.65041  0.17326  0.48313  1.0000
  H   H1226     1.0  0.56580  0.08933  0.05372  1.0000
  H   H1227     1.0  0.58785  0.26431  0.42497  1.0000
  C   C1547     1.0  0.61868  0.23864  0.20432  1.0000
  C   C1548     1.0  0.64003  0.30185  0.03897  1.0000
  C   C1549     1.0  0.71396  0.31988  0.12602  1.0000
  H   H1228     1.0  0.59718  0.19155  0.41251  1.0000
  H   H1229     1.0  0.58253  0.48040  0.24354  1.0000
  C   C1550     1.0  0.53682  0.14729  0.06685  1.0000
  C   C1551     1.0  0.69863  0.05055  0.03373  1.0000
  C   C1552     1.0  0.66792  0.49176  0.09685  1.0000
  C   C1553     1.0  0.71452  0.37174  0.09732  1.0000
  C   C1554     1.0  0.52767  0.16863  0.10050  1.0000
  H   H1230     1.0  0.61391  0.20263  0.17609  1.0000
  H   H1231     1.0  0.54774  0.13776  0.05706  1.0000
  P   P49       1.0  0.59242  0.23272  0.20762  1.0000
  H   H1232     1.0  0.56575  0.17417  0.42478  1.0000
  H   H1233     1.0  0.71204  0.35903  0.08463  1.0000
  C   C1555     1.0  0.51748  0.15032  0.05824  1.0000
  C   C1556     1.0  0.61808  0.25908  0.43740  1.0000
  H   H1234     1.0  0.55637  0.16115  0.20854  1.0000
  C   C1557     1.0  0.70659  0.01217  0.02342  1.0000
  H   H1235     1.0  0.54890  0.44274  0.36861  1.0000
  H   H1236     1.0  0.69031  0.05570  0.06936  1.0000
  C   C1558     1.0  0.66201  0.40595  0.46609  1.0000
  C   C1559     1.0  0.66185  0.39612  0.44435  1.0000
  C   C1560     1.0  0.64558  0.38346  0.43783  1.0000
  C   C1561     1.0  0.62957  0.38042  0.45314  1.0000
  H   H1237     1.0  0.73745  0.49402  0.10585  1.0000
  C   C1562     1.0  0.60106  0.19404  0.18293  1.0000
  H   H1238     1.0  0.66247  0.23471  0.23404  1.0000
  H   H1239     1.0  0.58436  0.20693  0.28901  1.0000
  C   C1563     1.0  0.63793  0.27919  0.04482  1.0000
  H   H1240     1.0  0.57462  0.27059  0.23336  1.0000
  C   C1564     1.0  0.63184  0.23498  0.22289  1.0000
  H   H1241     1.0  0.67484  0.41550  0.47092  1.0000
  H   H1242     1.0  0.67430  0.39841  0.43249  1.0000
  H   H1243     1.0  0.64535  0.37598  0.42093  1.0000
  H   H1244     1.0  0.74061  0.09560  0.18894  1.0000
  H   H1245     1.0  0.59672  0.26818  0.08444  1.0000
  C   C1565     1.0  0.69709  0.02100  0.06296  1.0000
  H   H1246     1.0  0.70923  0.26640  0.14645  1.0000
  C   C1566     1.0  0.58476  0.23611  0.23750  1.0000
  C   C1567     1.0  0.50300  0.09078  0.31198  1.0000
  H   H1247     1.0  0.65221  0.45100  0.47253  1.0000
  H   H1248     1.0  0.66607  0.26260  0.01072  1.0000
  P   P50       1.0  0.61650  0.23949  0.04984  1.0000
  C   C1568     1.0  0.67577  0.20852  0.44720  1.0000
  C   C1569     1.0  0.60919  0.23487  0.07979  1.0000
  C   C1570     1.0  0.61291  0.21401  0.09079  1.0000
  C   C1571     1.0  0.60679  0.21011  0.11370  1.0000
  C   C1572     1.0  0.59714  0.22706  0.12596  1.0000
  C   C1573     1.0  0.59365  0.24797  0.11533  1.0000
  C   C1574     1.0  0.59958  0.25188  0.09231  1.0000
  H   H1249     1.0  0.64054  0.19666  0.40176  1.0000
  H   H1250     1.0  0.68105  0.09764  0.41413  1.0000
  C   C1575     1.0  0.50827  0.17169  0.09190  1.0000
  C   C1576     1.0  0.67336  0.21466  0.05851  1.0000
  C   C1577     1.0  0.65503  0.22569  0.06191  1.0000
  H   H1251     1.0  0.52714  0.49037  0.44708  1.0000
  C   C1578     1.0  0.62230  0.22700  0.39906  1.0000
  H   H1252     1.0  0.65466  0.30934  0.03917  1.0000
  C   C1579     1.0  0.57674  0.25652  0.24521  1.0000
  C   C1580     1.0  0.50663  0.16871  0.45787  1.0000
  C   C1581     1.0  0.61431  0.23891  0.35958  1.0000
  C   C1582     1.0  0.56110  0.48547  0.33112  1.0000
  H   H1253     1.0  0.57920  0.14336  0.17999  1.0000
  C   C1583     1.0  0.71502  0.05726  0.12492  1.0000
  C   C1584     1.0  0.70570  0.11203  0.36416  1.0000
  H   H1254     1.0  0.64392  0.19215  0.35970  1.0000
  H   H1255     1.0  0.62056  0.20067  0.08172  1.0000
  H   H1256     1.0  0.60970  0.19391  0.12194  1.0000
  H   H1257     1.0  0.59249  0.22400  0.14371  1.0000
  H   H1258     1.0  0.58640  0.26119  0.12495  1.0000
  C   C1585     1.0  0.63354  0.20895  0.39025  1.0000
  C   C1586     1.0  0.61241  0.24172  0.38348  1.0000
  H   H1259     1.0  0.61698  0.37049  0.44822  1.0000
  H   H1260     1.0  0.60617  0.25002  0.34776  1.0000
  H   H1261     1.0  0.68480  0.21534  0.07167  1.0000
  H   H1262     1.0  0.65254  0.23476  0.07771  1.0000
  C   C1587     1.0  0.62336  0.31486  0.03253  1.0000
  C   C1588     1.0  0.58767  0.21845  0.25359  1.0000
  C   C1589     1.0  0.56003  0.19705  0.45243  1.0000
  C   C1590     1.0  0.61914  0.26918  0.04370  1.0000
  H   H1263     1.0  0.59151  0.31564  0.02804  1.0000
  H   H1264     1.0  0.56501  0.27461  0.27442  1.0000
  H   H1265     1.0  0.56973  0.24282  0.30239  1.0000
  H   H1266     1.0  0.65565  0.47388  0.36051  1.0000
  C   C1591     1.0  0.72062  0.40503  0.12954  1.0000
  C   C1592     1.0  0.50436  0.43619  0.45393  1.0000
  C   C1593     1.0  0.57806  0.25163  0.18907  1.0000
  C   C1594     1.0  0.56125  0.24420  0.17724  1.0000
  C   C1595     1.0  0.55041  0.25892  0.16269  1.0000
  C   C1596     1.0  0.55620  0.28115  0.15993  1.0000
  C   C1597     1.0  0.57284  0.28869  0.17172  1.0000
  C   C1598     1.0  0.58371  0.27402  0.18627  1.0000
  C   C1599     1.0  0.64683  0.24924  0.17979  1.0000
  H   H1267     1.0  0.55644  0.22710  0.17919  1.0000
  H   H1268     1.0  0.53745  0.25310  0.15363  1.0000
  H   H1269     1.0  0.54774  0.29257  0.14872  1.0000
  H   H1270     1.0  0.57731  0.30595  0.16964  1.0000
  H   H1271     1.0  0.59653  0.28016  0.19538  1.0000
  C   C1600     1.0  0.70509  0.40738  0.11358  1.0000
  C   C1601     1.0  0.59597  0.21698  0.43874  1.0000
  H   H1272     1.0  0.50060  0.40320  0.44078  1.0000
  C   C1602     1.0  0.70197  0.39069  0.09759  1.0000
  C   C1603     1.0  0.70110  0.05446  0.41537  1.0000
  H   H1273     1.0  0.52323  0.22680  0.34361  1.0000
  C   C1604     1.0  0.66199  0.20195  0.02145  1.0000
  C   C1605     1.0  0.65981  0.24549  0.19835  1.0000
  P   P51       1.0  0.63074  0.05931  0.02548  1.0000
  C   C1606     1.0  0.63996  0.03061  0.02628  1.0000
  C   C1607     1.0  0.64176  0.07568  0.04793  1.0000
  C   C1608     1.0  0.63532  0.07309  0.07106  1.0000
  C   C1609     1.0  0.64250  0.08703  0.08813  1.0000
  C   C1610     1.0  0.65625  0.10353  0.08233  1.0000
  C   C1611     1.0  0.66292  0.10607  0.05946  1.0000
  C   C1612     1.0  0.65570  0.09226  0.04230  1.0000
  C   C1613     1.0  0.64659  0.02051  0.04711  1.0000
  C   C1614     1.0  0.55613  0.46748  0.47716  1.0000
  C   C1615     1.0  0.51900  0.15330  0.44652  1.0000
  H   H1274     1.0  0.64759  0.25994  0.45261  1.0000
  C   C1616     1.0  0.57337  0.07575  0.04493  1.0000
  C   C1617     1.0  0.60391  0.05885  0.02964  1.0000
  C   C1618     1.0  0.59401  0.07633  0.04116  1.0000
  H   H1275     1.0  0.51483  0.47160  0.31223  1.0000
  H   H1276     1.0  0.56658  0.46880  0.46282  1.0000
  C   C1619     1.0  0.57196  0.04092  0.02462  1.0000
  C   C1620     1.0  0.59265  0.04134  0.02101  1.0000
  H   H1277     1.0  0.54631  0.05787  0.03937  1.0000
  C   C1621     1.0  0.58221  0.22084  0.27683  1.0000
  H   H1278     1.0  0.68508  0.48428  0.06594  1.0000
  C   C1622     1.0  0.57186  0.19240  0.20788  1.0000
  H   H1279     1.0  0.59206  0.48602  0.48309  1.0000
  H   H1280     1.0  0.62418  0.06086  0.07576  1.0000
  H   H1281     1.0  0.63689  0.08563  0.10576  1.0000
  H   H1282     1.0  0.66121  0.11486  0.09544  1.0000
  C   C1623     1.0  0.67032  0.12119  0.36151  1.0000
  Fe  Fe110     1.0  0.67976  0.11170  0.49400  1.0000
  H   H1283     1.0  0.64687  0.02982  0.06289  1.0000
  H   H1284     1.0  0.69103  0.19411  0.03580  1.0000
  C   C1624     1.0  0.62592  0.22129  0.35100  1.0000
  H   H1285     1.0  0.69553  0.42223  0.11342  1.0000
  C   C1625     1.0  0.63957  0.01772  0.00623  1.0000
  H   H1286     1.0  0.60214  0.09059  0.04699  1.0000
  H   H1287     1.0  0.71546  0.14799  0.46346  1.0000
  C   C1626     1.0  0.67239  0.19177  0.46395  1.0000
  C   C1627     1.0  0.64007  0.22507  0.04506  1.0000
  H   H1288     1.0  0.65638  0.42825  0.09866  1.0000
  H   H1289     1.0  0.55848  0.22197  0.47871  1.0000
  C   C1628     1.0  0.73027  0.36930  0.11316  1.0000
  C   C1629     1.0  0.51863  0.15224  0.42240  1.0000
  H   H1290     1.0  0.62697  0.21886  0.33248  1.0000
  P   P52       1.0  0.61913  0.22980  0.43003  1.0000
  H   H1291     1.0  0.72051  0.11266  0.35659  1.0000
  H   H1292     1.0  0.61706  0.38754  0.48634  1.0000
  H   H1293     1.0  0.60282  0.25509  0.38953  1.0000
  C   C1630     1.0  0.50312  0.21437  0.36993  1.0000
  H   H1294     1.0  0.62174  0.19400  0.46611  1.0000
  C   C1631     1.0  0.56236  0.05802  0.03675  1.0000
  C   C1632     1.0  0.50606  0.16670  0.40959  1.0000
  C   C1633     1.0  0.70466  0.03497  0.01726  1.0000
  H   H1295     1.0  0.56334  0.02745  0.01779  1.0000
  H   H1296     1.0  0.50373  0.46884  0.46855  1.0000
  H   H1297     1.0  0.64394  0.23884  0.49344  1.0000
  C   C1634     1.0  0.59026  0.20626  0.03715  1.0000
  C   C1635     1.0  0.62636  0.24576  0.18269  1.0000
  C   C1636     1.0  0.63846  0.48091  0.32967  1.0000
  H   H1298     1.0  0.69879  0.08762  0.11563  1.0000
  H   H1299     1.0  0.62516  0.33234  0.02761  1.0000
  C   C1637     1.0  0.67214  0.25506  0.49671  1.0000
  C   C1638     1.0  0.63993  0.21553  0.44417  1.0000
  H   H1300     1.0  0.57831  0.47476  0.28585  1.0000
  H   H1301     1.0  0.70097  0.01922  0.46256  1.0000
  C   C1639     1.0  0.72572  0.06526  0.44333  1.0000
  H   H1302     1.0  0.65063  0.47672  0.31801  1.0000
  C   C1640     1.0  0.71983  0.12282  0.43787  1.0000
  H   H1303     1.0  0.66884  0.48705  0.47218  1.0000
  H   H1304     1.0  0.49613  0.08251  0.34752  1.0000
  C   C1641     1.0  0.52821  0.47113  0.32270  1.0000
  H   H1305     1.0  0.72800  0.04433  0.47407  1.0000
  C   C1642     1.0  0.73222  0.04420  0.12101  1.0000
  H   H1306     1.0  0.59514  0.19704  0.05248  1.0000
  H   H1307     1.0  0.55701  0.15418  0.09454  1.0000
  H   H1308     1.0  0.70465  0.05261  0.13863  1.0000
  H   H1309     1.0  0.57070  0.18010  0.02728  1.0000
  C   C1643     1.0  0.54998  0.44633  0.48460  1.0000
  H   H1310     1.0  0.51218  0.22033  0.38390  1.0000
  H   H1311     1.0  0.68888  0.30042  0.13767  1.0000
  C   C1644     1.0  0.69563  0.03656  0.42995  1.0000
  S   S220      1.0  0.56162  0.38609  0.49153  1.0000
  H   H1312     1.0  0.69373  0.05679  0.39885  1.0000
  C   C1645     1.0  0.49488  0.45477  0.46375  1.0000
  H   H1313     1.0  0.50312  0.02138  0.02554  1.0000
  Fe  Fe111     1.0  0.53247  0.36783  0.49522  1.0000
  C   C1646     1.0  0.62964  0.39029  0.47483  1.0000
  H   H1314     1.0  0.57607  0.46846  0.36006  1.0000
  C   C1647     1.0  0.58859  0.28269  0.49817  1.0000
  H   H1315     1.0  0.50718  0.19274  0.03153  1.0000
  C   C1648     1.0  0.72524  0.08330  0.09466  1.0000
  H   H1316     1.0  0.63229  0.21201  0.01160  1.0000
  S   S221      1.0  0.54834  0.33414  0.49775  1.0000
  C   C1649     1.0  0.49826  0.21029  0.32874  1.0000
  H   H1317     1.0  0.50352  0.21267  0.31108  1.0000
  C   C1650     1.0  0.73447  0.12812  0.20262  1.0000
  S   S222      1.0  0.69185  0.07619  0.49568  1.0000
  H   H1318     1.0  0.50318  0.26591  0.44374  1.0000
  H   H1319     1.0  0.53166  0.17566  0.11692  1.0000
  C   C1651     1.0  0.49692  0.18541  0.01959  1.0000
  C   C1652     1.0  0.73320  0.38607  0.12936  1.0000
  H   H1320     1.0  0.72296  0.09904  0.08526  1.0000
  H   H1321     1.0  0.73429  0.00574  0.09681  1.0000
  H   H1322     1.0  0.52352  0.48736  0.40491  1.0000
  C   C1653     1.0  0.52008  0.04248  0.00237  1.0000
  C   C1654     1.0  0.74245  0.07027  0.09065  1.0000
  H   H1323     1.0  0.55681  0.28159  0.49304  1.0000
  H   H1324     1.0  0.61853  0.49017  0.30217  1.0000
  H   H1325     1.0  0.66460  0.19253  0.00590  1.0000
  H   H1326     1.0  0.50664  0.16926  0.47660  1.0000
  C   C1655     1.0  0.60452  0.49491  0.33580  1.0000
  C   C1656     1.0  0.73153  0.11541  0.41923  1.0000
  C   C1657     1.0  0.64589  0.99532  0.00694  1.0000
  C   C1658     1.0  0.74187  0.15395  0.44286  1.0000
  Fe  Fe112     1.0  0.67090  0.37150  0.00160  1.0000
  C   C1659     1.0  0.59235  0.23786  0.01033  1.0000
  C   C1660     1.0  0.74044  0.07091  0.36439  1.0000
  C   C1661     1.0  0.74026  0.14411  0.21835  1.0000
  H   H1327     1.0  0.49746  0.18116  0.10186  1.0000
  C   C1662     1.0  0.65271  0.99801  0.04782  1.0000
  C   C1663     1.0  0.49416  0.18274  0.42073  1.0000
  C   C1664     1.0  0.60767  0.49360  0.35979  1.0000
  H   H1328     1.0  0.59905  0.25329  0.00448  1.0000
  H   H1329     1.0  0.72696  0.46230  0.49091  1.0000
  C   C1665     1.0  0.56990  0.20769  0.00262  1.0000
  C   C1666     1.0  0.58359  0.49446  0.25492  1.0000
  S   S223      1.0  0.54454  0.15146  0.00022  1.0000
  S   S224      1.0  0.68555  0.40512  0.00022  1.0000
  C   C1667     1.0  0.56732  0.25478  0.51576  1.0000
  S   S225      1.0  0.52524  0.12328  0.95831  1.0000
  S   S226      1.0  0.57240  0.13772  0.95483  1.0000
  Fe  Fe113     1.0  0.54289  0.15505  0.96122  1.0000
  S   S227      1.0  0.53423  0.19063  0.94870  1.0000
  Fe  Fe114     1.0  0.55525  0.10557  0.95532  1.0000
  S   S228      1.0  0.55702  0.07572  0.93157  1.0000
  S   S229      1.0  0.64149  0.35924  0.98621  1.0000
  C   C1668     1.0  0.61105  0.42306  0.91435  1.0000
  Fe  Fe115     1.0  0.56364  0.29040  0.85282  1.0000
  S   S230      1.0  0.55422  0.32063  0.87341  1.0000
  S   S231      1.0  0.56488  0.25338  0.86459  1.0000
  Fe  Fe116     1.0  0.58035  0.31867  0.81141  1.0000
  S   S232      1.0  0.57187  0.35031  0.82998  1.0000
  S   S233      1.0  0.59477  0.32400  0.77490  1.0000
  Fe  Fe117     1.0  0.58435  0.33399  0.86260  1.0000
  S   S234      1.0  0.60865  0.35218  0.88267  1.0000
  Fe  Fe118     1.0  0.54213  0.33476  0.83910  1.0000
  S   S235      1.0  0.51432  0.35844  0.83236  1.0000
  S   S236      1.0  0.59421  0.30335  0.84350  1.0000
  S   S237      1.0  0.55009  0.30366  0.81904  1.0000
  H   H1330     1.0  0.51570  0.29360  0.73731  1.0000
  H   H1331     1.0  0.55254  0.24822  0.51880  1.0000
  H   H1332     1.0  0.69390  0.12487  0.63055  1.0000
  H   H1333     1.0  0.53090  0.42761  0.50784  1.0000
  C   C1669     1.0  0.61153  0.44393  0.51489  1.0000
  Fe  Fe119     1.0  0.68663  0.27569  0.62056  1.0000
  S   S238      1.0  0.69067  0.31092  0.60654  1.0000
  S   S239      1.0  0.69243  0.25033  0.59161  1.0000
  Fe  Fe120     1.0  0.67254  0.29331  0.66826  1.0000
  S   S240      1.0  0.67611  0.32913  0.65680  1.0000
  S   S241      1.0  0.66062  0.28257  0.70456  1.0000
  Fe  Fe121     1.0  0.66148  0.31890  0.62374  1.0000
  S   S242      1.0  0.63610  0.34047  0.60871  1.0000
  Fe  Fe122     1.0  0.70555  0.31864  0.64035  1.0000
  C   C1670     1.0  0.65715  0.07701  0.96363  1.0000
  S   S243      1.0  0.65632  0.28360  0.63595  1.0000
  S   S244      1.0  0.70314  0.28283  0.65373  1.0000
  C   C1671     1.0  0.62310  0.08942  0.98893  1.0000
  H   H1334     1.0  0.52132  0.26036  0.76270  1.0000
  Fe  Fe123     1.0  0.68012  0.07414  0.53269  1.0000
  S   S245      1.0  0.70851  0.08730  0.54725  1.0000
  S   S246      1.0  0.66114  0.04534  0.54902  1.0000
  Fe  Fe124     1.0  0.69455  0.12186  0.54291  1.0000
  S   S247      1.0  0.69226  0.14455  0.57466  1.0000
  H   H1335     1.0  0.65656  0.26596  0.56035  1.0000
  S   S248      1.0  0.66567  0.10871  0.52944  1.0000
  H   H1336     1.0  0.72076  0.41853  0.67802  1.0000
  C   C1672     1.0  0.66182  0.02307  0.57069  1.0000
  C   C1673     1.0  0.64372  0.01350  0.57830  1.0000
  H   H1337     1.0  0.53761  0.05939  0.97611  1.0000
  H   H1338     1.0  0.49553  0.29532  0.82007  1.0000
  C   C1674     1.0  0.69152  0.22087  0.58727  1.0000
  C   C1675     1.0  0.69556  0.21268  0.56498  1.0000
  C   C1676     1.0  0.69563  0.18950  0.56069  1.0000
  C   C1677     1.0  0.69174  0.17410  0.57870  1.0000
  C   C1678     1.0  0.68738  0.18230  0.60090  1.0000
  C   C1679     1.0  0.68722  0.20548  0.60518  1.0000
  H   H1339     1.0  0.69884  0.22436  0.55096  1.0000
  H   H1340     1.0  0.69897  0.18356  0.54352  1.0000
  H   H1341     1.0  0.68425  0.17062  0.61497  1.0000
  H   H1342     1.0  0.68403  0.21144  0.62238  1.0000
  C   C1680     1.0  0.61407  0.33857  0.53357  1.0000
  C   C1681     1.0  0.63221  0.32787  0.53976  1.0000
  C   C1682     1.0  0.63875  0.32741  0.56292  1.0000
  C   C1683     1.0  0.62746  0.33826  0.57994  1.0000
  C   C1684     1.0  0.60915  0.34857  0.57379  1.0000
  C   C1685     1.0  0.60230  0.34838  0.55080  1.0000
  H   H1343     1.0  0.64136  0.32012  0.52657  1.0000
  H   H1344     1.0  0.65281  0.31930  0.56746  1.0000
  H   H1345     1.0  0.60027  0.35684  0.58689  1.0000
  H   H1346     1.0  0.58819  0.35636  0.54628  1.0000
  C   C1686     1.0  0.61341  0.31221  0.75586  1.0000
  C   C1687     1.0  0.61747  0.32316  0.73445  1.0000
  C   C1688     1.0  0.63179  0.31449  0.71863  1.0000
  C   C1689     1.0  0.64233  0.29456  0.72388  1.0000
  C   C1690     1.0  0.63839  0.28372  0.74536  1.0000
  C   C1691     1.0  0.62410  0.29241  0.76120  1.0000
  H   H1347     1.0  0.60944  0.33848  0.73000  1.0000
  H   H1348     1.0  0.63460  0.32316  0.70232  1.0000
  H   H1349     1.0  0.64637  0.26834  0.74975  1.0000
  H   H1350     1.0  0.62125  0.28369  0.77747  1.0000
  C   C1692     1.0  0.63352  0.35556  0.95713  1.0000
  C   C1693     1.0  0.64442  0.36357  0.93806  1.0000
  C   C1694     1.0  0.63675  0.36190  0.91544  1.0000
  C   C1695     1.0  0.61830  0.35175  0.91146  1.0000
  C   C1696     1.0  0.60781  0.34281  0.93049  1.0000
  C   C1697     1.0  0.61531  0.34489  0.95316  1.0000
  H   H1351     1.0  0.65857  0.37145  0.94082  1.0000
  H   H1352     1.0  0.64508  0.36873  0.90090  1.0000
  H   H1353     1.0  0.59361  0.33498  0.92780  1.0000
  H   H1354     1.0  0.60678  0.33858  0.96778  1.0000
  C   C1698     1.0  0.54356  0.20800  0.92564  1.0000
  C   C1699     1.0  0.53645  0.23026  0.92347  1.0000
  C   C1700     1.0  0.54295  0.24451  0.90517  1.0000
  C   C1701     1.0  0.55674  0.23669  0.88877  1.0000
  C   C1702     1.0  0.56402  0.21451  0.89113  1.0000
  C   C1703     1.0  0.55751  0.20025  0.90941  1.0000
  H   H1355     1.0  0.52556  0.23644  0.93580  1.0000
  H   H1356     1.0  0.53688  0.26131  0.90337  1.0000
  H   H1357     1.0  0.57460  0.20820  0.87851  1.0000
  H   H1358     1.0  0.56307  0.18318  0.91068  1.0000
  C   C1704     1.0  0.57624  0.05499  0.93359  1.0000
  C   C1705     1.0  0.59269  0.05755  0.94795  1.0000
  C   C1706     1.0  0.60822  0.04135  0.94839  1.0000
  C   C1707     1.0  0.60723  0.02208  0.93502  1.0000
  C   C1708     1.0  0.59046  0.01915  0.92117  1.0000
  C   C1709     1.0  0.57514  0.03566  0.92028  1.0000
  H   H1359     1.0  0.59361  0.07232  0.95824  1.0000
  H   H1360     1.0  0.62123  0.04407  0.95874  1.0000
  C   C1710     1.0  0.52286  0.36637  0.77186  1.0000
  H   H1361     1.0  0.56245  0.03352  0.90912  1.0000
  H   H1362     1.0  0.55909  0.20011  0.99146  1.0000
  C   C1711     1.0  0.68138  0.40870  0.91958  1.0000
  H   H1363     1.0  0.66999  0.32074  0.96609  1.0000
  H   H1364     1.0  0.51166  0.19979  0.98963  1.0000
  C   C1712     1.0  0.53423  0.48443  0.50555  1.0000
  H   H1365     1.0  0.71308  0.37330  0.75509  1.0000
  C   C1713     1.0  0.69602  0.07512  0.62252  1.0000
  P   P53       1.0  0.49916  0.33839  0.74647  1.0000
  C   C1714     1.0  0.62007  0.42247  0.51807  1.0000
  C   C1715     1.0  0.69223  0.31799  0.73101  1.0000
  H   H1366     1.0  0.63050  0.07604  0.64812  1.0000
  H   H1367     1.0  0.67476  0.37921  0.50489  1.0000
  C   C1716     1.0  0.72899  0.45352  0.54927  1.0000
  C   C1717     1.0  0.62744  0.46396  0.99090  1.0000
  H   H1368     1.0  0.70685  0.43795  0.95914  1.0000
  C   C1718     1.0  0.51032  0.29382  0.75503  1.0000
  H   H1369     1.0  0.68840  0.38419  0.62255  1.0000
  C   C1719     1.0  0.71091  0.99762  0.93174  1.0000
  C   C1720     1.0  0.62720  0.09993  0.96760  1.0000
  C   C1721     1.0  0.52647  0.99908  0.92238  1.0000
  H   H1370     1.0  0.61711  0.11292  0.96095  1.0000
  H   H1371     1.0  0.67274  0.45195  0.96778  1.0000
  C   C1722     1.0  0.62889  0.04131  0.65817  1.0000
  C   C1723     1.0  0.49579  0.31345  0.78742  1.0000
  C   C1724     1.0  0.73975  0.47235  0.55521  1.0000
  C   C1725     1.0  0.71924  0.31293  0.70345  1.0000
  C   C1726     1.0  0.52812  0.46315  0.51298  1.0000
  H   H1372     1.0  0.70452  0.28594  0.72165  1.0000
  C   C1727     1.0  0.66395  0.10499  0.67419  1.0000
  C   C1728     1.0  0.50342  0.38269  0.61703  1.0000
  H   H1373     1.0  0.60699  0.28914  0.97996  1.0000
  C   C1729     1.0  0.63882  0.06043  0.65026  1.0000
  C   C1730     1.0  0.67963  0.01440  0.58024  1.0000
  H   H1374     1.0  0.57520  0.30980  0.98555  1.0000
  H   H1375     1.0  0.63152  0.00590  0.66588  1.0000
  C   C1731     1.0  0.63582  0.07235  0.99760  1.0000
  C   C1732     1.0  0.65926  0.05928  0.64461  1.0000
  Fe  Fe125     1.0  0.52942  0.11830  0.99658  1.0000
  H   H1376     1.0  0.70156  0.39434  0.78910  1.0000
  C   C1733     1.0  0.65934  0.44242  0.50832  1.0000
  C   C1734     1.0  0.72454  0.44979  0.52609  1.0000
  C   C1735     1.0  0.64423  0.48224  0.92730  1.0000
  H   H1377     1.0  0.57302  0.23689  0.98062  1.0000
  C   C1736     1.0  0.53713  0.02394  0.97091  1.0000
  H   H1378     1.0  0.68910  0.35231  0.53347  1.0000
  H   H1379     1.0  0.72413  0.44179  0.56265  1.0000
  C   C1737     1.0  0.67887  0.36537  0.53909  1.0000
  C   C1738     1.0  0.65589  0.09334  0.60816  1.0000
  H   H1380     1.0  0.71070  0.08440  0.65416  1.0000
  C   C1739     1.0  0.63292  0.08508  0.57718  1.0000
  C   C1740     1.0  0.63030  0.10789  0.57223  1.0000
  C   C1741     1.0  0.64055  0.12346  0.58504  1.0000
  C   C1742     1.0  0.65327  0.11626  0.60291  1.0000
  H   H1381     1.0  0.51872  0.37950  0.61151  1.0000
  H   H1382     1.0  0.72907  0.30199  0.69371  1.0000
  H   H1383     1.0  0.64764  0.06005  0.59835  1.0000
  H   H1384     1.0  0.57386  0.00314  0.97154  1.0000
  H   H1385     1.0  0.51899  0.01613  0.89022  1.0000
  H   H1386     1.0  0.57299  0.37487  0.77280  1.0000
  C   C1743     1.0  0.69753  0.41649  0.93207  1.0000
  C   C1744     1.0  0.58392  0.24483  0.52671  1.0000
  H   H1387     1.0  0.63410  0.02479  0.99003  1.0000
  H   H1388     1.0  0.60712  0.16848  0.50391  1.0000
  H   H1389     1.0  0.62979  0.01993  0.57121  1.0000
  P   P54       1.0  0.63357  0.44179  0.94901  1.0000
  C   C1745     1.0  0.66034  0.26330  0.54234  1.0000
  C   C1746     1.0  0.74153  0.48377  0.51473  1.0000
  H   H1390     1.0  0.66624  0.02203  0.94559  1.0000
  H   H1391     1.0  0.67940  0.35425  0.57491  1.0000
  C   C1747     1.0  0.54115  0.37478  0.77883  1.0000
  H   H1392     1.0  0.62080  0.11344  0.55804  1.0000
  H   H1393     1.0  0.63903  0.14114  0.58086  1.0000
  H   H1394     1.0  0.66115  0.12877  0.61219  1.0000
  H   H1395     1.0  0.71967  0.04870  0.57810  1.0000
  C   C1748     1.0  0.58664  0.39416  0.92052  1.0000
  C   C1749     1.0  0.59026  0.39432  0.94431  1.0000
  C   C1750     1.0  0.60445  0.40864  0.95316  1.0000
  H   H1396     1.0  0.58179  0.23069  0.53847  1.0000
  C   C1751     1.0  0.73367  0.40954  0.68489  1.0000
  H   H1397     1.0  0.51605  0.00910  0.93235  1.0000
  H   H1398     1.0  0.57631  0.38235  0.91354  1.0000
  C   C1752     1.0  0.70672  0.35032  0.71158  1.0000
  H   H1399     1.0  0.58258  0.38275  0.95582  1.0000
  C   C1753     1.0  0.55787  0.35549  0.74761  1.0000
  C   C1754     1.0  0.68484  0.26631  0.51141  1.0000
  H   H1400     1.0  0.59660  0.46717  0.94094  1.0000
  C   C1755     1.0  0.59706  0.40848  0.90555  1.0000
  C   C1756     1.0  0.65692  0.39724  0.53010  1.0000
  C   C1757     1.0  0.49950  0.18951  0.99586  1.0000
  C   C1758     1.0  0.53001  0.00319  0.97889  1.0000
  C   C1759     1.0  0.67393  0.10567  0.65271  1.0000
  H   H1401     1.0  0.68099  0.31083  0.74245  1.0000
  C   C1760     1.0  0.58900  0.40999  0.53572  1.0000
  C   C1761     1.0  0.58071  0.43144  0.53279  1.0000
  C   C1762     1.0  0.59193  0.44839  0.52232  1.0000
  C   C1763     1.0  0.65993  0.38293  0.56973  1.0000
  C   C1764     1.0  0.65176  0.39833  0.55370  1.0000
  C   C1765     1.0  0.67892  0.27042  0.53419  1.0000
  C   C1766     1.0  0.65857  0.43212  0.94180  1.0000
  H   H1402     1.0  0.69371  0.02109  0.57443  1.0000
  H   H1403     1.0  0.61989  0.45719  0.50660  1.0000
  C   C1767     1.0  0.66152  0.27174  0.99517  1.0000
  H   H1404     1.0  0.56551  0.43482  0.53845  1.0000
  C   C1768     1.0  0.66955  0.03863  0.64684  1.0000
  H   H1405     1.0  0.65528  0.38320  0.58773  1.0000
  H   H1406     1.0  0.64110  0.41077  0.55970  1.0000
  H   H1407     1.0  0.58019  0.39675  0.54350  1.0000
  H   H1408     1.0  0.68605  0.01039  0.91148  1.0000
  C   C1769     1.0  0.52197  0.35243  0.75272  1.0000
  H   H1409     1.0  0.65184  0.38403  0.63048  1.0000
  H   H1410     1.0  0.68514  0.03690  0.64207  1.0000
  C   C1770     1.0  0.73131  0.39004  0.69856  1.0000
  H   H1411     1.0  0.65018  0.24064  0.86466  1.0000
  C   C1771     1.0  0.66198  0.41652  0.92434  1.0000
  C   C1772     1.0  0.64742  0.25216  0.52763  1.0000
  C   C1773     1.0  0.70551  0.30391  0.71923  1.0000
  H   H1412     1.0  0.68383  0.39616  0.90658  1.0000
  S   S249      1.0  0.70033  0.35308  0.99791  1.0000
  H   H1413     1.0  0.61467  0.38867  0.53042  1.0000
  C   C1774     1.0  0.67494  0.44011  0.95403  1.0000
  H   H1414     1.0  0.62345  0.47877  0.98077  1.0000
  H   H1415     1.0  0.66822  0.44028  0.54433  1.0000
  C   C1775     1.0  0.63201  0.16516  0.52718  1.0000
  C   C1776     1.0  0.64483  0.17625  0.54182  1.0000
  C   C1777     1.0  0.64214  0.19916  0.54538  1.0000
  C   C1778     1.0  0.62646  0.21116  0.53446  1.0000
  C   C1779     1.0  0.61403  0.19999  0.51915  1.0000
  P   P55       1.0  0.62416  0.24105  0.53829  1.0000
  C   C1780     1.0  0.61999  0.24853  0.56809  1.0000
  C   C1781     1.0  0.65348  0.24799  0.50478  1.0000
  C   C1782     1.0  0.67063  0.38067  0.52294  1.0000
  C   C1783     1.0  0.61660  0.27111  0.57332  1.0000
  C   C1784     1.0  0.61364  0.27747  0.59624  1.0000
  C   C1785     1.0  0.61380  0.26132  0.61410  1.0000
  C   C1786     1.0  0.61701  0.23880  0.60905  1.0000
  C   C1787     1.0  0.62001  0.23236  0.58613  1.0000
  C   C1788     1.0  0.57786  0.22841  0.99646  1.0000
  H   H1416     1.0  0.51704  0.46132  0.52665  1.0000
  H   H1417     1.0  0.65705  0.16713  0.55018  1.0000
  H   H1418     1.0  0.65245  0.20757  0.55651  1.0000
  P   P56       1.0  0.67134  0.08360  0.63212  1.0000
  C   C1789     1.0  0.49816  0.40293  0.62724  1.0000
  C   C1790     1.0  0.61499  0.42315  0.93823  1.0000
  H   H1419     1.0  0.61659  0.28391  0.55972  1.0000
  H   H1420     1.0  0.61159  0.29500  0.60022  1.0000
  H   H1421     1.0  0.61184  0.26634  0.63191  1.0000
  H   H1422     1.0  0.61746  0.22637  0.62300  1.0000
  H   H1423     1.0  0.62245  0.21485  0.58274  1.0000
  H   H1424     1.0  0.50964  0.36985  0.78217  1.0000
  C   C1791     1.0  0.60884  0.47712  0.93432  1.0000
  P   P57       1.0  0.70661  0.37997  0.70534  1.0000
  C   C1792     1.0  0.73141  0.06930  0.63051  1.0000
  H   H1425     1.0  0.62560  0.07289  0.56674  1.0000
  C   C1793     1.0  0.55866  0.36929  0.76675  1.0000
  C   C1794     1.0  0.60855  0.40548  0.52830  1.0000
  C   C1795     1.0  0.66850  0.45011  0.52838  1.0000
  H   H1426     1.0  0.58945  0.00438  0.91081  1.0000
  C   C1796     1.0  0.65953  0.01955  0.65459  1.0000
  H   H1427     1.0  0.61144  0.17057  0.96158  1.0000
  C   C1797     1.0  0.63923  0.02086  0.66023  1.0000
  H   H1428     1.0  0.54657  0.02515  0.95564  1.0000
  C   C1798     1.0  0.69639  0.38426  0.65860  1.0000
  C   C1799     1.0  0.68101  0.01456  0.94799  1.0000
  H   H1429     1.0  0.54185  0.38462  0.79432  1.0000
  S   S250      1.0  0.51054  0.38267  0.52197  1.0000
  C   C1800     1.0  0.63783  0.42502  0.99408  1.0000
  C   C1801     1.0  0.69265  0.34109  0.72703  1.0000
  C   C1802     1.0  0.68287  0.38483  0.64021  1.0000
  C   C1803     1.0  0.67350  0.36649  0.56247  1.0000
  H   H1430     1.0  0.67026  0.07216  0.95370  1.0000
  C   C1804     1.0  0.70730  0.00024  0.97353  1.0000
  H   H1431     1.0  0.51235  0.36274  0.70469  1.0000
  H   H1432     1.0  0.57161  0.35045  0.73896  1.0000
  H   H1433     1.0  0.71223  0.38309  0.65478  1.0000
  C   C1805     1.0  0.69838  0.39550  0.73015  1.0000
  C   C1806     1.0  0.61666  0.17703  0.51580  1.0000
  C   C1807     1.0  0.68583  0.41967  0.76888  1.0000
  C   C1808     1.0  0.49914  0.29463  0.80177  1.0000
  H   H1434     1.0  0.64974  0.40984  0.91476  1.0000
  H   H1435     1.0  0.68624  0.06275  0.58963  1.0000
  H   H1436     1.0  0.54283  0.02698  0.54832  1.0000
  C   C1809     1.0  0.69216  0.00794  0.92872  1.0000
  C   C1810     1.0  0.60530  0.27260  0.50877  1.0000
  H   H1437     1.0  0.49831  0.07564  0.97533  1.0000
  C   C1811     1.0  0.69432  0.43235  0.94912  1.0000
  H   H1438     1.0  0.72990  0.34270  0.68658  1.0000
  C   C1812     1.0  0.66231  0.38469  0.64466  1.0000
  C   C1813     1.0  0.65527  0.38400  0.66749  1.0000
  C   C1814     1.0  0.66875  0.38341  0.68590  1.0000
  C   C1815     1.0  0.68943  0.38394  0.68159  1.0000
  C   C1816     1.0  0.62861  0.46898  0.93586  1.0000
  C   C1817     1.0  0.68604  0.12398  0.64707  1.0000
  C   C1818     1.0  0.67773  0.14080  0.68371  1.0000
  C   C1819     1.0  0.70392  0.38826  0.75254  1.0000
  H   H1439     1.0  0.61310  0.04226  0.66234  1.0000
  H   H1440     1.0  0.69698  0.15571  0.65778  1.0000
  C   C1820     1.0  0.64406  0.09354  0.95480  1.0000
  C   C1821     1.0  0.68850  0.01068  0.97029  1.0000
  C   C1822     1.0  0.66586  0.12252  0.68961  1.0000
  H   H1441     1.0  0.50943  0.41538  0.62980  1.0000
  C   C1823     1.0  0.64563  0.07783  0.59505  1.0000
  H   H1442     1.0  0.63433  0.14747  0.52420  1.0000
  C   C1824     1.0  0.68070  0.42730  0.74660  1.0000
  C   C1825     1.0  0.68706  0.41535  0.72726  1.0000
  Fe  Fe126     1.0  0.57353  0.13317  0.99368  1.0000
  H   H1443     1.0  0.65961  0.47642  0.92826  1.0000
  H   H1444     1.0  0.68896  0.27848  0.54592  1.0000
  C   C1826     1.0  0.69751  0.40022  0.77184  1.0000
  H   H1445     1.0  0.58538  0.46494  0.51988  1.0000
  C   C1827     1.0  0.68784  0.14150  0.66246  1.0000
  H   H1446     1.0  0.63937  0.38289  0.67089  1.0000
  H   H1447     1.0  0.66305  0.38171  0.70344  1.0000
  H   H1448     1.0  0.64662  0.27869  0.84696  1.0000
  H   H1449     1.0  0.68163  0.35158  0.73557  1.0000
  H   H1450     1.0  0.53954  0.33507  0.72682  1.0000
  C   C1828     1.0  0.51371  0.27500  0.76942  1.0000
  C   C1829     1.0  0.60313  0.25331  0.52282  1.0000
  C   C1830     1.0  0.71971  0.33603  0.69948  1.0000
  C   C1831     1.0  0.65324  0.06669  0.98513  1.0000
  H   H1451     1.0  0.66741  0.00355  0.65567  1.0000
  H   H1452     1.0  0.67907  0.15446  0.69558  1.0000
  H   H1453     1.0  0.67176  0.44246  0.74432  1.0000
  C   C1832     1.0  0.69872  0.06473  0.60119  1.0000
  C   C1833     1.0  0.53592  0.44411  0.50242  1.0000
  H   H1454     1.0  0.61912  0.43391  0.90245  1.0000
  H   H1455     1.0  0.68312  0.42160  0.71012  1.0000
  C   C1834     1.0  0.66396  0.30434  0.96989  1.0000
  C   C1835     1.0  0.73066  0.46501  0.50886  1.0000
  C   C1836     1.0  0.66997  0.29240  0.98978  1.0000
  C   C1837     1.0  0.64692  0.26313  0.98081  1.0000
  C   C1838     1.0  0.64164  0.27439  0.96002  1.0000
  C   C1839     1.0  0.64995  0.29538  0.95502  1.0000
  P   P58       1.0  0.62299  0.26324  0.94099  1.0000
  C   C1840     1.0  0.63077  0.26791  0.91122  1.0000
  C   C1841     1.0  0.61949  0.23355  0.94625  1.0000
  C   C1842     1.0  0.60041  0.22429  0.94476  1.0000
  C   C1843     1.0  0.59759  0.20168  0.95029  1.0000
  C   C1844     1.0  0.61378  0.18802  0.95694  1.0000
  C   C1845     1.0  0.63297  0.19680  0.95735  1.0000
  C   C1846     1.0  0.63587  0.21939  0.95175  1.0000
  C   C1847     1.0  0.62859  0.28929  0.90087  1.0000
  C   C1848     1.0  0.63469  0.29322  0.87799  1.0000
  C   C1849     1.0  0.64247  0.27570  0.86494  1.0000
  C   C1850     1.0  0.64445  0.25428  0.87493  1.0000
  C   C1851     1.0  0.63872  0.25038  0.89802  1.0000
  C   C1852     1.0  0.59970  0.27824  0.94552  1.0000
  C   C1853     1.0  0.59594  0.28927  0.96636  1.0000
  C   C1854     1.0  0.57791  0.30103  0.96962  1.0000
  C   C1855     1.0  0.56359  0.30193  0.95210  1.0000
  C   C1856     1.0  0.56726  0.29100  0.93135  1.0000
  C   C1857     1.0  0.58520  0.27916  0.92803  1.0000
  C   C1858     1.0  0.71247  0.07707  0.63730  1.0000
  H   H1456     1.0  0.71617  0.43523  0.52149  1.0000
  H   H1457     1.0  0.63982  0.24778  0.98610  1.0000
  H   H1458     1.0  0.64548  0.30517  0.93992  1.0000
  H   H1459     1.0  0.58757  0.23438  0.93948  1.0000
  H   H1460     1.0  0.58275  0.19473  0.94957  1.0000
  H   H1461     1.0  0.50730  0.35649  0.66306  1.0000
  H   H1462     1.0  0.64556  0.18602  0.96200  1.0000
  H   H1463     1.0  0.65087  0.22586  0.95186  1.0000
  H   H1464     1.0  0.62194  0.30297  0.91031  1.0000
  H   H1465     1.0  0.63289  0.30982  0.87022  1.0000
  H   H1466     1.0  0.56258  0.02675  0.58453  1.0000
  H   H1467     1.0  0.64026  0.23363  0.90527  1.0000
  H   H1468     1.0  0.67927  0.01505  0.98498  1.0000
  H   H1469     1.0  0.66368  0.05420  0.99188  1.0000
  H   H1470     1.0  0.54972  0.31124  0.95446  1.0000
  H   H1471     1.0  0.55627  0.29179  0.91767  1.0000
  H   H1472     1.0  0.58771  0.27079  0.91175  1.0000
  H   H1473     1.0  0.59468  0.40772  0.88704  1.0000
  C   C1859     1.0  0.73400  0.05912  0.60916  1.0000
  C   C1860     1.0  0.53964  0.34686  0.74075  1.0000
  H   H1474     1.0  0.71252  0.40996  0.92895  1.0000
  H   H1475     1.0  0.64695  0.10142  0.93805  1.0000
  Fe  Fe127     1.0  0.71984  0.09098  0.51024  1.0000
  C   C1861     1.0  0.67798  0.47078  0.52807  1.0000
  C   C1862     1.0  0.50417  0.34827  0.69942  1.0000
  H   H1476     1.0  0.68079  0.42884  0.78387  1.0000
  S   S251      1.0  0.73167  0.34376  0.63688  1.0000
  H   H1477     1.0  0.69944  0.27146  0.50537  1.0000
  H   H1478     1.0  0.60718  0.40801  0.97157  1.0000
  C   C1863     1.0  0.71764  0.05664  0.59465  1.0000
  H   H1479     1.0  0.65808  0.12198  0.70613  1.0000
  H   H1480     1.0  0.65475  0.09102  0.67918  1.0000
  H   H1481     1.0  0.68507  0.47657  0.54356  1.0000
  S   S252      1.0  0.55893  0.09966  0.99345  1.0000
  C   C1864     1.0  0.53214  0.04346  0.98257  1.0000
  C   C1865     1.0  0.54539  0.01146  0.55799  1.0000
  H   H1482     1.0  0.60993  0.09468  0.99851  1.0000
  C   C1866     1.0  0.55648  0.01133  0.57840  1.0000
  C   C1867     1.0  0.50086  0.31300  0.76383  1.0000
  S   S253      1.0  0.62733  0.00231  0.93615  1.0000
  H   H1483     1.0  0.70807  0.04079  0.99979  1.0000
  H   H1484     1.0  0.51123  0.26106  0.80409  1.0000
  H   H1485     1.0  0.64197  0.40931  0.98620  1.0000
  C   C1868     1.0  0.63233  0.44367  0.98022  1.0000
  P   P59       1.0  0.64559  0.41660  0.50927  1.0000
  H   H1486     1.0  0.60259  0.20889  0.50936  1.0000
  C   C1869     1.0  0.52791  0.00294  0.89844  1.0000
  S   S254      1.0  0.70824  0.12661  0.50738  1.0000
  C   C1870     1.0  0.50806  0.27538  0.79276  1.0000
  C   C1871     1.0  0.67828  0.48402  0.50780  1.0000
  C   C1872     1.0  0.67932  0.99654  0.59685  1.0000
  C   C1873     1.0  0.50119  0.34489  0.67581  1.0000
  C   C1874     1.0  0.56968  0.27363  0.50135  1.0000
  C   C1875     1.0  0.49652  0.33317  0.71605  1.0000
  S   S255      1.0  0.60729  0.34052  0.50399  1.0000
  C   C1876     1.0  0.64339  0.99571  0.59499  1.0000
  H   H1487     1.0  0.61968  0.28039  0.50654  1.0000
  S   S256      1.0  0.73871  0.40229  0.97401  1.0000
  Fe  Fe128     1.0  0.71537  0.38663  0.99928  1.0000
  H   H1488     1.0  0.74282  0.47512  0.57330  1.0000
  C   C1877     1.0  0.51769  0.00244  0.99872  1.0000
  Fe  Fe129     1.0  0.66659  0.55548  0.41900  1.0000
  S   S257      1.0  0.66169  0.52446  0.39845  1.0000
  S   S258      1.0  0.69967  0.56458  0.42538  1.0000
  Fe  Fe130     1.0  0.62080  0.56576  0.41914  1.0000
  S   S259      1.0  0.61361  0.53589  0.39793  1.0000
  S   S260      1.0  0.59786  0.58797  0.43816  1.0000
  Fe  Fe131     1.0  0.63511  0.51729  0.42134  1.0000
  Fe  Fe132     1.0  0.64065  0.54527  0.37600  1.0000
  S   S261      1.0  0.64648  0.53845  0.33720  1.0000
  S   S262      1.0  0.64153  0.54671  0.44353  1.0000
  S   S263      1.0  0.64643  0.57673  0.39565  1.0000
  H   H1489     1.0  0.50684  0.72952  0.17087  1.0000
  Fe  Fe133     1.0  0.64380  0.53708  0.15001  1.0000
  S   S264      1.0  0.64644  0.56803  0.12737  1.0000
  H   H1490     1.0  0.71361  0.73450  0.08942  1.0000
  Fe  Fe134     1.0  0.63741  0.56528  0.19420  1.0000
  S   S265      1.0  0.64019  0.59762  0.17348  1.0000
  S   S266      1.0  0.62887  0.57182  0.23240  1.0000
  Fe  Fe135     1.0  0.62000  0.58244  0.14728  1.0000
  S   S267      1.0  0.59683  0.60608  0.12884  1.0000
  Fe  Fe136     1.0  0.66623  0.58119  0.15540  1.0000
  S   S268      1.0  0.69574  0.59688  0.14267  1.0000
  S   S269      1.0  0.61606  0.55069  0.16857  1.0000
  S   S270      1.0  0.66475  0.54955  0.17736  1.0000
  H   H1491     1.0  0.58995  0.51808  0.22711  1.0000
  C   C1878     1.0  0.71537  0.61482  0.15104  1.0000
  C   C1879     1.0  0.71676  0.62329  0.17332  1.0000
  C   C1880     1.0  0.53741  0.71844  0.20304  1.0000
  C   C1881     1.0  0.73018  0.62060  0.13462  1.0000
  H   H1492     1.0  0.70549  0.61916  0.18607  1.0000
  H   H1493     1.0  0.57513  0.53676  0.43620  1.0000
  C   C1882     1.0  0.53460  0.49831  0.41180  1.0000
  C   C1883     1.0  0.52833  0.62233  0.12624  1.0000
  C   C1884     1.0  0.54196  0.63378  0.11198  1.0000
  C   C1885     1.0  0.56267  0.62841  0.11293  1.0000
  C   C1886     1.0  0.57025  0.61144  0.12802  1.0000
  C   C1887     1.0  0.55661  0.59993  0.14222  1.0000
  C   C1888     1.0  0.53591  0.60538  0.14135  1.0000
  H   H1494     1.0  0.53655  0.64674  0.10013  1.0000
  H   H1495     1.0  0.57292  0.63749  0.10182  1.0000
  H   H1496     1.0  0.56202  0.58690  0.15399  1.0000
  H   H1497     1.0  0.52565  0.59632  0.15248  1.0000
  C   C1889     1.0  0.57135  0.59188  0.43696  1.0000
  C   C1890     1.0  0.55984  0.58325  0.41926  1.0000
  C   C1891     1.0  0.53904  0.58770  0.41842  1.0000
  C   C1892     1.0  0.52938  0.60072  0.43534  1.0000
  C   C1893     1.0  0.54083  0.60895  0.45334  1.0000
  C   C1894     1.0  0.56165  0.60461  0.45406  1.0000
  H   H1498     1.0  0.56710  0.57356  0.40601  1.0000
  H   H1499     1.0  0.53040  0.58122  0.40441  1.0000
  H   H1500     1.0  0.53372  0.61902  0.46647  1.0000
  H   H1501     1.0  0.57037  0.61145  0.46783  1.0000
  C   C1895     1.0  0.64112  0.54799  0.30825  1.0000
  C   C1896     1.0  0.62924  0.56698  0.30334  1.0000
  C   C1897     1.0  0.62575  0.57394  0.28011  1.0000
  C   C1898     1.0  0.63413  0.56218  0.26139  1.0000
  C   C1899     1.0  0.64589  0.54311  0.26631  1.0000
  C   C1900     1.0  0.64936  0.53612  0.28955  1.0000
  H   H1502     1.0  0.62277  0.57636  0.31741  1.0000
  H   H1503     1.0  0.61641  0.58855  0.27663  1.0000
  H   H1504     1.0  0.65222  0.53367  0.25221  1.0000
  H   H1505     1.0  0.65853  0.52137  0.29306  1.0000
  C   C1901     1.0  0.71593  0.57323  0.44806  1.0000
  C   C1902     1.0  0.58947  0.53375  0.26027  1.0000
  H   H1506     1.0  0.67196  0.63356  0.30701  1.0000
  C   C1903     1.0  0.51815  0.56837  0.48555  1.0000
  C   C1904     1.0  0.70935  0.57658  0.47084  1.0000
  H   H1507     1.0  0.67105  0.50942  0.09606  1.0000
  C   C1905     1.0  0.70875  0.92884  0.02943  1.0000
  H   H1508     1.0  0.69383  0.57394  0.47525  1.0000
  P   P60       1.0  0.55530  0.51400  0.47588  1.0000
  C   C1906     1.0  0.68152  0.62333  0.09268  1.0000
  H   H1509     1.0  0.62645  0.49560  0.49263  1.0000
  H   H1510     1.0  0.72913  0.61449  0.11725  1.0000
  H   H1511     1.0  0.59653  0.57694  0.36037  1.0000
  C   C1907     1.0  0.58946  0.54563  0.34499  1.0000
  C   C1908     1.0  0.50916  0.72176  0.11285  1.0000
  H   H1512     1.0  0.71651  0.91787  0.04173  1.0000
  H   H1513     1.0  0.65453  0.70772  0.16694  1.0000
  H   H1514     1.0  0.55159  0.74592  0.21941  1.0000
  C   C1909     1.0  0.66274  0.63125  0.29194  1.0000
  H   H1515     1.0  0.62568  0.73370  0.16304  1.0000
  C   C1910     1.0  0.66210  0.61534  0.09147  1.0000
  H   H1516     1.0  0.62865  0.62251  0.23900  1.0000
  H   H1517     1.0  0.51630  0.69055  0.09661  1.0000
  P   P61       1.0  0.51937  0.68291  0.18178  1.0000
  H   H1518     1.0  0.69398  0.52605  0.25403  1.0000
  H   H1519     1.0  0.53407  0.56483  0.35127  1.0000
  C   C1911     1.0  0.71564  0.51914  0.11520  1.0000
  H   H1520     1.0  0.57052  0.53429  0.39401  1.0000
  C   C1912     1.0  0.71520  0.95071  0.02553  1.0000
  C   C1913     1.0  0.51412  0.69755  0.22705  1.0000
  H   H1521     1.0  0.65874  0.64034  0.16159  1.0000
  H   H1522     1.0  0.70075  0.68427  0.21351  1.0000
  P   P62       1.0  0.69465  0.60606  0.27433  1.0000
  H   H1523     1.0  0.60500  0.54073  0.34310  1.0000
  H   H1524     1.0  0.49410  0.52491  0.41648  1.0000
  C   C1914     1.0  0.58101  0.52035  0.48202  1.0000
  C   C1915     1.0  0.66982  0.61846  0.27339  1.0000
  C   C1916     1.0  0.68539  0.64250  0.10517  1.0000
  C   C1917     1.0  0.69902  0.58705  0.23097  1.0000
  C   C1918     1.0  0.58776  0.51565  0.24563  1.0000
  C   C1919     1.0  0.54108  0.73247  0.22152  1.0000
  C   C1920     1.0  0.56123  0.52456  0.40570  1.0000
  C   C1921     1.0  0.64648  0.62650  0.10278  1.0000
  C   C1922     1.0  0.64721  0.70960  0.15035  1.0000
  H   H1525     1.0  0.69373  0.61408  0.08485  1.0000
  H   H1526     1.0  0.59299  0.55009  0.25303  1.0000
  C   C1923     1.0  0.58470  0.56629  0.35462  1.0000
  H   H1527     1.0  0.69700  0.69629  0.17265  1.0000
  C   C1924     1.0  0.69965  0.59652  0.30372  1.0000
  C   C1925     1.0  0.71284  0.62653  0.26519  1.0000
  H   H1528     1.0  0.72789  0.95646  0.03503  1.0000
  H   H1529     1.0  0.54227  0.52854  0.33391  1.0000
  C   C1926     1.0  0.56474  0.57317  0.35691  1.0000
  C   C1927     1.0  0.54954  0.55939  0.34953  1.0000
  H   H1530     1.0  0.54529  0.72105  0.18676  1.0000
  C   C1928     1.0  0.71847  0.59936  0.31375  1.0000
  C   C1929     1.0  0.53122  0.72911  0.24271  1.0000
  C   C1930     1.0  0.62767  0.71507  0.10786  1.0000
  C   C1931     1.0  0.69656  0.70980  0.10842  1.0000
  H   H1531     1.0  0.66207  0.60521  0.24002  1.0000
  H   H1532     1.0  0.69174  0.55701  0.28120  1.0000
  H   H1533     1.0  0.71686  0.66842  0.14274  1.0000
  C   C1932     1.0  0.65740  0.61555  0.25425  1.0000
  C   C1933     1.0  0.70040  0.56935  0.21565  1.0000
  C   C1934     1.0  0.52889  0.55093  0.47519  1.0000
  C   C1935     1.0  0.68450  0.58623  0.31687  1.0000
  C   C1936     1.0  0.72282  0.58362  0.48792  1.0000
  C   C1937     1.0  0.59553  0.50335  0.48532  1.0000
  C   C1938     1.0  0.73626  0.57693  0.44285  1.0000
  C   C1939     1.0  0.69732  0.69115  0.12365  1.0000
  H   H1534     1.0  0.53105  0.64375  0.21005  1.0000
  C   C1940     1.0  0.71598  0.68279  0.13108  1.0000
  C   C1941     1.0  0.69876  0.54735  0.22399  1.0000
  C   C1942     1.0  0.69572  0.54307  0.24764  1.0000
  H   H1535     1.0  0.65760  0.99025  0.06400  1.0000
  H   H1536     1.0  0.73643  0.59445  0.34443  1.0000
  H   H1537     1.0  0.62004  0.71711  0.09143  1.0000
  C   C1943     1.0  0.67764  0.66914  0.16393  1.0000
  C   C1944     1.0  0.63083  0.72438  0.14821  1.0000
  C   C1945     1.0  0.68935  0.68154  0.17892  1.0000
  C   C1946     1.0  0.71155  0.54200  0.11702  1.0000
  C   C1947     1.0  0.64357  0.64096  0.29130  1.0000
  C   C1948     1.0  0.62045  0.53099  0.49310  1.0000
  H   H1538     1.0  0.56107  0.58918  0.36447  1.0000
  C   C1949     1.0  0.70891  0.64949  0.26776  1.0000
  C   C1950     1.0  0.54052  0.53606  0.48883  1.0000
  H   H1539     1.0  0.70448  0.98794  0.05171  1.0000
  C   C1951     1.0  0.58266  0.50955  0.29368  1.0000
  H   H1540     1.0  0.65918  0.60013  0.08236  1.0000
  H   H1541     1.0  0.74162  0.57447  0.42536  1.0000
  H   H1542     1.0  0.63807  0.65049  0.30583  1.0000
  C   C1952     1.0  0.65388  0.69737  0.13123  1.0000
  C   C1953     1.0  0.55159  0.51351  0.44490  1.0000
  C   C1954     1.0  0.63831  0.62542  0.25359  1.0000
  C   C1955     1.0  0.51619  0.69855  0.15491  1.0000
  H   H1543     1.0  0.73047  0.60706  0.30400  1.0000
  H   H1544     1.0  0.70422  0.50715  0.11981  1.0000
  C   C1956     1.0  0.57330  0.65361  0.16487  1.0000
  C   C1957     1.0  0.57470  0.63568  0.18073  1.0000
  C   C1958     1.0  0.55947  0.63225  0.19703  1.0000
  C   C1959     1.0  0.54271  0.64659  0.19728  1.0000
  C   C1960     1.0  0.54084  0.66416  0.18083  1.0000
  C   C1961     1.0  0.55655  0.66794  0.16502  1.0000
  P   P63       1.0  0.58077  0.50514  0.32468  1.0000
  P   P64       1.0  0.67474  0.67788  0.13390  1.0000
  C   C1962     1.0  0.65243  0.98544  0.02774  1.0000
  H   H1545     1.0  0.66196  0.62919  0.20266  1.0000
  C   C1963     1.0  0.73360  0.69303  0.12373  1.0000
  H   H1546     1.0  0.57612  0.55636  0.47984  1.0000
  H   H1547     1.0  0.69530  0.65532  0.27605  1.0000
  C   C1964     1.0  0.70672  0.58216  0.34968  1.0000
  H   H1548     1.0  0.71356  0.60480  0.04241  1.0000
  C   C1965     1.0  0.66957  0.64386  0.19607  1.0000
  H   H1549     1.0  0.68244  0.71661  0.10230  1.0000
  C   C1966     1.0  0.64406  0.70032  0.10992  1.0000
  C   C1967     1.0  0.68142  0.65610  0.21078  1.0000
  H   H1550     1.0  0.63576  0.53513  0.49683  1.0000
  C   C1968     1.0  0.51835  0.68765  0.13379  1.0000
  H   H1551     1.0  0.73000  0.57329  0.06345  1.0000
  C   C1969     1.0  0.54685  0.51058  0.39678  1.0000
  P   P65       1.0  0.71546  0.99225  0.00239  1.0000
  H   H1552     1.0  0.64900  0.69114  0.09490  1.0000
  H   H1553     1.0  0.58497  0.65589  0.15196  1.0000
  H   H1554     1.0  0.58738  0.62415  0.17999  1.0000
  H   H1555     1.0  0.56053  0.61824  0.20920  1.0000
  H   H1556     1.0  0.53406  0.73998  0.25703  1.0000
  H   H1557     1.0  0.55583  0.68170  0.15256  1.0000
  C   C1970     1.0  0.69137  0.67489  0.20219  1.0000
  C   C1971     1.0  0.65029  0.64558  0.11541  1.0000
  H   H1558     1.0  0.51032  0.70884  0.26199  1.0000
  C   C1972     1.0  0.52364  0.70115  0.20556  1.0000
  H   H1559     1.0  0.50114  0.74985  0.13372  1.0000
  H   H1560     1.0  0.52834  0.54945  0.45656  1.0000
  H   H1561     1.0  0.63803  0.65353  0.12463  1.0000
  C   C1973     1.0  0.51500  0.69923  0.11284  1.0000
  C   C1974     1.0  0.66977  0.65387  0.11655  1.0000
  H   H1562     1.0  0.58921  0.54487  0.29521  1.0000
  H   H1563     1.0  0.50928  0.57993  0.47500  1.0000
  H   H1564     1.0  0.73446  0.60202  0.25285  1.0000
  H   H1565     1.0  0.68293  0.65092  0.22877  1.0000
  H   H1566     1.0  0.69700  0.54777  0.12311  1.0000
  H   H1567     1.0  0.50615  0.73061  0.09661  1.0000
  H   H1568     1.0  0.70933  0.57664  0.36749  1.0000
  H   H1569     1.0  0.69946  0.53365  0.21205  1.0000
  S   S271      1.0  0.50186  0.62852  0.12617  1.0000
  C   C1975     1.0  0.51782  0.71160  0.24549  1.0000
  H   H1570     1.0  0.73025  0.96872  0.07987  1.0000
  C   C1976     1.0  0.56371  0.52598  0.42968  1.0000
  C   C1977     1.0  0.66776  0.65026  0.17272  1.0000
  H   H1571     1.0  0.65708  0.96798  0.02836  1.0000
  C   C1978     1.0  0.74006  0.65822  0.24816  1.0000
  H   H1572     1.0  0.60830  0.73844  0.12538  1.0000
  H   H1573     1.0  0.72271  0.57511  0.11247  1.0000
  C   C1979     1.0  0.68804  0.57912  0.33973  1.0000
  C   C1980     1.0  0.57432  0.53155  0.33772  1.0000
  C   C1981     1.0  0.69633  0.58289  0.25483  1.0000
  C   C1982     1.0  0.55428  0.53873  0.33981  1.0000
  C   C1983     1.0  0.50977  0.72105  0.15483  1.0000
  H   H1574     1.0  0.63148  0.61999  0.10227  1.0000
  S   S272      1.0  0.50316  0.60646  0.43289  1.0000
  C   C1984     1.0  0.73267  0.63732  0.17903  1.0000
  H   H1575     1.0  0.68828  0.90356  0.01917  1.0000
  C   C1985     1.0  0.69285  0.92075  0.01675  1.0000
  C   C1986     1.0  0.58717  0.53071  0.28422  1.0000
  H   H1576     1.0  0.71928  0.68294  0.26101  1.0000
  C   C1987     1.0  0.62104  0.72707  0.12700  1.0000
  H   H1577     1.0  0.67630  0.57112  0.34976  1.0000
  C   C1988     1.0  0.63136  0.63806  0.27212  1.0000
  H   H1578     1.0  0.73332  0.64405  0.19621  1.0000
  C   C1989     1.0  0.73441  0.51178  0.10741  1.0000
  H   H1579     1.0  0.70242  0.57273  0.19723  1.0000
  C   C1990     1.0  0.71423  0.72000  0.10102  1.0000
  C   C1991     1.0  0.72633  0.60782  0.05327  1.0000
  C   C1992     1.0  0.73088  0.61962  0.25471  1.0000
  H   H1580     1.0  0.72582  0.64339  0.04646  1.0000
  C   C1993     1.0  0.69443  0.56076  0.26304  1.0000
  H   H1581     1.0  0.66994  0.58359  0.30944  1.0000
  H   H1582     1.0  0.61638  0.64525  0.27175  1.0000
  H   H1583     1.0  0.50824  0.63606  0.17477  1.0000
  H   H1584     1.0  0.70065  0.64789  0.10647  1.0000
  C   C1994     1.0  0.73274  0.71166  0.10873  1.0000
  C   C1995     1.0  0.50641  0.73262  0.13383  1.0000
  H   H1585     1.0  0.69995  0.60400  0.22417  1.0000
  C   C1996     1.0  0.72619  0.55749  0.11103  1.0000
  C   C1997     1.0  0.72247  0.66525  0.25922  1.0000
  H   H1586     1.0  0.59602  0.49888  0.37165  1.0000
  H   H1587     1.0  0.52217  0.67003  0.13356  1.0000
  C   C1998     1.0  0.70595  0.96460  0.00867  1.0000
  H   H1588     1.0  0.50394  0.68385  0.22966  1.0000
  H   H1589     1.0  0.52993  0.95075  0.00630  1.0000
  H   H1590     1.0  0.49542  0.96099  0.27515  1.0000
  C   C1999     1.0  0.72194  0.59222  0.33668  1.0000
  C   C2000     1.0  0.49517  0.64538  0.18047  1.0000
  C   C2001     1.0  0.58668  0.54278  0.48347  1.0000
  H   H1591     1.0  0.54521  0.50924  0.37823  1.0000
  H   H1592     1.0  0.61059  0.56541  0.48949  1.0000
  C   C2002     1.0  0.60627  0.54804  0.48907  1.0000
  S   S273      1.0  0.64583  0.50032  0.13772  1.0000
  H   H1593     1.0  0.51177  0.98692  0.00533  1.0000
  H   H1594     1.0  0.50644  0.92027  0.01519  1.0000
  C   C2003     1.0  0.73567  0.58999  0.06528  1.0000
  C   C2004     1.0  0.49624  0.66818  0.18536  1.0000
  C   C2005     1.0  0.73323  0.62954  0.05552  1.0000
  C   C2006     1.0  0.53679  0.49996  0.43575  1.0000
  C   C2007     1.0  0.61515  0.50870  0.49090  1.0000
  C   C2008     1.0  0.74250  0.99079  0.00338  1.0000
  H   H1595     1.0  0.54193  0.49791  0.30343  1.0000
  C   C2009     1.0  0.68328  0.93456  0.00029  1.0000
  C   C2010     1.0  0.74313  0.58740  0.48268  1.0000
  C   C2011     1.0  0.64007  0.50333  0.91731  1.0000
  Fe  Fe137     1.0  0.63835  0.94369  0.87178  1.0000
  S   S274      1.0  0.63257  0.91077  0.89009  1.0000
  S   S275      1.0  0.65218  0.94563  0.83499  1.0000
  Fe  Fe138     1.0  0.62761  0.96979  0.91610  1.0000
  S   S276      1.0  0.62099  0.93834  0.93661  1.0000
  H   H1596     1.0  0.59475  0.96816  0.58467  1.0000
  Fe  Fe139     1.0  0.64930  0.92437  0.92049  1.0000
  S   S277      1.0  0.67103  0.90227  0.94227  1.0000
  Fe  Fe140     1.0  0.60493  0.92766  0.90476  1.0000
  S   S278      1.0  0.57326  0.91405  0.90111  1.0000
  S   S279      1.0  0.65673  0.95630  0.90152  1.0000
  S   S280      1.0  0.60998  0.96016  0.88493  1.0000
  C   C2012     1.0  0.58654  0.94067  0.98441  1.0000
  Fe  Fe141     1.0  0.64764  0.93481  0.64686  1.0000
  S   S281      1.0  0.64652  0.89977  0.63292  1.0000
  S   S282      1.0  0.66191  0.96358  0.62477  1.0000
  Fe  Fe142     1.0  0.63445  0.91815  0.69591  1.0000
  S   S283      1.0  0.63328  0.88253  0.68437  1.0000
  S   S284      1.0  0.62158  0.92398  0.73256  1.0000
  Fe  Fe143     1.0  0.66245  0.88890  0.66564  1.0000
  S   S285      1.0  0.68613  0.86036  0.66696  1.0000
  Fe  Fe144     1.0  0.61721  0.89575  0.65264  1.0000
  S   S286      1.0  0.59132  0.87428  0.63849  1.0000
  S   S287      1.0  0.66469  0.92373  0.67929  1.0000
  S   S288      1.0  0.61736  0.93158  0.66455  1.0000
  C   C2013     1.0  0.71254  0.85852  0.66208  1.0000
  C   C2014     1.0  0.72449  0.87740  0.65952  1.0000
  C   C2015     1.0  0.62034  0.51131  0.91582  1.0000
  C   C2016     1.0  0.72193  0.83726  0.66174  1.0000
  H   H1597     1.0  0.71760  0.89389  0.65941  1.0000
  H   H1598     1.0  0.71729  0.51306  0.55926  1.0000
  H   H1599     1.0  0.71288  0.82254  0.66321  1.0000
  C   C2017     1.0  0.52366  0.85761  0.62986  1.0000
  C   C2018     1.0  0.53882  0.84430  0.62004  1.0000
  C   C2019     1.0  0.55926  0.84968  0.62276  1.0000
  C   C2020     1.0  0.56507  0.86828  0.63556  1.0000
  C   C2021     1.0  0.54988  0.88144  0.64549  1.0000
  C   C2022     1.0  0.52951  0.87623  0.64251  1.0000
  H   H1600     1.0  0.53483  0.82988  0.61026  1.0000
  H   H1601     1.0  0.57068  0.83923  0.61493  1.0000
  H   H1602     1.0  0.55376  0.89546  0.65580  1.0000
  H   H1603     1.0  0.51811  0.88675  0.65008  1.0000
  C   C2023     1.0  0.64336  0.93949  0.80666  1.0000
  C   C2024     1.0  0.62349  0.93411  0.80244  1.0000
  C   C2025     1.0  0.61720  0.92953  0.77972  1.0000
  C   C2026     1.0  0.63063  0.93015  0.76081  1.0000
  C   C2027     1.0  0.65051  0.93567  0.76498  1.0000
  C   C2028     1.0  0.65679  0.94029  0.78772  1.0000
  H   H1604     1.0  0.61291  0.93370  0.81669  1.0000
  H   H1605     1.0  0.60175  0.92553  0.77677  1.0000
  H   H1606     1.0  0.66101  0.93655  0.75069  1.0000
  H   H1607     1.0  0.67216  0.94463  0.79066  1.0000
  C   C2029     1.0  0.69593  0.90594  0.95242  1.0000
  C   C2030     1.0  0.70703  0.92496  0.94686  1.0000
  C   C2031     1.0  0.55993  0.99128  0.59079  1.0000
  C   C2032     1.0  0.71082  0.88560  0.82771  1.0000
  C   C2033     1.0  0.70476  0.88916  0.96676  1.0000
  H   H1608     1.0  0.70052  0.93805  0.93593  1.0000
  C   C2034     1.0  0.54192  0.53954  0.51275  1.0000
  H   H1609     1.0  0.69636  0.87440  0.97126  1.0000
  C   C2035     1.0  0.55281  0.97323  0.89582  1.0000
  H   H1610     1.0  0.53160  0.88535  0.54982  1.0000
  H   H1611     1.0  0.50211  0.87821  0.57504  1.0000
  C   C2036     1.0  0.59629  0.97937  0.98234  1.0000
  H   H1612     1.0  0.73509  0.94167  0.95076  1.0000
  C   C2037     1.0  0.70657  0.90246  0.84346  1.0000
  C   C2038     1.0  0.53961  0.92432  0.59084  1.0000
  H   H1613     1.0  0.58944  0.50438  0.92321  1.0000
  H   H1614     1.0  0.60773  0.99184  0.98294  1.0000
  C   C2039     1.0  0.52874  0.88194  0.95322  1.0000
  C   C2040     1.0  0.52264  0.88901  0.93105  1.0000
  C   C2041     1.0  0.53637  0.89917  0.91557  1.0000
  C   C2042     1.0  0.55632  0.90258  0.92202  1.0000
  C   C2043     1.0  0.56230  0.89604  0.94438  1.0000
  C   C2044     1.0  0.54860  0.88574  0.95982  1.0000
  H   H1615     1.0  0.50747  0.88621  0.92569  1.0000
  H   H1616     1.0  0.53156  0.90415  0.89834  1.0000
  H   H1617     1.0  0.57758  0.89841  0.94959  1.0000
  H   H1618     1.0  0.55351  0.88032  0.97688  1.0000
  H   H1619     1.0  0.51772  0.91744  0.69650  1.0000
  C   C2045     1.0  0.70880  0.54765  0.56144  1.0000
  H   H1620     1.0  0.72508  0.86489  0.70581  1.0000
  C   C2046     1.0  0.71499  0.56978  0.55931  1.0000
  C   C2047     1.0  0.70627  0.82337  0.72221  1.0000
  C   C2048     1.0  0.56207  0.96963  0.97388  1.0000
  H   H1621     1.0  0.60360  0.87045  0.87741  1.0000
  H   H1622     1.0  0.69768  0.83762  0.72812  1.0000
  H   H1623     1.0  0.63638  0.85607  0.86382  1.0000
  C   C2049     1.0  0.50599  0.83538  0.68860  1.0000
  H   H1624     1.0  0.56081  0.95636  0.92761  1.0000
  H   H1625     1.0  0.68560  0.50004  0.50752  1.0000
  H   H1626     1.0  0.54344  0.85130  0.69111  1.0000
  C   C2050     1.0  0.72915  0.86061  0.59889  1.0000
  H   H1627     1.0  0.57778  0.92466  0.63892  1.0000
  C   C2051     1.0  0.53773  0.99153  0.54996  1.0000
  P   P66       1.0  0.55743  0.94523  0.59851  1.0000
  H   H1628     1.0  0.55159  0.52891  0.52341  1.0000
  H   H1629     1.0  0.53525  0.95619  0.55560  1.0000
  H   H1630     1.0  0.50288  0.63145  0.56746  1.0000
  C   C2052     1.0  0.57692  0.98573  0.97578  1.0000
  C   C2053     1.0  0.69720  0.80829  0.70766  1.0000
  H   H1631     1.0  0.59296  0.89091  0.71045  1.0000
  H   H1632     1.0  0.54985  0.95821  0.69571  1.0000
  C   C2054     1.0  0.54114  0.99008  0.88518  1.0000
  C   C2055     1.0  0.54251  0.91189  0.57069  1.0000
  H   H1633     1.0  0.73678  0.82922  0.89181  1.0000
  C   C2056     1.0  0.74262  0.87694  0.59113  1.0000
  H   H1634     1.0  0.49619  0.90074  0.60973  1.0000
  H   H1635     1.0  0.61715  0.52766  0.90809  1.0000
  C   C2057     1.0  0.71845  0.99373  0.95405  1.0000
  H   H1636     1.0  0.51050  0.84620  0.67436  1.0000
  H   H1637     1.0  0.65218  0.51350  0.91072  1.0000
  C   C2058     1.0  0.60106  0.95689  0.98693  1.0000
  C   C2059     1.0  0.71030  0.89488  0.71713  1.0000
  H   H1638     1.0  0.71825  0.91332  0.84914  1.0000
  C   C2060     1.0  0.74289  0.83479  0.65954  1.0000
  H   H1639     1.0  0.70116  0.77854  0.68773  1.0000
  C   C2061     1.0  0.70992  0.86681  0.60626  1.0000
  C   C2062     1.0  0.52253  0.92059  0.60458  1.0000
  H   H1640     1.0  0.52562  0.86959  0.76336  1.0000
  C   C2063     1.0  0.71520  0.81239  0.80703  1.0000
  H   H1641     1.0  0.73669  0.77285  0.69876  1.0000
  C   C2064     1.0  0.56720  0.94695  0.97762  1.0000
  H   H1642     1.0  0.68250  0.96630  0.98274  1.0000
  C   C2065     1.0  0.58252  0.93534  0.59194  1.0000
  C   C2066     1.0  0.59768  0.95037  0.58581  1.0000
  C   C2067     1.0  0.61711  0.94249  0.58127  1.0000
  C   C2068     1.0  0.62158  0.91963  0.58286  1.0000
  C   C2069     1.0  0.60664  0.90460  0.58900  1.0000
  C   C2070     1.0  0.70809  0.78997  0.69939  1.0000
  C   C2071     1.0  0.54903  0.86482  0.70115  1.0000
  S   S289      1.0  0.51249  0.86761  0.97295  1.0000
  H   H1643     1.0  0.53190  0.97504  0.62611  1.0000
  H   H1644     1.0  0.73079  0.87823  0.98648  1.0000
  C   C2072     1.0  0.53619  0.87787  0.71496  1.0000
  H   H1645     1.0  0.73269  0.98505  0.95597  1.0000
  H   H1646     1.0  0.63672  0.91362  0.57977  1.0000
  C   C2073     1.0  0.72117  0.87491  0.72055  1.0000
  C   C2074     1.0  0.72433  0.89129  0.97546  1.0000
  P   P67       1.0  0.53734  0.97787  0.96421  1.0000
  C   C2075     1.0  0.49360  0.80701  0.72476  1.0000
  C   C2076     1.0  0.52900  0.89537  0.56497  1.0000
  C   C2077     1.0  0.55235  0.97115  0.58278  1.0000
  C   C2078     1.0  0.49856  0.82910  0.72928  1.0000
  H   H1647     1.0  0.69618  0.92317  0.73334  1.0000
  P   P68       1.0  0.50958  0.87269  0.71621  1.0000
  C   C2079     1.0  0.70401  0.88931  0.60619  1.0000
  H   H1648     1.0  0.55541  0.91466  0.55963  1.0000
  H   H1649     1.0  0.53194  0.55933  0.54152  1.0000
  H   H1650     1.0  0.57077  0.91412  0.73480  1.0000
  C   C2080     1.0  0.56504  0.94013  0.66884  1.0000
  H   H1651     1.0  0.58079  0.89038  0.85029  1.0000
  H   H1652     1.0  0.72593  0.88323  0.82131  1.0000
  C   C2081     1.0  0.73546  0.91023  0.96982  1.0000
  H   H1653     1.0  0.70270  0.80200  0.81196  1.0000
  C   C2082     1.0  0.60780  0.87228  0.85928  1.0000
  C   C2083     1.0  0.66124  0.98682  0.60426  1.0000
  C   C2084     1.0  0.54142  0.96540  0.63786  1.0000
  H   H1654     1.0  0.50718  0.95534  0.93650  1.0000
  H   H1655     1.0  0.51983  0.92979  0.62020  1.0000
  C   C2085     1.0  0.58722  0.91240  0.59353  1.0000
  C   C2086     1.0  0.55543  0.94980  0.62929  1.0000
  H   H1656     1.0  0.62884  0.95411  0.57684  1.0000
  H   H1657     1.0  0.56293  0.96301  0.88558  1.0000
  C   C2087     1.0  0.53864  0.98265  0.93327  1.0000
  C   C2088     1.0  0.72640  0.82040  0.72847  1.0000
  C   C2089     1.0  0.73726  0.80194  0.72003  1.0000
  H   H1658     1.0  0.52919  0.99162  0.53407  1.0000
  C   C2090     1.0  0.56718  0.93716  0.64498  1.0000
  H   H1659     1.0  0.59042  0.92312  0.98699  1.0000
  H   H1660     1.0  0.73327  0.84308  0.59943  1.0000
  C   C2091     1.0  0.49754  0.88970  0.69386  1.0000
  H   H1661     1.0  0.53460  0.90650  0.73731  1.0000
  H   H1662     1.0  0.61016  0.88689  0.59088  1.0000
  C   C2092     1.0  0.50240  0.88172  0.78592  1.0000
  C   C2093     1.0  0.72665  0.92700  0.95543  1.0000
  H   H1663     1.0  0.57912  0.85974  0.68843  1.0000
  H   H1664     1.0  0.69971  0.85422  0.61272  1.0000
  C   C2094     1.0  0.67725  0.80317  0.85722  1.0000
  C   C2095     1.0  0.66288  0.78708  0.85324  1.0000
  C   C2096     1.0  0.64672  0.79222  0.83875  1.0000
  C   C2097     1.0  0.64496  0.81341  0.82816  1.0000
  C   C2098     1.0  0.65953  0.82953  0.83168  1.0000
  C   C2099     1.0  0.67557  0.82436  0.84657  1.0000
  P   P69       1.0  0.65638  0.85712  0.81865  1.0000
  C   C2100     1.0  0.65822  0.85680  0.78738  1.0000
  C   C2101     1.0  0.63213  0.86734  0.82819  1.0000
  C   C2102     1.0  0.61886  0.87827  0.81276  1.0000
  C   C2103     1.0  0.60031  0.88632  0.82066  1.0000
  C   C2104     1.0  0.59487  0.88353  0.84395  1.0000
  C   C2105     1.0  0.62636  0.86423  0.85149  1.0000
  C   C2106     1.0  0.65958  0.87712  0.77490  1.0000
  C   C2107     1.0  0.66049  0.87744  0.75069  1.0000
  C   C2108     1.0  0.66038  0.85744  0.73874  1.0000
  C   C2109     1.0  0.65939  0.83708  0.75103  1.0000
  C   C2110     1.0  0.65842  0.83670  0.77526  1.0000
  C   C2111     1.0  0.67587  0.87510  0.82834  1.0000
  C   C2112     1.0  0.67176  0.89212  0.84407  1.0000
  C   C2113     1.0  0.68708  0.90565  0.85165  1.0000
  C   C2114     1.0  0.72239  0.53005  0.55754  1.0000
  H   H1665     1.0  0.72484  0.87556  0.77927  1.0000
  C   C2115     1.0  0.69550  0.87202  0.82008  1.0000
  H   H1666     1.0  0.68948  0.79933  0.86893  1.0000
  H   H1667     1.0  0.66407  0.77075  0.86171  1.0000
  H   H1668     1.0  0.63536  0.77989  0.83602  1.0000
  H   H1669     1.0  0.63209  0.81735  0.81740  1.0000
  H   H1670     1.0  0.68658  0.83669  0.85043  1.0000
  H   H1671     1.0  0.62278  0.88102  0.79474  1.0000
  H   H1672     1.0  0.59037  0.89526  0.80882  1.0000
  H   H1673     1.0  0.65951  0.89279  0.78392  1.0000
  H   H1674     1.0  0.66095  0.89323  0.74112  1.0000
  H   H1675     1.0  0.66106  0.85777  0.71994  1.0000
  H   H1676     1.0  0.65924  0.82160  0.74167  1.0000
  H   H1677     1.0  0.65772  0.82073  0.78428  1.0000
  H   H1678     1.0  0.65672  0.89547  0.85016  1.0000
  H   H1679     1.0  0.68360  0.91904  0.86348  1.0000
  C   C2116     1.0  0.56940  0.86954  0.69957  1.0000
  H   H1680     1.0  0.69888  0.85915  0.80772  1.0000
  H   H1681     1.0  0.55647  0.93399  0.97481  1.0000
  H   H1682     1.0  0.71937  0.99213  0.91678  1.0000
  H   H1683     1.0  0.70586  0.90014  0.69979  1.0000
  C   C2117     1.0  0.73635  0.89952  0.59063  1.0000
  C   C2118     1.0  0.50093  0.81339  0.68409  1.0000
  H   H1684     1.0  0.52746  0.49882  0.51357  1.0000
  H   H1685     1.0  0.68928  0.89407  0.61252  1.0000
  C   C2119     1.0  0.71719  0.90567  0.59833  1.0000
  C   C2120     1.0  0.55160  0.96952  0.91976  1.0000
  H   H1686     1.0  0.57411  0.93015  0.68082  1.0000
  C   C2121     1.0  0.57718  0.88722  0.71178  1.0000
  H   H1687     1.0  0.70787  0.81265  0.77093  1.0000
  C   C2122     1.0  0.56459  0.90034  0.72549  1.0000
  C   C2123     1.0  0.55129  0.95585  0.67721  1.0000
  C   C2124     1.0  0.54416  0.89581  0.72698  1.0000
  C   C2125     1.0  0.51997  0.95583  0.97090  1.0000
  H   H1688     1.0  0.72710  0.86570  0.87351  1.0000
  C   C2126     1.0  0.53096  0.55682  0.52305  1.0000
  C   C2127     1.0  0.51054  0.87646  0.76430  1.0000
  C   C2128     1.0  0.54120  0.97142  0.56226  1.0000
  H   H1689     1.0  0.70445  0.58345  0.56202  1.0000
  C   C2129     1.0  0.72099  0.88070  0.76184  1.0000
  H   H1690     1.0  0.57599  0.90046  0.59877  1.0000
  H   H1691     1.0  0.71252  0.92312  0.59830  1.0000
  H   H1692     1.0  0.68191  0.81127  0.70213  1.0000
  C   C2130     1.0  0.72638  0.86744  0.74292  1.0000
  H   H1693     1.0  0.50162  0.80754  0.66643  1.0000
  C   C2131     1.0  0.71018  0.90075  0.75841  1.0000
  C   C2132     1.0  0.50472  0.84353  0.71115  1.0000
  C   C2133     1.0  0.70478  0.90780  0.73604  1.0000
  C   C2134     1.0  0.50895  0.90423  0.59864  1.0000
  H   H1694     1.0  0.70574  0.91073  0.77308  1.0000
  H   H1695     1.0  0.49726  0.83483  0.74685  1.0000
  C   C2135     1.0  0.51231  0.89144  0.57904  1.0000
  H   H1696     1.0  0.56876  0.99142  0.60645  1.0000
  H   H1697     1.0  0.69342  0.54417  0.56599  1.0000
  H   H1698     1.0  0.73960  0.59148  0.55140  1.0000
  H   H1699     1.0  0.67135  0.92800  0.98993  1.0000
  C   C2136     1.0  0.60474  0.49820  0.92432  1.0000
  H   H1700     1.0  0.51131  0.87935  0.80142  1.0000
  C   C2137     1.0  0.50477  0.91101  0.68799  1.0000
  H   H1701     1.0  0.64551  0.98560  0.99129  1.0000
  C   C2138     1.0  0.68979  0.95636  0.99619  1.0000
  C   C2139     1.0  0.49926  0.88002  0.74408  1.0000
  H   H1702     1.0  0.61620  0.95192  0.99146  1.0000
  C   C2140     1.0  0.50700  0.94825  0.95389  1.0000
  H   H1703     1.0  0.50151  0.94021  0.66568  1.0000
  C   C2141     1.0  0.73480  0.57432  0.55342  1.0000
  C   C2142     1.0  0.51895  0.57115  0.50945  1.0000
  H   H1704     1.0  0.62931  0.98884  0.60063  1.0000
  H   H1705     1.0  0.52877  0.98067  0.66823  1.0000
  H   H1706     1.0  0.51047  0.58462  0.51732  1.0000
  H   H1707     1.0  0.49750  0.84085  0.81342  1.0000
  C   C2143     1.0  0.53946  0.96849  0.66173  1.0000
  H   H1708     1.0  0.71740  0.58627  0.50535  1.0000
  H   H1709     1.0  0.74171  0.87091  0.53933  1.0000
  C   C2144     1.0  0.71826  0.81834  0.78372  1.0000
  C   C2145     1.0  0.74262  0.86207  0.87764  1.0000
  C   C2146     1.0  0.51970  0.94562  0.99308  1.0000
  S   S290      1.0  0.49733  0.85179  0.62749  1.0000
  H   H1710     1.0  0.69327  0.98999  0.60377  1.0000
  C   C2147     1.0  0.49392  0.93087  0.95908  1.0000
  H   H1711     1.0  0.49478  0.83047  0.85516  1.0000
  C   C2148     1.0  0.72812  0.78681  0.70555  1.0000
  H   H1712     1.0  0.54244  0.99317  0.86667  1.0000
  C   C2149     1.0  0.72823  0.81977  0.82393  1.0000
  H   H1713     1.0  0.72586  0.81511  0.84197  1.0000
  C   C2150     1.0  0.73454  0.83157  0.77711  1.0000
  C   C2151     1.0  0.49468  0.79919  0.70214  1.0000
  P   P70       1.0  0.73811  0.84011  0.74715  1.0000
  C   C2152     1.0  0.49560  0.92403  0.67048  1.0000
  C   C2153     1.0  0.74228  0.53453  0.55134  1.0000
  C   C2154     1.0  0.50642  0.92843  0.99824  1.0000
  H   H1714     1.0  0.83895  0.17046  0.26896  1.0000
  Fe  Fe145     1.0  0.85147  0.06819  0.41253  1.0000
  S   S291      1.0  0.85100  0.03745  0.39067  1.0000
  S   S292      1.0  0.82294  0.08661  0.42610  1.0000
  Fe  Fe146     1.0  0.89751  0.07405  0.40290  1.0000
  S   S293      1.0  0.89941  0.04360  0.38076  1.0000
  S   S294      1.0  0.92469  0.09686  0.40274  1.0000
  Fe  Fe147     1.0  0.87046  0.05596  0.36437  1.0000
  S   S295      1.0  0.86407  0.06648  0.32612  1.0000
  Fe  Fe148     1.0  0.88013  0.02764  0.40866  1.0000
  S   S296      1.0  0.86952  0.08709  0.38557  1.0000
  S   S297      1.0  0.87965  0.05780  0.43166  1.0000
  Fe  Fe149     1.0  0.88651  0.08738  0.14747  1.0000
  S   S298      1.0  0.88616  0.04977  0.15261  1.0000
  S   S299      1.0  0.91254  0.11109  0.13676  1.0000
  Fe  Fe150     1.0  0.84038  0.09127  0.15807  1.0000
  S   S300      1.0  0.83771  0.05408  0.16424  1.0000
  S   S301      1.0  0.81611  0.11838  0.16506  1.0000
  Fe  Fe151     1.0  0.86663  0.05638  0.18424  1.0000
  S   S302      1.0  0.87231  0.03805  0.21938  1.0000
  Fe  Fe152     1.0  0.85720  0.05004  0.13247  1.0000
  S   S303      1.0  0.84962  0.02856  0.10080  1.0000
  S   S304      1.0  0.86822  0.09354  0.17980  1.0000
  S   S305      1.0  0.85860  0.08748  0.12540  1.0000
  C   C2155     1.0  0.98107  0.12586  0.13487  1.0000
  C   C2156     1.0  0.96705  0.14018  0.12393  1.0000
  C   C2157     1.0  0.94635  0.13534  0.12471  1.0000
  C   C2158     1.0  0.93912  0.11595  0.13614  1.0000
  C   C2159     1.0  0.95315  0.10150  0.14690  1.0000
  C   C2160     1.0  0.97383  0.10653  0.14645  1.0000
  H   H1715     1.0  0.91900  0.01288  0.45703  1.0000
  H   H1716     1.0  0.93582  0.14672  0.11626  1.0000
  H   H1717     1.0  0.94805  0.08653  0.15577  1.0000
  H   H1718     1.0  0.76713  0.05939  0.14428  1.0000
  C   C2161     1.0  0.87100  0.04679  0.24892  1.0000
  C   C2162     1.0  0.87538  0.03111  0.26686  1.0000
  C   C2163     1.0  0.87376  0.03684  0.29047  1.0000
  C   C2164     1.0  0.86752  0.05840  0.29659  1.0000
  C   C2165     1.0  0.86343  0.07419  0.27863  1.0000
  C   C2166     1.0  0.86534  0.06854  0.25503  1.0000
  H   H1719     1.0  0.87987  0.01426  0.26248  1.0000
  H   H1720     1.0  0.87699  0.02446  0.30393  1.0000
  H   H1721     1.0  0.85872  0.09096  0.28302  1.0000
  H   H1722     1.0  0.86213  0.08093  0.24160  1.0000
  C   C2167     1.0  0.77463  0.11107  0.32934  1.0000
  C   C2168     1.0  0.90212  0.01734  0.48801  1.0000
  H   H1723     1.0  0.84216  0.01014  0.05618  1.0000
  C   C2169     1.0  0.97326  0.28499  0.48588  1.0000
  H   H1724     1.0  0.91970  0.20654  0.46244  1.0000
  C   C2170     1.0  0.97742  0.10396  0.45308  1.0000
  C   C2171     1.0  0.96008  0.09274  0.46033  1.0000
  C   C2172     1.0  0.94402  0.08977  0.44506  1.0000
  C   C2173     1.0  0.94486  0.09867  0.42247  1.0000
  C   C2174     1.0  0.96212  0.11006  0.41528  1.0000
  C   C2175     1.0  0.97834  0.11266  0.43042  1.0000
  H   H1725     1.0  0.95895  0.08658  0.47799  1.0000
  H   H1726     1.0  0.93082  0.08107  0.45089  1.0000
  H   H1727     1.0  0.96299  0.11668  0.39775  1.0000
  H   H1728     1.0  0.76726  0.37499  0.03472  1.0000
  C   C2176     1.0  0.77065  0.07900  0.47945  1.0000
  C   C2177     1.0  0.78553  0.06209  0.47756  1.0000
  C   C2178     1.0  0.80153  0.06399  0.46144  1.0000
  C   C2179     1.0  0.80309  0.08303  0.44698  1.0000
  C   C2180     1.0  0.78825  0.09998  0.44894  1.0000
  C   C2181     1.0  0.77213  0.09796  0.46488  1.0000
  H   H1729     1.0  0.80433  0.09678  0.33272  1.0000
  H   H1730     1.0  0.81270  0.05077  0.46026  1.0000
  H   H1731     1.0  0.78923  0.11484  0.43801  1.0000
  C   C2182     1.0  0.82500  0.06625  0.22267  1.0000
  C   C2183     1.0  0.83168  0.17096  0.23267  1.0000
  C   C2184     1.0  0.76030  0.14671  0.15613  1.0000
  C   C2185     1.0  0.78049  0.14268  0.16230  1.0000
  C   C2186     1.0  0.79073  0.12284  0.15612  1.0000
  C   C2187     1.0  0.78043  0.10715  0.14344  1.0000
  C   C2188     1.0  0.76020  0.11114  0.13737  1.0000
  H   H1732     1.0  0.95615  0.25700  0.47527  1.0000
  H   H1733     1.0  0.78827  0.15517  0.17177  1.0000
  H   H1734     1.0  0.78811  0.09202  0.13826  1.0000
  H   H1735     1.0  0.76675  0.15590  0.41910  1.0000
  C   C2189     1.0  0.76011  0.11944  0.31398  1.0000
  C   C2190     1.0  0.76841  0.34895  0.12988  1.0000
  C   C2191     1.0  0.74616  0.05062  0.10390  1.0000
  H   H1736     1.0  0.78759  0.05194  0.35189  1.0000
  C   C2192     1.0  0.97788  0.14816  0.24268  1.0000
  C   C2193     1.0  0.81685  0.14599  0.26138  1.0000
  C   C2194     1.0  0.78323  0.34827  0.16823  1.0000
  H   H1737     1.0  0.96920  0.46425  0.03186  1.0000
  H   H1738     1.0  0.75351  0.05413  0.33510  1.0000
  C   C2195     1.0  0.90408  0.13434  0.44531  1.0000
  C   C2196     1.0  0.99308  0.27865  0.05362  1.0000
  H   H1739     1.0  0.82681  0.03102  0.23067  1.0000
  H   H1740     1.0  0.74578  0.12527  0.32056  1.0000
  H   H1741     1.0  0.97211  0.15514  0.11502  1.0000
  H   H1742     1.0  0.75251  0.12672  0.27860  1.0000
  H   H1743     1.0  0.99074  0.36466  0.07579  1.0000
  C   C2197     1.0  0.75351  0.00858  0.01191  1.0000
  C   C2198     1.0  0.94522  0.21222  0.43992  1.0000
  H   H1744     1.0  0.76577  0.08322  0.41331  1.0000
  H   H1745     1.0  0.94310  0.28739  0.02123  1.0000
  C   C2199     1.0  0.77537  0.05965  0.36144  1.0000
  H   H1746     1.0  0.96875  0.22367  0.41678  1.0000
  H   H1747     1.0  0.79616  0.00514  0.07492  1.0000
  H   H1748     1.0  0.80685  0.05811  0.11133  1.0000
  H   H1749     1.0  0.79857  0.13693  0.20757  1.0000
  H   H1750     1.0  0.89426  0.15167  0.41432  1.0000
  C   C2200     1.0  0.79349  0.06775  0.25448  1.0000
  C   C2201     1.0  0.77874  0.06788  0.38348  1.0000
  C   C2202     1.0  0.93534  0.16504  0.44555  1.0000
  H   H1751     1.0  0.78465  0.04733  0.48866  1.0000
  H   H1752     1.0  0.78247  0.05279  0.18251  1.0000
  P   P71       1.0  0.74690  0.34520  0.11175  1.0000
  H   H1753     1.0  0.78287  0.02043  0.02009  1.0000
  C   C2203     1.0  0.92210  0.31306  0.01111  1.0000
  C   C2204     1.0  0.92060  0.16649  0.42833  1.0000
  C   C2205     1.0  0.91988  0.01396  0.47562  1.0000
  C   C2206     1.0  0.96123  0.26645  0.48979  1.0000
  H   H1754     1.0  0.83082  0.07798  0.08647  1.0000
  C   C2207     1.0  0.76404  0.12036  0.29013  1.0000
  C   C2208     1.0  0.91912  0.23988  0.44780  1.0000
  C   C2209     1.0  0.81562  0.08665  0.22737  1.0000
  H   H1755     1.0  0.84981  0.00657  0.46869  1.0000
  H   H1756     1.0  0.97400  0.06344  0.40845  1.0000
  C   C2210     1.0  0.80104  0.00704  0.15524  1.0000
  C   C2211     1.0  0.90516  0.15108  0.42812  1.0000
  H   H1757     1.0  0.76863  0.08713  0.21533  1.0000
  C   C2212     1.0  0.95929  0.01899  0.44207  1.0000
  H   H1758     1.0  0.80418  0.01934  0.18976  1.0000
  C   C2213     1.0  0.80381  0.05986  0.09298  1.0000
  C   C2214     1.0  0.91837  0.13309  0.46281  1.0000
  C   C2215     1.0  0.82027  0.16145  0.21544  1.0000
  H   H1759     1.0  0.97831  0.04743  0.44758  1.0000
  C   C2216     1.0  0.79703  0.10427  0.29705  1.0000
  H   H1760     1.0  0.94108  0.45415  0.05765  1.0000
  H   H1761     1.0  0.77084  0.04551  0.05141  1.0000
  C   C2217     1.0  0.78488  0.04078  0.16896  1.0000
  H   H1762     1.0  0.90521  0.24447  0.45635  1.0000
  C   C2218     1.0  0.77436  0.00682  0.01343  1.0000
  C   C2219     1.0  0.95430  0.46349  0.02475  1.0000
  C   C2220     1.0  0.75619  0.06100  0.35197  1.0000
  H   H1763     1.0  0.92231  0.27200  0.43064  1.0000
  C   C2221     1.0  0.82999  0.16321  0.25562  1.0000
  H   H1764     1.0  0.74524  0.38478  0.14171  1.0000
  P   P72       1.0  0.95575  0.18452  0.44469  1.0000
  C   C2222     1.0  0.81890  0.04663  0.23393  1.0000
  H   H1765     1.0  0.97753  0.28984  0.46836  1.0000
  C   C2223     1.0  0.79251  0.01075  0.13341  1.0000
  H   H1766     1.0  0.91771  0.11983  0.47588  1.0000
  C   C2224     1.0  0.78264  0.11300  0.28148  1.0000
  C   C2225     1.0  0.81442  0.07339  0.05505  1.0000
  C   C2226     1.0  0.78656  0.35644  0.12046  1.0000
  H   H1767     1.0  0.78125  0.06804  0.26684  1.0000
  C   C2227     1.0  0.74824  0.12778  0.41217  1.0000
  H   H1768     1.0  0.76222  0.30065  0.12482  1.0000
  P   P73       1.0  0.76939  0.03482  0.10085  1.0000
  H   H1769     1.0  0.92131  0.17919  0.41470  1.0000
  C   C2228     1.0  0.75509  0.34249  0.08199  1.0000
  H   H1770     1.0  0.74591  0.26655  0.14000  1.0000
  H   H1771     1.0  0.82526  0.08204  0.04427  1.0000
  C   C2229     1.0  0.84199  0.00126  0.09257  1.0000
  C   C2230     1.0  0.80708  0.14435  0.22118  1.0000
  C   C2231     1.0  0.79755  0.06416  0.04519  1.0000
  H   H1772     1.0  0.79832  0.03211  0.25849  1.0000
  C   C2232     1.0  0.96910  0.03874  0.43553  1.0000
  C   C2233     1.0  0.92204  0.04883  0.19718  1.0000
  C   C2234     1.0  0.94150  0.04174  0.19191  1.0000
  C   C2235     1.0  0.95764  0.05474  0.19807  1.0000
  C   C2236     1.0  0.95430  0.07485  0.20945  1.0000
  C   C2237     1.0  0.93469  0.08255  0.21394  1.0000
  C   C2238     1.0  0.91858  0.06925  0.20792  1.0000
  P   P74       1.0  0.93020  0.10775  0.22993  1.0000
  C   C2239     1.0  0.92498  0.10045  0.26000  1.0000
  C   C2240     1.0  0.95183  0.12547  0.22648  1.0000
  C   C2241     1.0  0.96092  0.13501  0.24568  1.0000
  C   C2242     1.0  0.97904  0.04211  0.49444  1.0000
  C   C2243     1.0  0.92732  0.21839  0.45113  1.0000
  H   H1773     1.0  0.78191  0.34515  0.18673  1.0000
  C   C2244     1.0  0.96039  0.12895  0.20440  1.0000
  C   C2245     1.0  0.92462  0.07796  0.26758  1.0000
  C   C2246     1.0  0.91846  0.07239  0.29015  1.0000
  C   C2247     1.0  0.91267  0.08914  0.30538  1.0000
  C   C2248     1.0  0.91313  0.11154  0.29809  1.0000
  C   C2249     1.0  0.91917  0.11720  0.27549  1.0000
  C   C2250     1.0  0.90834  0.12211  0.21794  1.0000
  C   C2251     1.0  0.90930  0.13331  0.19630  1.0000
  C   C2252     1.0  0.89244  0.14440  0.18718  1.0000
  C   C2253     1.0  0.87438  0.14433  0.19945  1.0000
  C   C2254     1.0  0.87308  0.13278  0.22070  1.0000
  C   C2255     1.0  0.88989  0.12155  0.22980  1.0000
  H   H1774     1.0  0.90959  0.03837  0.19311  1.0000
  H   H1775     1.0  0.94403  0.02607  0.18324  1.0000
  H   H1776     1.0  0.97275  0.04917  0.19413  1.0000
  H   H1777     1.0  0.96706  0.08425  0.21470  1.0000
  H   H1778     1.0  0.90336  0.07437  0.21198  1.0000
  H   H1779     1.0  0.95523  0.13217  0.26301  1.0000
  C   C2256     1.0  0.79305  0.10339  0.32085  1.0000
  H   H1780     1.0  0.79352  0.06647  0.39113  1.0000
  H   H1781     1.0  0.84198  0.18414  0.22816  1.0000
  H   H1782     1.0  0.95430  0.12111  0.18941  1.0000
  H   H1783     1.0  0.92845  0.06454  0.25602  1.0000
  H   H1784     1.0  0.91752  0.05499  0.29566  1.0000
  H   H1785     1.0  0.90736  0.08468  0.32266  1.0000
  H   H1786     1.0  0.90827  0.12442  0.30986  1.0000
  H   H1787     1.0  0.91868  0.13458  0.26981  1.0000
  H   H1788     1.0  0.92273  0.13301  0.18588  1.0000
  H   H1789     1.0  0.89324  0.15224  0.17007  1.0000
  H   H1790     1.0  0.86117  0.15218  0.19187  1.0000
  H   H1791     1.0  0.85885  0.13170  0.22965  1.0000
  H   H1792     1.0  0.88817  0.11198  0.24578  1.0000
  C   C2257     1.0  0.80295  0.35961  0.13483  1.0000
  C   C2258     1.0  0.80130  0.35550  0.15869  1.0000
  C   C2259     1.0  0.80525  0.13643  0.24415  1.0000
  C   C2260     1.0  0.74471  0.10760  0.20175  1.0000
  C   C2261     1.0  0.95489  0.22793  0.42553  1.0000
  C   C2262     1.0  0.96678  0.04793  0.41320  1.0000
  H   H1793     1.0  0.94508  0.14641  0.47635  1.0000
  C   C2263     1.0  0.80299  0.04733  0.24969  1.0000
  H   H1794     1.0  0.95410  0.26143  0.41098  1.0000
  C   C2264     1.0  0.78687  0.05043  0.08320  1.0000
  C   C2265     1.0  0.97333  0.17780  0.42180  1.0000
  C   C2266     1.0  0.98145  0.02027  0.48645  1.0000
  P   P75       1.0  0.98328  0.30747  0.01622  1.0000
  H   H1795     1.0  0.76098  0.11120  0.46608  1.0000
  C   C2267     1.0  0.76770  0.33900  0.03565  1.0000
  C   C2268     1.0  0.91901  0.45682  0.03072  1.0000
  C   C2269     1.0  0.78384  0.05267  0.05920  1.0000
  C   C2270     1.0  0.74993  0.13093  0.14361  1.0000
  H   H1796     1.0  0.89244  0.12200  0.44472  1.0000
  H   H1797     1.0  0.81695  0.36527  0.12743  1.0000
  H   H1798     1.0  0.75636  0.37826  0.07540  1.0000
  H   H1799     1.0  0.82083  0.10150  0.21834  1.0000
  H   H1800     1.0  0.75483  0.30625  0.08188  1.0000
  C   C2271     1.0  0.76499  0.36003  0.04531  1.0000
  C   C2272     1.0  0.75870  0.36179  0.06836  1.0000
  H   H1801     1.0  0.96182  0.21751  0.48143  1.0000
  H   H1802     1.0  0.81402  0.35795  0.16980  1.0000
  C   C2273     1.0  0.76301  0.07767  0.39592  1.0000
  P   P76       1.0  0.96133  0.00739  0.47124  1.0000
  P   P77       1.0  0.78825  0.11398  0.25075  1.0000
  H   H1803     1.0  0.79620  0.99925  0.11978  1.0000
  C   C2274     1.0  0.81751  0.07126  0.07890  1.0000
  C   C2275     1.0  0.93827  0.01215  0.48716  1.0000
  C   C2276     1.0  0.77987  0.02940  0.12927  1.0000
  C   C2277     1.0  0.76429  0.31972  0.04910  1.0000
  C   C2278     1.0  0.94665  0.24943  0.42224  1.0000
  C   C2279     1.0  0.75357  0.14676  0.42422  1.0000
  H   H1804     1.0  0.93541  0.00984  0.39124  1.0000
  H   H1805     1.0  0.76104  0.15244  0.24480  1.0000
  H   H1806     1.0  0.95215  0.04530  0.38030  1.0000
  H   H1807     1.0  0.98433  0.09523  0.15504  1.0000
  C   C2280     1.0  0.76064  0.10291  0.21679  1.0000
  C   C2281     1.0  0.83944  0.99693  0.06886  1.0000
  H   H1808     1.0  0.82173  0.16704  0.19751  1.0000
  C   C2282     1.0  0.97646  0.26172  0.02146  1.0000
  C   C2283     1.0  0.98812  0.23865  0.05384  1.0000
  H   H1809     1.0  0.79523  0.06582  0.02669  1.0000
  H   H1810     1.0  0.81591  0.14026  0.27923  1.0000
  H   H1811     1.0  0.75313  0.07627  0.07798  1.0000
  C   C2284     1.0  0.76647  0.11883  0.23281  1.0000
  H   H1812     1.0  0.83756  0.06582  0.21087  1.0000
  C   C2285     1.0  0.94502  0.01781  0.40349  1.0000
  C   C2286     1.0  0.75806  0.32141  0.07219  1.0000
  C   C2287     1.0  0.94745  0.00847  0.42571  1.0000
  C   C2288     1.0  0.78150  0.99770  0.07564  1.0000
  C   C2289     1.0  0.96948  0.18371  0.47157  1.0000
  C   C2290     1.0  0.93403  0.14823  0.46288  1.0000
  C   C2291     1.0  0.92875  0.25539  0.43332  1.0000
  C   C2292     1.0  0.80010  0.08764  0.24378  1.0000
  H   H1813     1.0  0.77163  0.11043  0.34782  1.0000
  C   C2293     1.0  0.98368  0.28090  0.03196  1.0000
  H   H1814     1.0  0.95271  0.15878  0.40155  1.0000
  H   H1815     1.0  0.97324  0.22593  0.02415  1.0000
  C   C2294     1.0  0.95453  0.03766  0.39729  1.0000
  C   C2295     1.0  0.93837  0.45787  0.03948  1.0000
  C   C2296     1.0  0.79715  0.02197  0.17304  1.0000
  H   H1816     1.0  0.81144  0.09821  0.29080  1.0000
  C   C2297     1.0  0.76543  0.00856  0.08678  1.0000
  C   C2298     1.0  0.76681  0.34507  0.15390  1.0000
  C   C2299     1.0  0.97735  0.14200  0.20146  1.0000
  C   C2300     1.0  0.98084  0.16458  0.47762  1.0000
  H   H1817     1.0  0.90669  0.45221  0.04202  1.0000
  C   C2301     1.0  0.74685  0.99803  0.08808  1.0000
  H   H1818     1.0  0.75277  0.16205  0.16104  1.0000
  H   H1819     1.0  0.96756  0.35164  0.00231  1.0000
  H   H1820     1.0  0.77206  0.33767  0.01762  1.0000
  H   H1821     1.0  0.96500  0.05106  0.49203  1.0000
  H   H1822     1.0  0.78819  0.35978  0.10205  1.0000
  H   H1823     1.0  0.75719  0.12293  0.39739  1.0000
  H   H1824     1.0  0.98101  0.15024  0.46654  1.0000
  C   C2302     1.0  0.77627  0.04450  0.14718  1.0000
  C   C2303     1.0  0.91553  0.46164  0.00730  1.0000
  H   H1825     1.0  0.75284  0.33960  0.16156  1.0000
  C   C2304     1.0  0.98736  0.34057  0.04899  1.0000
  C   C2305     1.0  0.97011  0.20241  0.48580  1.0000
  H   H1826     1.0  0.99037  0.22232  0.06209  1.0000
  H   H1827     1.0  0.76583  0.30344  0.04142  1.0000
  C   C2306     1.0  0.74620  0.30083  0.12758  1.0000
  H   H1828     1.0  0.97132  0.33988  0.05131  1.0000
  C   C2307     1.0  0.96767  0.16511  0.40287  1.0000
  H   H1829     1.0  0.88808  0.01873  0.47875  1.0000
  H   H1830     1.0  0.90931  0.30240  0.01362  1.0000
  H   H1831     1.0  0.75247  0.09880  0.12773  1.0000
  C   C2308     1.0  0.95806  0.31820  0.01183  1.0000
  C   C2309     1.0  0.75632  0.13959  0.23324  1.0000
  H   H1832     1.0  0.74594  0.16865  0.45220  1.0000
  C   C2310     1.0  0.97859  0.24072  0.03243  1.0000
  H   H1833     1.0  0.97722  0.14941  0.37136  1.0000
  C   C2311     1.0  0.98604  0.15174  0.22057  1.0000
  H   H1834     1.0  0.98477  0.15552  0.25753  1.0000
  H   H1835     1.0  0.98382  0.14439  0.18427  1.0000
  C   C2312     1.0  0.98160  0.15967  0.38561  1.0000
  C   C2313     1.0  0.91926  0.33523  0.00353  1.0000
  C   C2314     1.0  0.95499  0.34064  0.00476  1.0000
  C   C2315     1.0  0.94140  0.30455  0.01530  1.0000
  H   H1836     1.0  0.74611  0.02374  0.01752  1.0000
  H   H1837     1.0  0.99152  0.12138  0.42456  1.0000
  C   C2316     1.0  0.95100  0.46786  0.00105  1.0000
  C   C2317     1.0  0.99227  0.16389  0.49777  1.0000
  H   H1838     1.0  0.96969  0.26293  0.00448  1.0000
  H   H1839     1.0  0.82183  0.01354  0.49626  1.0000
  C   C2318     1.0  0.82981  0.99757  0.49673  1.0000
  S   S306      1.0  0.88565  0.99566  0.43075  1.0000
  C   C2319     1.0  0.99308  0.18526  0.42294  1.0000
  H   H1840     1.0  0.90053  0.46098  0.00034  1.0000
  C   C2320     1.0  0.74391  0.08005  0.38614  1.0000
  H   H1841     1.0  0.90433  0.34173  1.00000  1.0000
  C   C2321     1.0  0.93570  0.34903  0.00044  1.0000
  Fe  Fe153     1.0  0.88447  0.45913  0.92667  1.0000
  S   S307      1.0  0.88631  0.42526  0.94458  1.0000
  Fe  Fe154     1.0  0.87159  0.43864  0.88039  1.0000
  S   S308      1.0  0.87264  0.40386  0.89597  1.0000
  S   S309      1.0  0.86087  0.44693  0.84305  1.0000
  Fe  Fe155     1.0  0.85688  0.41834  0.92724  1.0000
  S   S310      1.0  0.83283  0.39885  0.94810  1.0000
  Fe  Fe156     1.0  0.90169  0.41381  0.91216  1.0000
  S   S311      1.0  0.93025  0.39274  0.90693  1.0000
  S   S312      1.0  0.85427  0.45284  0.91097  1.0000
  S   S313      1.0  0.90139  0.44799  0.89515  1.0000
  Fe  Fe157     1.0  0.84496  0.39634  0.66632  1.0000
  S   S314      1.0  0.84316  0.42849  0.68593  1.0000
  S   S315      1.0  0.82020  0.36968  0.66982  1.0000
  Fe  Fe158     1.0  0.89035  0.40357  0.65347  1.0000
  S   S316      1.0  0.89052  0.43633  0.67231  1.0000
  S   S317      1.0  0.91712  0.38831  0.63231  1.0000
  Fe  Fe159     1.0  0.87313  0.41883  0.70112  1.0000
  S   S318      1.0  0.88257  0.41528  0.73967  1.0000
  Fe  Fe160     1.0  0.86042  0.44387  0.65554  1.0000
  S   S319      1.0  0.85083  0.47961  0.64254  1.0000
  S   S320      1.0  0.87438  0.38592  0.68278  1.0000
  S   S321      1.0  0.86086  0.41197  0.63529  1.0000
  H   H1842     1.0  0.82332  0.41992  0.74595  1.0000
  C   C2322     1.0  0.99111  0.31734  0.96929  1.0000
  H   H1843     1.0  0.81402  0.43280  0.78518  1.0000
  H   H1844     1.0  0.99317  0.06991  0.51035  1.0000
  H   H1845     1.0  0.98857  0.31208  0.50103  1.0000
  H   H1846     1.0  0.85663  0.47146  0.59238  1.0000
  H   H1847     1.0  0.87192  0.35162  0.74454  1.0000
  C   C2323     1.0  0.96992  0.44037  0.92173  1.0000
  C   C2324     1.0  0.94256  0.37762  0.63436  1.0000
  C   C2325     1.0  0.95270  0.37434  0.65542  1.0000
  C   C2326     1.0  0.97249  0.36518  0.65585  1.0000
  C   C2327     1.0  0.98262  0.35901  0.63533  1.0000
  C   C2328     1.0  0.97252  0.36252  0.61434  1.0000
  C   C2329     1.0  0.95283  0.37173  0.61389  1.0000
  H   H1848     1.0  0.94528  0.37877  0.67142  1.0000
  H   H1849     1.0  0.84701  0.28151  0.82817  1.0000
  C   C2330     1.0  0.94724  0.31598  0.57804  1.0000
  H   H1850     1.0  0.94554  0.37455  0.59744  1.0000
  C   C2331     1.0  0.95000  0.38867  0.92717  1.0000
  C   C2332     1.0  0.94815  0.39511  0.95024  1.0000
  C   C2333     1.0  0.96408  0.39120  0.96578  1.0000
  C   C2334     1.0  0.98220  0.38124  0.95842  1.0000
  C   C2335     1.0  0.79567  0.47968  0.59375  1.0000
  C   C2336     1.0  0.96811  0.37866  0.91981  1.0000
  H   H1851     1.0  0.93436  0.40287  0.95615  1.0000
  H   H1852     1.0  0.96230  0.39583  0.98367  1.0000
  H   H1853     1.0  0.98844  0.31808  0.59976  1.0000
  H   H1854     1.0  0.96972  0.37362  0.90202  1.0000
  C   C2337     1.0  0.86774  0.43854  0.81437  1.0000
  C   C2338     1.0  0.85878  0.44948  0.79507  1.0000
  C   C2339     1.0  0.86316  0.44288  0.77213  1.0000
  C   C2340     1.0  0.87664  0.42518  0.76809  1.0000
  C   C2341     1.0  0.88612  0.41484  0.78734  1.0000
  C   C2342     1.0  0.88160  0.42126  0.81026  1.0000
  H   H1855     1.0  0.84814  0.46298  0.79789  1.0000
  H   H1856     1.0  0.85593  0.45132  0.75761  1.0000
  H   H1857     1.0  0.89696  0.40157  0.78446  1.0000
  H   H1858     1.0  0.88870  0.41269  0.82477  1.0000
  C   C2343     1.0  0.75651  0.35031  0.64600  1.0000
  C   C2344     1.0  0.76752  0.33672  0.66156  1.0000
  C   C2345     1.0  0.78692  0.34286  0.66840  1.0000
  C   C2346     1.0  0.79576  0.36264  0.65984  1.0000
  C   C2347     1.0  0.78486  0.37612  0.64408  1.0000
  C   C2348     1.0  0.76541  0.37004  0.63735  1.0000
  H   H1859     1.0  0.79511  0.33220  0.68053  1.0000
  H   H1860     1.0  0.79130  0.39137  0.63728  1.0000
  H   H1861     1.0  0.75715  0.38076  0.62534  1.0000
  C   C2349     1.0  0.76509  0.40139  0.96780  1.0000
  C   C2350     1.0  0.77319  0.41750  0.95232  1.0000
  C   C2351     1.0  0.79380  0.41732  0.94643  1.0000
  C   C2352     1.0  0.80672  0.40075  0.95567  1.0000
  C   C2353     1.0  0.79862  0.38464  0.97113  1.0000
  C   C2354     1.0  0.77806  0.38500  0.97725  1.0000
  C   C2355     1.0  0.89160  0.33470  0.72077  1.0000
  H   H1862     1.0  0.79962  0.42983  0.93450  1.0000
  H   H1863     1.0  0.80551  0.49109  0.62678  1.0000
  H   H1864     1.0  0.91763  0.41354  0.85544  1.0000
  C   C2356     1.0  0.84412  0.31744  0.82676  1.0000
  H   H1865     1.0  0.90461  0.33618  0.73164  1.0000
  H   H1866     1.0  0.76341  0.43026  0.94479  1.0000
  C   C2357     1.0  0.75279  0.41746  0.67982  1.0000
  H   H1867     1.0  0.78054  0.37829  0.70939  1.0000
  H   H1868     1.0  0.92054  0.32205  0.59821  1.0000
  C   C2358     1.0  0.83844  0.29577  0.82150  1.0000
  C   C2359     1.0  0.90250  0.01912  0.51206  1.0000
  C   C2360     1.0  0.81612  0.33254  0.80461  1.0000
  H   H1869     1.0  0.98913  0.00450  0.85981  1.0000
  H   H1870     1.0  0.77219  0.37237  0.98896  1.0000
  C   C2361     1.0  0.96210  0.27265  0.53110  1.0000
  H   H1871     1.0  0.91255  0.44762  0.75043  1.0000
  C   C2362     1.0  0.85818  0.33172  0.69241  1.0000
  C   C2363     1.0  0.76965  0.40619  0.68869  1.0000
  H   H1872     1.0  0.93615  0.48145  0.90745  1.0000
  C   C2364     1.0  0.95243  0.47913  0.93944  1.0000
  C   C2365     1.0  0.92950  0.27788  0.63545  1.0000
  C   C2366     1.0  0.94446  0.29359  0.63782  1.0000
  C   C2367     1.0  0.93952  0.31508  0.64510  1.0000
  C   C2368     1.0  0.91968  0.32088  0.65028  1.0000
  C   C2369     1.0  0.90452  0.30509  0.64833  1.0000
  C   C2370     1.0  0.90962  0.28357  0.64065  1.0000
  P   P78       1.0  0.87885  0.31227  0.65580  1.0000
  C   C2371     1.0  0.86396  0.28737  0.65572  1.0000
  C   C2372     1.0  0.87683  0.32386  0.68442  1.0000
  C   C2373     1.0  0.89344  0.32479  0.69913  1.0000
  C   C2374     1.0  0.85619  0.27978  0.63485  1.0000
  C   C2375     1.0  0.84447  0.26069  0.63475  1.0000
  C   C2376     1.0  0.84059  0.24891  0.65544  1.0000
  C   C2377     1.0  0.84856  0.25614  0.67622  1.0000
  C   C2378     1.0  0.86026  0.27526  0.67639  1.0000
  C   C2379     1.0  0.86806  0.33229  0.63517  1.0000
  C   C2380     1.0  0.88016  0.34674  0.62194  1.0000
  C   C2381     1.0  0.87157  0.36251  0.60659  1.0000
  C   C2382     1.0  0.85083  0.36395  0.60416  1.0000
  C   C2383     1.0  0.83866  0.34964  0.61716  1.0000
  C   C2384     1.0  0.84719  0.33393  0.63261  1.0000
  H   H1873     1.0  0.93336  0.26120  0.62979  1.0000
  H   H1874     1.0  0.95990  0.28918  0.63404  1.0000
  H   H1875     1.0  0.95115  0.32724  0.64680  1.0000
  H   H1876     1.0  0.91624  0.33767  0.65606  1.0000
  H   H1877     1.0  0.89838  0.27099  0.63887  1.0000
  H   H1878     1.0  0.90787  0.31813  0.69405  1.0000
  H   H1879     1.0  0.85907  0.28871  0.61866  1.0000
  H   H1880     1.0  0.83824  0.25510  0.61865  1.0000
  H   H1881     1.0  0.83137  0.23421  0.65536  1.0000
  H   H1882     1.0  0.84555  0.24698  0.69224  1.0000
  H   H1883     1.0  0.86631  0.28057  0.69266  1.0000
  H   H1884     1.0  0.89617  0.34646  0.62370  1.0000
  H   H1885     1.0  0.88101  0.37422  0.59725  1.0000
  H   H1886     1.0  0.84417  0.37659  0.59276  1.0000
  H   H1887     1.0  0.82253  0.35123  0.61593  1.0000
  H   H1888     1.0  0.83734  0.32347  0.64289  1.0000
  H   H1889     1.0  0.74407  0.07112  0.64185  1.0000
  C   C2385     1.0  0.96614  0.46662  0.95303  1.0000
  C   C2386     1.0  0.99266  0.30074  0.59726  1.0000
  H   H1890     1.0  0.80365  0.46381  0.59544  1.0000
  C   C2387     1.0  0.87312  0.34323  0.72816  1.0000
  H   H1891     1.0  0.90375  0.44930  0.84007  1.0000
  C   C2388     1.0  0.83306  0.33599  0.81821  1.0000
  C   C2389     1.0  0.94826  0.42317  0.85086  1.0000
  H   H1892     1.0  0.80717  0.34661  0.79818  1.0000
  C   C2390     1.0  0.95329  0.46059  0.83510  1.0000
  C   C2391     1.0  0.92070  0.01748  0.52375  1.0000
  H   H1893     1.0  0.84196  0.34807  0.71961  1.0000
  C   C2392     1.0  0.82537  0.40306  0.80265  1.0000
  C   C2393     1.0  0.92344  0.34617  0.57023  1.0000
  H   H1894     1.0  0.97713  0.43746  0.84464  1.0000
  C   C2394     1.0  0.94723  0.47208  0.91745  1.0000
  C   C2395     1.0  0.78462  0.48490  0.57382  1.0000
  H   H1895     1.0  0.80833  0.37167  0.97837  1.0000
  C   C2396     1.0  0.93251  0.46420  0.83386  1.0000
  H   H1896     1.0  0.92814  0.47071  0.97456  1.0000
  H   H1897     1.0  0.93353  0.36620  0.99445  1.0000
  H   H1898     1.0  0.92101  0.01905  0.54240  1.0000
  H   H1899     1.0  0.98310  0.21658  0.51617  1.0000
  H   H1900     1.0  0.81726  0.27567  0.80378  1.0000
  H   H1901     1.0  0.95421  0.40747  0.85790  1.0000
  H   H1902     1.0  0.84505  0.33085  0.68172  1.0000
  H   H1903     1.0  0.95244  0.01260  0.52078  1.0000
  C   C2397     1.0  0.74648  0.48741  0.53793  1.0000
  C   C2398     1.0  0.95924  0.32336  0.55943  1.0000
  H   H1904     1.0  0.94621  0.24596  0.51544  1.0000
  C   C2399     1.0  0.82091  0.41644  0.78311  1.0000
  H   H1905     1.0  0.96351  0.47341  0.82948  1.0000
  H   H1906     1.0  0.98964  0.35542  0.55978  1.0000
  H   H1907     1.0  0.95149  0.30137  0.58834  1.0000
  H   H1908     1.0  0.93025  0.36772  0.54098  1.0000
  H   H1909     1.0  0.78408  0.47283  0.56017  1.0000
  C   C2400     1.0  0.98420  0.37521  0.93526  1.0000
  H   H1910     1.0  0.97997  0.36274  0.67229  1.0000
  H   H1911     1.0  0.74867  0.05316  0.60380  1.0000
  C   C2401     1.0  0.91384  0.46403  0.75781  1.0000
  H   H1912     1.0  0.90922  0.49035  0.87047  1.0000
  H   H1913     1.0  0.84941  0.49402  0.96271  1.0000
  C   C2402     1.0  0.92762  0.42658  0.84950  1.0000
  H   H1914     1.0  0.74692  0.36451  0.71908  1.0000
  C   C2403     1.0  0.81051  0.31086  0.79937  1.0000
  C   C2404     1.0  0.83559  0.38844  0.75839  1.0000
  C   C2405     1.0  0.83472  0.38201  0.80019  1.0000
  C   C2406     1.0  0.83971  0.37479  0.77785  1.0000
  P   P79       1.0  0.84006  0.36403  0.82517  1.0000
  C   C2407     1.0  0.82578  0.37305  0.85012  1.0000
  C   C2408     1.0  0.95583  0.45258  0.90869  1.0000
  C   C2409     1.0  0.81000  0.36024  0.85913  1.0000
  C   C2410     1.0  0.79982  0.36687  0.87916  1.0000
  C   C2411     1.0  0.80526  0.38627  0.89030  1.0000
  C   C2412     1.0  0.82076  0.39922  0.88133  1.0000
  C   C2413     1.0  0.83100  0.39266  0.86134  1.0000
  C   C2414     1.0  0.86641  0.36397  0.83212  1.0000
  C   C2415     1.0  0.87264  0.36187  0.85529  1.0000
  C   C2416     1.0  0.89298  0.36188  0.86073  1.0000
  C   C2417     1.0  0.90729  0.36351  0.84311  1.0000
  C   C2418     1.0  0.90129  0.36485  0.81999  1.0000
  C   C2419     1.0  0.88094  0.36502  0.81449  1.0000
  H   H1915     1.0  0.84012  0.38326  0.74125  1.0000
  H   H1916     1.0  0.84685  0.35865  0.77545  1.0000
  H   H1917     1.0  0.85704  0.31963  0.83759  1.0000
  H   H1918     1.0  0.80562  0.34501  0.85103  1.0000
  H   H1919     1.0  0.78783  0.35684  0.88627  1.0000
  H   H1920     1.0  0.79761  0.39116  0.90605  1.0000
  H   H1921     1.0  0.82505  0.41418  0.89014  1.0000
  H   H1922     1.0  0.84316  0.40276  0.85475  1.0000
  H   H1923     1.0  0.86185  0.36038  0.86929  1.0000
  H   H1924     1.0  0.89766  0.36091  0.87870  1.0000
  H   H1925     1.0  0.92301  0.36381  0.84746  1.0000
  H   H1926     1.0  0.91239  0.36616  0.80630  1.0000
  H   H1927     1.0  0.87669  0.36642  0.79650  1.0000
  H   H1928     1.0  0.97646  0.42515  0.91496  1.0000
  C   C2420     1.0  0.97495  0.44719  0.94390  1.0000
  C   C2421     1.0  0.96111  0.44014  0.84359  1.0000
  C   C2422     1.0  0.92951  0.32749  0.58352  1.0000
  H   H1929     1.0  0.98117  0.33165  0.97083  1.0000
  P   P80       1.0  0.98154  0.30786  0.55138  1.0000
  H   H1930     1.0  0.88869  0.02196  0.52156  1.0000
  C   C2423     1.0  0.91186  0.48312  0.74359  1.0000
  H   H1931     1.0  0.91786  0.45093  0.79225  1.0000
  C   C2424     1.0  0.91701  0.46601  0.78157  1.0000
  H   H1932     1.0  0.96136  0.34718  0.53076  1.0000
  P   P81       1.0  0.97163  0.47529  0.98211  1.0000
  C   C2425     1.0  0.98204  0.20193  0.50563  1.0000
  H   H1933     1.0  0.78451  0.41196  0.68434  1.0000
  C   C2426     1.0  0.85634  0.34135  0.71415  1.0000
  H   H1934     1.0  0.82157  0.40941  0.81949  1.0000
  C   C2427     1.0  0.93850  0.01391  0.51140  1.0000
  H   H1935     1.0  0.97993  0.35827  0.59837  1.0000
  H   H1936     1.0  0.90428  0.47915  0.60972  1.0000
  C   C2428     1.0  0.97439  0.29115  0.52731  1.0000
  C   C2429     1.0  0.91871  0.48721  0.79122  1.0000
  C   C2430     1.0  0.85140  0.48852  0.59432  1.0000
  H   H1937     1.0  0.95744  0.26790  0.54851  1.0000
  C   C2431     1.0  0.93141  0.46719  0.99256  1.0000
  C   C2432     1.0  0.95270  0.34170  0.54569  1.0000
  C   C2433     1.0  0.74831  0.37920  0.70796  1.0000
  S   S322      1.0  0.89208  0.48769  0.95067  1.0000
  C   C2434     1.0  0.91979  0.44697  0.84099  1.0000
  H   H1938     1.0  0.90902  0.48141  0.72525  1.0000
  C   C2435     1.0  0.97968  0.29744  0.50452  1.0000
  H   H1939     1.0  0.90993  0.35534  0.57483  1.0000
  C   C2436     1.0  0.89634  0.49466  0.85994  1.0000
  H   H1940     1.0  0.75460  0.43220  0.66883  1.0000
  H   H1941     1.0  0.98547  0.43698  0.95378  1.0000
  H   H1942     1.0  0.95124  0.44667  0.89203  1.0000
  P   P82       1.0  0.92203  0.49010  0.82204  1.0000
  C   C2437     1.0  0.99067  0.29103  0.57552  1.0000
  C   C2438     1.0  0.82610  0.40919  0.76102  1.0000
  C   C2439     1.0  0.93499  0.35322  0.55126  1.0000
  C   C2440     1.0  0.76740  0.38714  0.70283  1.0000
  H   H1943     1.0  0.91929  0.49342  0.57293  1.0000
  H   H1944     1.0  0.98009  0.42900  0.99781  1.0000
  H   H1945     1.0  0.76108  0.32145  0.66834  1.0000
  C   C2441     1.0  0.82167  0.29248  0.80778  1.0000
  H   H1946     1.0  0.79743  0.30830  0.78886  1.0000
  C   C2442     1.0  0.95564  0.26027  0.51239  1.0000
  C   C2443     1.0  0.99312  0.18266  0.51161  1.0000
  H   H1947     1.0  0.94535  0.49411  0.94609  1.0000
  S   S323      1.0  0.75080  0.07547  0.50036  1.0000
  S   S324      1.0  0.92664  0.84907  0.45696  1.0000
  H   H1948     1.0  0.79150  0.96829  0.05765  1.0000
  S   S325      1.0  0.97400  0.86236  0.45749  1.0000
  Fe  Fe161     1.0  0.94434  0.88070  0.45309  1.0000
  S   S326      1.0  0.94003  0.90693  0.42396  1.0000
  Fe  Fe162     1.0  0.95577  0.83130  0.46459  1.0000
  S   S327      1.0  0.96178  0.79439  0.45567  1.0000
  H   H1949     1.0  0.86402  0.63560  0.17739  1.0000
  S   S328      1.0  0.85743  0.63931  0.48272  1.0000
  Fe  Fe163     1.0  0.93424  0.66942  0.31747  1.0000
  S   S329      1.0  0.94574  0.63933  0.33797  1.0000
  S   S330      1.0  0.92098  0.66069  0.28182  1.0000
  Fe  Fe164     1.0  0.94865  0.70050  0.35567  1.0000
  S   S331      1.0  0.96129  0.67223  0.37787  1.0000
  S   S332      1.0  0.94727  0.73786  0.36434  1.0000
  Fe  Fe165     1.0  0.97389  0.65820  0.34444  1.0000
  Fe  Fe166     1.0  0.93256  0.65496  0.36991  1.0000
  S   S333      1.0  0.91571  0.63069  0.39439  1.0000
  S   S334      1.0  0.96309  0.68780  0.32250  1.0000
  S   S335      1.0  0.91925  0.68383  0.34909  1.0000
  C   C2444     1.0  0.77900  0.97677  0.06593  1.0000
  H   H1950     1.0  0.84041  0.98675  0.12692  1.0000
  C   C2445     1.0  0.84308  0.76636  0.45554  1.0000
  S   S336      1.0  0.90810  0.65075  0.02238  1.0000
  Fe  Fe167     1.0  0.83520  0.65886  0.12853  1.0000
  S   S337      1.0  0.85060  0.69033  0.13739  1.0000
  S   S338      1.0  0.85080  0.63057  0.10904  1.0000
  Fe  Fe168     1.0  0.79695  0.67225  0.15442  1.0000
  S   S339      1.0  0.81013  0.70529  0.16462  1.0000
  S   S340      1.0  0.76683  0.66151  0.17062  1.0000
  Fe  Fe169     1.0  0.82166  0.70820  0.12779  1.0000
  S   S341      1.0  0.82770  0.73933  0.10427  1.0000
  Fe  Fe170     1.0  0.83833  0.68550  0.17361  1.0000
  S   S342      1.0  0.85479  0.69467  0.20735  1.0000
  S   S343      1.0  0.80673  0.67637  0.11693  1.0000
  S   S344      1.0  0.82451  0.65264  0.16533  1.0000
  Fe  Fe171     1.0  0.79726  0.85862  0.03944  1.0000
  S   S345      1.0  0.82861  0.87117  0.03938  1.0000
  S   S346      1.0  0.78605  0.82921  0.06224  1.0000
  H   H1951     1.0  0.90573  0.57369  0.01214  1.0000
  H   H1952     1.0  0.75795  0.63003  0.23739  1.0000
  H   H1953     1.0  0.96932  0.50763  0.01956  1.0000
  Fe  Fe172     1.0  0.81484  0.90617  0.04017  1.0000
  S   S347      1.0  0.82302  0.93081  0.06897  1.0000
  C   C2446     1.0  0.89960  0.61968  0.13859  1.0000
  S   S348      1.0  0.78337  0.89333  0.04234  1.0000
  C   C2447     1.0  0.82935  0.60386  0.06007  1.0000
  C   C2448     1.0  0.83008  0.95828  0.07742  1.0000
  H   H1954     1.0  0.82223  0.61433  0.07293  1.0000
  C   C2449     1.0  0.83250  0.96264  0.10114  1.0000
  C   C2450     1.0  0.97564  0.53970  0.00418  1.0000
  H   H1955     1.0  0.82998  0.94938  0.11382  1.0000
  C   C2451     1.0  0.81569  0.76419  0.09279  1.0000
  C   C2452     1.0  0.79575  0.76988  0.09771  1.0000
  C   C2453     1.0  0.78701  0.78973  0.08817  1.0000
  C   C2454     1.0  0.79800  0.80427  0.07358  1.0000
  C   C2455     1.0  0.81796  0.79861  0.06867  1.0000
  C   C2456     1.0  0.82670  0.77875  0.07820  1.0000
  H   H1956     1.0  0.78704  0.75900  0.10890  1.0000
  H   H1957     1.0  0.77159  0.79388  0.09217  1.0000
  H   H1958     1.0  0.82670  0.80963  0.05767  1.0000
  H   H1959     1.0  0.84214  0.77463  0.07427  1.0000
  C   C2457     1.0  0.89338  0.64467  0.04742  1.0000
  C   C2458     1.0  0.89308  0.62346  0.05816  1.0000
  C   C2459     1.0  0.88029  0.61944  0.07733  1.0000
  C   C2460     1.0  0.86781  0.63657  0.08602  1.0000
  C   C2461     1.0  0.86852  0.65786  0.07561  1.0000
  C   C2462     1.0  0.88111  0.66180  0.05635  1.0000
  H   H1960     1.0  0.90240  0.61011  0.05146  1.0000
  H   H1961     1.0  0.87994  0.60295  0.08534  1.0000
  H   H1962     1.0  0.85904  0.67120  0.08208  1.0000
  H   H1963     1.0  0.88123  0.67827  0.04819  1.0000
  C   C2463     1.0  0.90213  0.67043  0.26177  1.0000
  C   C2464     1.0  0.89732  0.65691  0.24300  1.0000
  C   C2465     1.0  0.88282  0.66381  0.22645  1.0000
  C   C2466     1.0  0.87297  0.68459  0.22812  1.0000
  C   C2467     1.0  0.87772  0.69807  0.24698  1.0000
  C   C2468     1.0  0.89206  0.69105  0.26372  1.0000
  H   H1964     1.0  0.90482  0.64086  0.24129  1.0000
  H   H1965     1.0  0.87925  0.65296  0.21249  1.0000
  H   H1966     1.0  0.87025  0.71414  0.24864  1.0000
  H   H1967     1.0  0.89548  0.70171  0.27796  1.0000
  C   C2469     1.0  0.87358  0.63635  0.45816  1.0000
  C   C2470     1.0  0.88417  0.65509  0.44993  1.0000
  C   C2471     1.0  0.89700  0.65377  0.43042  1.0000
  C   C2472     1.0  0.89950  0.63360  0.41890  1.0000
  C   C2473     1.0  0.88910  0.61480  0.42730  1.0000
  C   C2474     1.0  0.87621  0.61613  0.44674  1.0000
  H   H1968     1.0  0.88233  0.67078  0.45865  1.0000
  H   H1969     1.0  0.90506  0.66828  0.42433  1.0000
  H   H1970     1.0  0.89096  0.59906  0.41861  1.0000
  H   H1971     1.0  0.86816  0.60157  0.45270  1.0000
  C   C2475     1.0  0.95632  0.77882  0.43050  1.0000
  C   C2476     1.0  0.95015  0.78912  0.40970  1.0000
  C   C2477     1.0  0.94718  0.77624  0.38985  1.0000
  C   C2478     1.0  0.95012  0.75287  0.39047  1.0000
  C   C2479     1.0  0.95570  0.74243  0.41148  1.0000
  C   C2480     1.0  0.95891  0.75536  0.43128  1.0000
  H   H1972     1.0  0.94814  0.80710  0.40872  1.0000
  H   H1973     1.0  0.94288  0.78454  0.37374  1.0000
  H   H1974     1.0  0.95809  0.72450  0.41226  1.0000
  H   H1975     1.0  0.96374  0.74717  0.44722  1.0000
  C   C2481     1.0  0.92642  0.93270  0.42630  1.0000
  C   C2482     1.0  0.92176  0.94531  0.40608  1.0000
  C   C2483     1.0  0.90990  0.96506  0.40708  1.0000
  C   C2484     1.0  0.90254  0.97243  0.42839  1.0000
  C   C2485     1.0  0.90792  0.96030  0.44865  1.0000
  C   C2486     1.0  0.91980  0.94064  0.44767  1.0000
  H   H1976     1.0  0.92693  0.93944  0.38946  1.0000
  H   H1977     1.0  0.90595  0.97418  0.39133  1.0000
  H   H1978     1.0  0.90280  0.96609  0.46523  1.0000
  H   H1979     1.0  0.92350  0.93141  0.46343  1.0000
  C   C2487     1.0  0.75922  0.61560  0.08134  1.0000
  H   H1980     1.0  0.81106  0.99283  0.15817  1.0000
  H   H1981     1.0  0.83740  0.89420  0.48034  1.0000
  C   C2488     1.0  0.83760  0.89295  0.49906  1.0000
  H   H1982     1.0  0.81121  0.53814  0.47112  1.0000
  H   H1983     1.0  0.75891  0.94995  0.06015  1.0000
  H   H1984     1.0  0.84387  0.70467  0.46272  1.0000
  H   H1985     1.0  0.86870  0.83008  0.01748  1.0000
  C   C2489     1.0  0.91320  0.78691  0.49479  1.0000
  C   C2490     1.0  0.95515  0.68234  0.07899  1.0000
  C   C2491     1.0  0.84142  0.58568  0.06709  1.0000
  C   C2492     1.0  0.74969  0.63341  0.06951  1.0000
  C   C2493     1.0  0.79206  0.60151  0.15977  1.0000
  C   C2494     1.0  0.89078  0.85542  0.01316  1.0000
  C   C2495     1.0  0.88144  0.52633  0.02896  1.0000
  C   C2496     1.0  0.74972  0.58399  0.45993  1.0000
  H   H1986     1.0  0.90751  0.67442  0.09762  1.0000
  H   H1987     1.0  0.87593  0.60969  0.00705  1.0000
  C   C2497     1.0  0.83844  0.98388  0.10866  1.0000
  H   H1988     1.0  0.81835  0.72996  0.40911  1.0000
  H   H1989     1.0  0.99080  0.59820  0.07630  1.0000
  C   C2498     1.0  0.89766  0.51426  0.03838  1.0000
  C   C2499     1.0  0.80148  0.53303  0.48527  1.0000
  H   H1990     1.0  0.95943  0.69312  0.13622  1.0000
  H   H1991     1.0  0.75053  0.57404  0.14428  1.0000
  C   C2500     1.0  0.76519  0.58122  0.14246  1.0000
  H   H1992     1.0  0.79267  0.54734  0.02063  1.0000
  C   C2501     1.0  0.84556  0.99370  0.48126  1.0000
  H   H1993     1.0  0.87976  0.74498  0.46371  1.0000
  C   C2502     1.0  0.83192  0.84487  0.45423  1.0000
  C   C2503     1.0  0.81316  0.73510  0.35394  1.0000
  C   C2504     1.0  0.79393  0.72643  0.35508  1.0000
  C   C2505     1.0  0.79112  0.70454  0.36323  1.0000
  C   C2506     1.0  0.80751  0.69134  0.37037  1.0000
  C   C2507     1.0  0.82685  0.70010  0.36982  1.0000
  C   C2508     1.0  0.82958  0.72196  0.36112  1.0000
  P   P83       1.0  0.84799  0.68254  0.37820  1.0000
  C   C2509     1.0  0.83955  0.66256  0.40007  1.0000
  C   C2510     1.0  0.85817  0.66888  0.35302  1.0000
  C   C2511     1.0  0.87565  0.65570  0.35517  1.0000
  C   C2512     1.0  0.88412  0.64551  0.33581  1.0000
  C   C2513     1.0  0.87551  0.64887  0.31402  1.0000
  C   C2514     1.0  0.85826  0.66220  0.31162  1.0000
  C   C2515     1.0  0.84950  0.67208  0.33105  1.0000
  C   C2516     1.0  0.84322  0.63950  0.39784  1.0000
  C   C2517     1.0  0.83628  0.62435  0.41472  1.0000
  C   C2518     1.0  0.82573  0.63203  0.43401  1.0000
  C   C2519     1.0  0.82183  0.65487  0.43628  1.0000
  C   C2520     1.0  0.82852  0.67006  0.41930  1.0000
  C   C2521     1.0  0.86755  0.69962  0.38957  1.0000
  C   C2522     1.0  0.87967  0.71201  0.37424  1.0000
  C   C2523     1.0  0.89490  0.72522  0.38265  1.0000
  C   C2524     1.0  0.89848  0.72584  0.40640  1.0000
  C   C2525     1.0  0.88671  0.71335  0.42180  1.0000
  C   C2526     1.0  0.87123  0.70040  0.41347  1.0000
  H   H1994     1.0  0.81538  0.75192  0.34716  1.0000
  H   H1995     1.0  0.78123  0.73656  0.34931  1.0000
  H   H1996     1.0  0.77624  0.69767  0.36374  1.0000
  H   H1997     1.0  0.80506  0.67423  0.37610  1.0000
  H   H1998     1.0  0.84432  0.72892  0.35959  1.0000
  H   H1999     1.0  0.88284  0.65346  0.37183  1.0000
  H   H2000     1.0  0.89769  0.63544  0.33762  1.0000
  H   H2001     1.0  0.88245  0.64144  0.29893  1.0000
  H   H2002     1.0  0.85188  0.66508  0.29457  1.0000
  H   H2003     1.0  0.83621  0.68241  0.32868  1.0000
  H   H2004     1.0  0.85144  0.63297  0.38325  1.0000
  H   H2005     1.0  0.83952  0.60665  0.41314  1.0000
  H   H2006     1.0  0.82090  0.62031  0.44744  1.0000
  H   H2007     1.0  0.81387  0.66067  0.45146  1.0000
  H   H2008     1.0  0.82532  0.68770  0.42132  1.0000
  H   H2009     1.0  0.87765  0.71119  0.35567  1.0000
  H   H2010     1.0  0.90437  0.73448  0.37064  1.0000
  H   H2011     1.0  0.91072  0.73562  0.41270  1.0000
  H   H2012     1.0  0.88995  0.71314  0.44012  1.0000
  H   H2013     1.0  0.86271  0.69053  0.42573  1.0000
  C   C2527     1.0  0.81338  0.53580  0.07326  1.0000
  H   H2014     1.0  0.93982  0.99317  0.43023  1.0000
  C   C2528     1.0  0.86710  0.84410  0.44432  1.0000
  C   C2529     1.0  0.86898  0.82250  0.45387  1.0000
  H   H2015     1.0  0.84348  0.58214  0.08542  1.0000
  C   C2530     1.0  0.96822  0.63226  0.42292  1.0000
  C   C2531     1.0  0.88889  0.75685  0.47232  1.0000
  C   C2532     1.0  0.97363  0.93124  0.47039  1.0000
  C   C2533     1.0  0.74916  0.52726  0.10156  1.0000
  C   C2534     1.0  0.97294  0.96726  0.45047  1.0000
  C   C2535     1.0  0.74764  0.64285  0.16268  1.0000
  C   C2536     1.0  0.78108  0.53827  0.48446  1.0000
  H   H2016     1.0  0.86787  0.97049  0.46950  1.0000
  C   C2537     1.0  0.84367  0.74993  0.41741  1.0000
  C   C2538     1.0  0.85247  0.76318  0.43400  1.0000
  H   H2017     1.0  0.93759  0.76451  0.48641  1.0000
  H   H2018     1.0  0.84565  0.74096  0.02398  1.0000
  H   H2019     1.0  0.94011  0.66187  0.22414  1.0000
  H   H2020     1.0  0.95623  0.69789  0.23110  1.0000
  C   C2539     1.0  0.84864  0.85537  0.44464  1.0000
  C   C2540     1.0  0.78051  0.55810  0.05317  1.0000
  H   H2021     1.0  0.86683  0.51886  0.02915  1.0000
  H   H2022     1.0  0.91207  0.88186  0.01392  1.0000
  H   H2023     1.0  0.88004  0.85204  0.43661  1.0000
  H   H2024     1.0  0.88343  0.81412  0.45298  1.0000
  Fe  Fe173     1.0  0.93386  0.63330  0.00334  1.0000
  C   C2541     1.0  0.85040  0.75462  0.01269  1.0000
  C   C2542     1.0  0.82431  0.75688  0.45979  1.0000
  H   H2025     1.0  0.95630  0.72760  0.20035  1.0000
  C   C2543     1.0  0.93483  0.67754  0.07829  1.0000
  H   H2026     1.0  0.85112  0.74747  0.40090  1.0000
  H   H2027     1.0  0.86660  0.77101  0.42999  1.0000
  C   C2544     1.0  0.81115  0.53627  0.04921  1.0000
  C   C2545     1.0  0.90156  0.87196  0.02394  1.0000
  C   C2546     1.0  0.82527  0.74005  0.42203  1.0000
  H   H2028     1.0  0.97932  0.62008  0.29520  1.0000
  H   H2029     1.0  0.90148  0.88715  0.43876  1.0000
  C   C2547     1.0  0.84284  0.70251  0.48135  1.0000
  C   C2548     1.0  0.74628  0.63434  0.14039  1.0000
  H   H2030     1.0  0.89551  0.49764  0.04563  1.0000
  H   H2031     1.0  0.86126  0.55931  0.05652  1.0000
  C   C2549     1.0  0.93790  0.69668  0.49358  1.0000
  H   H2032     1.0  0.91603  0.73745  0.46711  1.0000
  C   C2550     1.0  0.79916  0.54643  0.08731  1.0000
  H   H2033     1.0  0.96410  0.68153  0.06328  1.0000
  C   C2551     1.0  0.85969  0.70548  0.49505  1.0000
  C   C2552     1.0  0.96596  0.97752  0.47071  1.0000
  P   P84       1.0  0.76384  0.57066  0.09550  1.0000
  H   H2034     1.0  0.89988  0.71350  0.10742  1.0000
  H   H2035     1.0  0.88134  0.67126  0.17275  1.0000
  H   H2036     1.0  0.85934  0.75663  0.14350  1.0000
  S   S349      1.0  0.94111  0.88913  0.49045  1.0000
  H   H2037     1.0  0.93412  0.55231  0.02869  1.0000
  H   H2038     1.0  0.97437  0.54850  0.02034  1.0000
  C   C2553     1.0  0.79411  0.59158  0.11941  1.0000
  C   C2554     1.0  0.80241  0.60153  0.13868  1.0000
  H   H2039     1.0  0.92930  0.51404  0.04512  1.0000
  C   C2555     1.0  0.98268  0.62458  0.40729  1.0000
  C   C2556     1.0  0.92158  0.76754  0.48544  1.0000
  C   C2557     1.0  0.91942  0.54502  0.02886  1.0000
  C   C2558     1.0  0.88908  0.89862  0.44181  1.0000
  C   C2559     1.0  0.82716  0.60910  0.03654  1.0000
  C   C2560     1.0  0.97640  0.94418  0.45026  1.0000
  H   H2040     1.0  0.93965  0.72157  0.16299  1.0000
  H   H2041     1.0  0.77178  0.91711  0.49366  1.0000
  H   H2042     1.0  0.87487  0.74402  0.10702  1.0000
  H   H2043     1.0  0.81618  0.75993  0.47569  1.0000
  H   H2044     1.0  0.76515  0.58700  0.45541  1.0000
  C   C2561     1.0  0.88419  0.54769  0.01897  1.0000
  C   C2562     1.0  0.83376  0.82327  0.46392  1.0000
  H   H2045     1.0  0.97649  0.91336  0.47019  1.0000
  S   S350      1.0  0.81444  0.90953  0.00101  1.0000
  H   H2046     1.0  0.81813  0.62350  0.03118  1.0000
  H   H2047     1.0  0.80213  0.59237  0.10308  1.0000
  C   C2563     1.0  0.96720  0.94132  0.49076  1.0000
  H   H2048     1.0  0.87497  0.60274  0.15499  1.0000
  H   H2049     1.0  0.81670  0.60973  0.13710  1.0000
  H   H2050     1.0  0.90439  0.60532  0.12879  1.0000
  H   H2051     1.0  0.95977  0.65820  0.44638  1.0000
  Fe  Fe174     1.0  0.78336  0.89511  0.00327  1.0000
  C   C2564     1.0  0.81557  0.74359  0.44317  1.0000
  H   H2052     1.0  0.82605  0.52705  0.08106  1.0000
  C   C2565     1.0  0.92322  0.67846  0.09847  1.0000
  H   H2053     1.0  0.80089  0.54552  0.10595  1.0000
  C   C2566     1.0  0.85803  0.92944  0.44944  1.0000
  H   H2054     1.0  0.83195  0.97273  0.04304  1.0000
  C   C2567     1.0  0.75211  0.59375  0.07961  1.0000
  C   C2568     1.0  0.91668  0.52352  0.03814  1.0000
  C   C2569     1.0  0.97131  0.65192  0.43489  1.0000
  C   C2570     1.0  0.85578  0.97311  0.48172  1.0000
  H   H2055     1.0  0.82207  0.52788  0.03832  1.0000
  C   C2571     1.0  0.96388  0.68803  0.09992  1.0000
  P   P85       1.0  0.85447  0.78405  0.47647  1.0000
  H   H2056     1.0  0.82840  0.77785  0.02595  1.0000
  H   H2057     1.0  0.75748  0.63863  0.12755  1.0000
  C   C2572     1.0  0.84074  0.77546  0.01394  1.0000
  C   C2573     1.0  0.89846  0.87604  0.04747  1.0000
  C   C2574     1.0  0.88429  0.86378  0.06031  1.0000
  C   C2575     1.0  0.87405  0.84665  0.04950  1.0000
  P   P86       1.0  0.87980  0.86971  0.09051  1.0000
  C   C2576     1.0  0.85482  0.86135  0.09855  1.0000
  C   C2577     1.0  0.89755  0.85431  0.10843  1.0000
  C   C2578     1.0  0.89318  0.85003  0.13194  1.0000
  C   C2579     1.0  0.90675  0.83793  0.14589  1.0000
  C   C2580     1.0  0.92479  0.83010  0.13650  1.0000
  C   C2581     1.0  0.92930  0.83440  0.11316  1.0000
  C   C2582     1.0  0.91575  0.84648  0.09915  1.0000
  C   C2583     1.0  0.83886  0.87692  0.09813  1.0000
  C   C2584     1.0  0.81942  0.87011  0.10316  1.0000
  C   C2585     1.0  0.81578  0.84778  0.10905  1.0000
  C   C2586     1.0  0.83162  0.83226  0.11006  1.0000
  C   C2587     1.0  0.85104  0.83893  0.10462  1.0000
  C   C2588     1.0  0.88202  0.89946  0.09457  1.0000
  C   C2589     1.0  0.87518  0.91469  0.07737  1.0000
  C   C2590     1.0  0.87689  0.93768  0.08032  1.0000
  C   C2591     1.0  0.88497  0.94574  0.10065  1.0000
  C   C2592     1.0  0.89167  0.93074  0.11794  1.0000
  C   C2593     1.0  0.89028  0.90768  0.11492  1.0000
  C   C2594     1.0  0.77532  0.58152  0.12107  1.0000
  H   H2058     1.0  0.81178  0.69361  0.48112  1.0000
  C   C2595     1.0  0.89271  0.79138  0.49274  1.0000
  H   H2059     1.0  0.90686  0.88901  0.05551  1.0000
  H   H2060     1.0  0.86316  0.83678  0.05889  1.0000
  H   H2061     1.0  0.87926  0.85604  0.13948  1.0000
  H   H2062     1.0  0.90324  0.83460  0.16398  1.0000
  H   H2063     1.0  0.93528  0.82070  0.14733  1.0000
  H   H2064     1.0  0.94330  0.82833  0.10590  1.0000
  H   H2065     1.0  0.91954  0.84960  0.08113  1.0000
  H   H2066     1.0  0.84121  0.89425  0.09344  1.0000
  H   H2067     1.0  0.80711  0.88211  0.10195  1.0000
  H   H2068     1.0  0.80061  0.84238  0.11227  1.0000
  H   H2069     1.0  0.82868  0.81489  0.11436  1.0000
  H   H2070     1.0  0.86300  0.82649  0.10474  1.0000
  H   H2071     1.0  0.86812  0.90887  0.06185  1.0000
  H   H2072     1.0  0.87142  0.94932  0.06705  1.0000
  H   H2073     1.0  0.88574  0.96363  0.10308  1.0000
  H   H2074     1.0  0.89781  0.93705  0.13376  1.0000
  H   H2075     1.0  0.89549  0.89643  0.12858  1.0000
  H   H2076     1.0  0.84581  0.94124  0.45189  1.0000
  C   C2596     1.0  0.76054  0.96640  0.06733  1.0000
  C   C2597     1.0  0.86328  0.92365  0.42684  1.0000
  C   C2598     1.0  0.93183  0.68429  0.11961  1.0000
  Fe  Fe175     1.0  0.97637  0.61219  0.00211  1.0000
  H   H2077     1.0  0.89407  0.70792  0.18202  1.0000
  C   C2599     1.0  0.95231  0.68896  0.12019  1.0000
  C   C2600     1.0  0.77354  0.59121  0.16170  1.0000
  C   C2601     1.0  0.79467  0.54733  0.03921  1.0000
  H   H2078     1.0  0.80112  0.73626  0.44657  1.0000
  H   H2079     1.0  0.77187  0.61914  0.09208  1.0000
  H   H2080     1.0  0.88357  0.90456  0.40551  1.0000
  H   H2081     1.0  0.97563  0.97687  0.43472  1.0000
  H   H2082     1.0  0.95429  0.62341  0.42506  1.0000
  C   C2602     1.0  0.88307  0.61819  0.15339  1.0000
  H   H2083     1.0  0.92807  0.67299  0.06207  1.0000
  C   C2603     1.0  0.83359  0.97568  0.06133  1.0000
  H   H2084     1.0  0.83569  0.60097  0.00183  1.0000
  C   C2604     1.0  0.84964  0.57820  0.02688  1.0000
  H   H2085     1.0  0.75042  0.67040  0.24114  1.0000
  C   C2605     1.0  0.90323  0.55713  0.01942  1.0000
  C   C2606     1.0  0.88049  0.77671  0.48092  1.0000
  H   H2086     1.0  0.89241  0.89693  0.47861  1.0000
  C   C2607     1.0  0.83721  0.59633  0.01999  1.0000
  H   H2087     1.0  0.99059  0.67970  0.43969  1.0000
  C   C2608     1.0  0.88406  0.90453  0.46442  1.0000
  H   H2088     1.0  0.76776  0.56633  0.04505  1.0000
  C   C2609     1.0  0.85243  0.81212  0.46433  1.0000
  C   C2610     1.0  0.87721  0.84265  0.02599  1.0000
  C   C2611     1.0  0.90941  0.75239  0.47442  1.0000
  H   H2089     1.0  0.76529  0.59171  0.17790  1.0000
  C   C2612     1.0  0.98881  0.66398  0.43111  1.0000
  C   C2613     1.0  0.86888  0.92053  0.46840  1.0000
  H   H2090     1.0  0.82067  0.81524  0.47113  1.0000
  C   C2614     1.0  0.96332  0.96437  0.49094  1.0000
  C   C2615     1.0  0.78276  0.55795  0.07733  1.0000
  C   C2616     1.0  0.90977  0.63980  0.13616  1.0000
  H   H2091     1.0  0.75504  0.65027  0.07135  1.0000
  H   H2092     1.0  0.86920  0.73854  0.18102  1.0000
  H   H2093     1.0  0.88174  0.58971  0.49179  1.0000
  H   H2094     1.0  0.85557  0.93147  0.41224  1.0000
  H   H2095     1.0  0.92280  0.64030  0.12501  1.0000
  H   H2096     1.0  0.84732  0.87214  0.43723  1.0000
  H   H2097     1.0  0.79817  0.60988  0.17451  1.0000
  C   C2617     1.0  0.94053  0.67458  0.21043  1.0000
  C   C2618     1.0  0.94956  0.69496  0.21441  1.0000
  C   C2619     1.0  0.94954  0.71168  0.19710  1.0000
  C   C2620     1.0  0.94022  0.70815  0.17591  1.0000
  C   C2621     1.0  0.93099  0.68776  0.17180  1.0000
  C   C2622     1.0  0.93136  0.67090  0.18920  1.0000
  P   P87       1.0  0.91660  0.68472  0.14567  1.0000
  C   C2623     1.0  0.89907  0.70818  0.14478  1.0000
  H   H2098     1.0  0.92407  0.65514  0.18687  1.0000
  C   C2624     1.0  0.87895  0.90843  0.42302  1.0000
  H   H2099     1.0  0.81753  0.85345  0.45403  1.0000
  C   C2625     1.0  0.85159  0.57290  0.05060  1.0000
  C   C2626     1.0  0.89373  0.71889  0.12371  1.0000
  C   C2627     1.0  0.87966  0.73650  0.12337  1.0000
  C   C2628     1.0  0.87088  0.74367  0.14399  1.0000
  C   C2629     1.0  0.87639  0.73347  0.16504  1.0000
  C   C2630     1.0  0.89046  0.71589  0.16548  1.0000
  C   C2631     1.0  0.90308  0.65885  0.14800  1.0000
  C   C2632     1.0  0.88657  0.65708  0.16299  1.0000
  C   C2633     1.0  0.87672  0.63680  0.16576  1.0000
  H   H2100     1.0  0.97967  0.69164  0.10042  1.0000
  S   S351      1.0  0.96460  0.64730  0.00705  1.0000
  H   H2101     1.0  0.87347  0.71044  0.48674  1.0000
  H   H2102     1.0  0.77497  0.54735  0.46962  1.0000
  H   H2103     1.0  0.97995  0.60986  0.39729  1.0000
  C   C2634     1.0  0.82477  0.69634  0.49168  1.0000
  H   H2104     1.0  0.76356  0.52115  0.09562  1.0000
  Fe  Fe176     1.0  0.97020  0.86972  0.49540  1.0000
  H   H2105     1.0  0.99255  0.74109  0.34822  1.0000
  H   H2106     1.0  0.95126  0.69476  0.48303  1.0000
  P   P88       1.0  0.86357  0.56272  0.00534  1.0000
  H   H2107     1.0  0.92246  0.66985  0.47747  1.0000
  C   C2635     1.0  0.97282  0.51660  0.00362  1.0000
  S   S352      1.0  0.94533  0.59769  0.00160  1.0000
  H   H2108     1.0  0.98090  0.93618  0.43437  1.0000
  Fe  Fe177     1.0  0.92565  0.85632  0.49502  1.0000
  H   H2109     1.0  0.88649  0.80663  0.49980  1.0000
  S   S353      1.0  0.79462  0.85963  0.00053  1.0000
  C   C2636     1.0  0.92168  0.68274  0.49038  1.0000
  Fe  Fe178     1.0  0.82573  0.87362  0.00038  1.0000
  H   H2110     1.0  0.80048  0.98583  0.00809  1.0000
  C   C2637     1.0  0.78436  0.98733  0.00659  1.0000
  C   C2638     1.0  0.74445  0.97702  0.07839  1.0000
  H   H2111     1.0  0.74643  0.71969  0.10320  1.0000
  C   C2639     1.0  0.74514  0.55030  0.10333  1.0000
  C   C2640     1.0  0.74431  0.63542  0.24605  1.0000
  H   H2112     1.0  0.74793  0.68660  0.12990  1.0000
  C   C2641     1.0  0.85022  0.95604  0.49747  1.0000
  H   H2113     1.0  0.83988  0.80953  0.00110  1.0000
  P   P89       1.0  0.86337  0.92927  0.49760  1.0000
  H   H2114     1.0  0.99256  0.59108  0.32238  1.0000
  C   C2642     1.0  0.99171  0.60935  0.28991  1.0000
  H   H2115     1.0  0.92656  0.82702  0.00103  1.0000
  H   H2116     1.0  0.81867  0.77823  0.56629  1.0000
  C   C2643     1.0  0.89300  0.53450  0.61485  1.0000
  C   C2644     1.0  0.86306  0.79017  0.98437  1.0000
  H   H2117     1.0  0.83783  0.52547  0.63546  1.0000
  C   C2645     1.0  0.95892  0.58223  0.60302  1.0000
  Fe  Fe179     1.0  0.80527  0.82354  0.65282  1.0000
  S   S354      1.0  0.80492  0.78847  0.66786  1.0000
  S   S355      1.0  0.78147  0.85177  0.65521  1.0000
  Fe  Fe180     1.0  0.84854  0.81724  0.63453  1.0000
  S   S356      1.0  0.85098  0.78186  0.64843  1.0000
  S   S357      1.0  0.87612  0.83294  0.61808  1.0000
  Fe  Fe181     1.0  0.81994  0.77783  0.63435  1.0000
  S   S358      1.0  0.80869  0.75254  0.60802  1.0000
  Fe  Fe182     1.0  0.83622  0.79539  0.68083  1.0000
  S   S359      1.0  0.84693  0.78469  0.71754  1.0000
  S   S360      1.0  0.81854  0.81282  0.61869  1.0000
  S   S361      1.0  0.83562  0.83091  0.66756  1.0000
  H   H2118     1.0  0.92322  0.96873  0.52394  1.0000
  H   H2119     1.0  0.77892  0.79991  0.53593  1.0000
  Fe  Fe183     1.0  0.81691  0.62673  0.55200  1.0000
  S   S362      1.0  0.84522  0.60919  0.54056  1.0000
  S   S363      1.0  0.82234  0.64909  0.58329  1.0000
  H   H2120     1.0  0.90876  0.74289  0.92103  1.0000
  Fe  Fe184     1.0  0.82749  0.57760  0.53905  1.0000
  S   S364      1.0  0.83826  0.54187  0.55045  1.0000
  C   C2646     1.0  0.84761  0.49655  0.61656  1.0000
  S   S365      1.0  0.79967  0.59449  0.55258  1.0000
  Fe  Fe185     1.0  0.96455  0.65090  0.96802  1.0000
  S   S366      1.0  0.97582  0.68421  0.95287  1.0000
  Fe  Fe186     1.0  0.94730  0.60367  0.96309  1.0000
  S   S367      1.0  0.93958  0.57852  0.93539  1.0000
  H   H2121     1.0  0.93855  0.93487  0.54281  1.0000
  S   S368      1.0  0.93348  0.63834  0.96448  1.0000
  S   S369      1.0  0.97874  0.61663  0.96342  1.0000
  C   C2647     1.0  0.81123  0.78531  0.92781  1.0000
  S   S370      1.0  0.84533  0.85307  0.97540  1.0000
  Fe  Fe187     1.0  0.92337  0.81980  0.82683  1.0000
  S   S371      1.0  0.93877  0.84991  0.84089  1.0000
  S   S372      1.0  0.90271  0.82730  0.79527  1.0000
  Fe  Fe188     1.0  0.94298  0.78913  0.86460  1.0000
  S   S373      1.0  0.95973  0.81732  0.88064  1.0000
  S   S374      1.0  0.93942  0.75223  0.87575  1.0000
  Fe  Fe189     1.0  0.93044  0.83663  0.87651  1.0000
  S   S375      1.0  0.91857  0.86111  0.90371  1.0000
  Fe  Fe190     1.0  0.96713  0.82896  0.84383  1.0000
  S   S376      1.0  0.91343  0.80806  0.86241  1.0000
  S   S377      1.0  0.95207  0.79931  0.82801  1.0000
  C   C2648     1.0  0.86514  0.85648  0.95490  1.0000
  C   C2649     1.0  0.87736  0.87519  0.95422  1.0000
  C   C2650     1.0  0.89353  0.87634  0.93838  1.0000
  C   C2651     1.0  0.89770  0.85888  0.92299  1.0000
  C   C2652     1.0  0.88532  0.84030  0.92352  1.0000
  C   C2653     1.0  0.86918  0.83917  0.93935  1.0000
  H   H2122     1.0  0.87452  0.88862  0.96608  1.0000
  H   H2123     1.0  0.90298  0.89081  0.93812  1.0000
  H   H2124     1.0  0.88829  0.82673  0.91185  1.0000
  H   H2125     1.0  0.85966  0.82482  0.93950  1.0000
  C   C2654     1.0  0.96457  0.70345  0.93243  1.0000
  C   C2655     1.0  0.97284  0.72478  0.92907  1.0000
  C   C2656     1.0  0.96506  0.74018  0.91234  1.0000
  C   C2657     1.0  0.94904  0.73431  0.89843  1.0000
  C   C2658     1.0  0.94056  0.71312  0.90205  1.0000
  C   C2659     1.0  0.94812  0.69787  0.91904  1.0000
  H   H2126     1.0  0.91082  0.61867  0.59549  1.0000
  H   H2127     1.0  0.97180  0.75635  0.90981  1.0000
  H   H2128     1.0  0.92817  0.70834  0.89145  1.0000
  H   H2129     1.0  0.94155  0.68160  0.92137  1.0000
  C   C2660     1.0  0.86223  0.79707  0.73903  1.0000
  C   C2661     1.0  0.86894  0.78382  0.75806  1.0000
  C   C2662     1.0  0.88126  0.79266  0.77534  1.0000
  C   C2663     1.0  0.88707  0.81501  0.77400  1.0000
  C   C2664     1.0  0.88003  0.82837  0.75519  1.0000
  C   C2665     1.0  0.86788  0.81949  0.73777  1.0000
  H   H2130     1.0  0.86468  0.76649  0.75940  1.0000
  H   H2131     1.0  0.88610  0.78219  0.78980  1.0000
  H   H2132     1.0  0.88411  0.84575  0.75401  1.0000
  H   H2133     1.0  0.86289  0.83003  0.72339  1.0000
  C   C2666     1.0  0.81337  0.72389  0.60113  1.0000
  C   C2667     1.0  0.82694  0.71010  0.61340  1.0000
  C   C2668     1.0  0.82966  0.68742  0.60748  1.0000
  C   C2669     1.0  0.81895  0.67815  0.58920  1.0000
  C   C2670     1.0  0.80554  0.69202  0.57681  1.0000
  C   C2671     1.0  0.80286  0.71470  0.58267  1.0000
  H   H2134     1.0  0.83513  0.71681  0.62766  1.0000
  H   H2135     1.0  0.84000  0.67690  0.61730  1.0000
  H   H2136     1.0  0.79682  0.68510  0.56312  1.0000
  H   H2137     1.0  0.79221  0.72507  0.57313  1.0000
  C   C2672     1.0  0.89012  0.84581  0.54087  1.0000
  C   C2673     1.0  0.87045  0.84163  0.54817  1.0000
  C   C2674     1.0  0.86592  0.83726  0.57168  1.0000
  C   C2675     1.0  0.88110  0.83730  0.58817  1.0000
  C   C2676     1.0  0.90078  0.84160  0.58089  1.0000
  C   C2677     1.0  0.90533  0.84568  0.55731  1.0000
  H   H2138     1.0  0.85868  0.84206  0.53555  1.0000
  H   H2139     1.0  0.85070  0.83423  0.57713  1.0000
  H   H2140     1.0  0.91260  0.84177  0.59357  1.0000
  H   H2141     1.0  0.92054  0.84893  0.55193  1.0000
  C   C2678     1.0  0.84159  0.52494  0.57639  1.0000
  C   C2679     1.0  0.83774  0.53294  0.59862  1.0000
  H   H2142     1.0  0.83220  0.54986  0.60058  1.0000
  C   C2680     1.0  0.90613  0.51232  0.94593  1.0000
  C   C2681     1.0  0.91214  0.52445  0.96519  1.0000
  C   C2682     1.0  0.92262  0.54456  0.96229  1.0000
  C   C2683     1.0  0.92717  0.55280  0.94006  1.0000
  C   C2684     1.0  0.92159  0.54039  0.92082  1.0000
  C   C2685     1.0  0.91113  0.52027  0.92372  1.0000
  H   H2143     1.0  0.90867  0.51829  0.98249  1.0000
  H   H2144     1.0  0.92710  0.55378  0.97719  1.0000
  H   H2145     1.0  0.92510  0.54659  0.90355  1.0000
  C   C2686     1.0  0.93349  0.82689  0.96458  1.0000
  S   S378      1.0  0.95410  0.83740  0.50319  1.0000
  C   C2687     1.0  0.76450  0.84049  0.74005  1.0000
  H   H2146     1.0  0.87245  0.55365  0.51077  1.0000
  H   H2147     1.0  0.94272  0.84155  0.96497  1.0000
  H   H2148     1.0  0.94135  0.87931  0.78043  1.0000
  H   H2149     1.0  0.96740  0.75429  0.73657  1.0000
  H   H2150     1.0  0.97241  0.57209  0.60515  1.0000
  H   H2151     1.0  0.86739  0.76371  0.86827  1.0000
  C   C2688     1.0  0.88196  0.68474  0.56019  1.0000
  C   C2689     1.0  0.87326  0.66373  0.55808  1.0000
  C   C2690     1.0  0.87341  0.64855  0.57689  1.0000
  C   C2691     1.0  0.88230  0.65412  0.59771  1.0000
  C   C2692     1.0  0.89182  0.67455  0.59955  1.0000
  C   C2693     1.0  0.89184  0.68972  0.58078  1.0000
  C   C2694     1.0  0.92343  0.58516  0.59442  1.0000
  C   C2695     1.0  0.93083  0.81605  0.94371  1.0000
  H   H2152     1.0  0.91726  0.52288  0.78403  1.0000
  H   H2153     1.0  0.96803  0.81458  0.77064  1.0000
  C   C2696     1.0  0.78722  0.51599  0.60898  1.0000
  H   H2154     1.0  0.96683  0.85035  0.79082  1.0000
  H   H2155     1.0  0.94809  0.55500  0.86371  1.0000
  S   S379      1.0  0.89478  0.85152  0.51111  1.0000
  C   C2697     1.0  0.77111  0.90784  0.51000  1.0000
  H   H2156     1.0  0.88770  0.50536  0.63652  1.0000
  C   C2698     1.0  0.92740  0.74167  0.97658  1.0000
  H   H2157     1.0  0.86582  0.63282  0.57568  1.0000
  H   H2158     1.0  0.88157  0.64271  0.61248  1.0000
  H   H2159     1.0  0.89871  0.67888  0.61571  1.0000
  H   H2160     1.0  0.89902  0.70564  0.58261  1.0000
  C   C2699     1.0  0.75710  0.87819  0.87332  1.0000
  C   C2700     1.0  0.79697  0.51551  0.52314  1.0000
  H   H2161     1.0  0.89648  0.62244  0.93764  1.0000
  H   H2162     1.0  0.90375  0.68354  0.96951  1.0000
  H   H2163     1.0  0.75283  0.89431  0.86575  1.0000
  H   H2164     1.0  0.85705  0.91719  0.54658  1.0000
  H   H2165     1.0  0.81061  0.80062  0.89378  1.0000
  H   H2166     1.0  0.89265  0.75144  0.52384  1.0000
  C   C2701     1.0  0.83334  0.84473  0.83531  1.0000
  C   C2702     1.0  0.85211  0.83513  0.84010  1.0000
  C   C2703     1.0  0.85724  0.82950  0.86292  1.0000
  C   C2704     1.0  0.84366  0.83342  0.88094  1.0000
  C   C2705     1.0  0.82478  0.84307  0.87634  1.0000
  C   C2706     1.0  0.81972  0.84879  0.85335  1.0000
  P   P90       1.0  0.80795  0.84898  0.90019  1.0000
  C   C2707     1.0  0.80887  0.82546  0.92040  1.0000
  C   C2708     1.0  0.81533  0.87408  0.91446  1.0000
  C   C2709     1.0  0.80139  0.88584  0.92811  1.0000
  C   C2710     1.0  0.80694  0.90515  0.93938  1.0000
  C   C2711     1.0  0.82646  0.91283  0.93727  1.0000
  C   C2712     1.0  0.84041  0.90128  0.92373  1.0000
  C   C2713     1.0  0.83493  0.88194  0.91241  1.0000
  C   C2714     1.0  0.81024  0.80356  0.91221  1.0000
  C   C2715     1.0  0.88590  0.61854  0.97284  1.0000
  C   C2716     1.0  0.81070  0.78880  0.95166  1.0000
  C   C2717     1.0  0.80897  0.81051  0.95988  1.0000
  C   C2718     1.0  0.80807  0.82876  0.94436  1.0000
  C   C2719     1.0  0.78257  0.85338  0.89020  1.0000
  C   C2720     1.0  0.77698  0.87390  0.87958  1.0000
  C   C2721     1.0  0.77614  0.79313  0.57254  1.0000
  C   C2722     1.0  0.89555  0.57737  0.55632  1.0000
  H   H2167     1.0  0.82951  0.84925  0.81759  1.0000
  H   H2168     1.0  0.86282  0.83229  0.82617  1.0000
  H   H2169     1.0  0.87190  0.82245  0.86672  1.0000
  H   H2170     1.0  0.84806  0.82930  0.89854  1.0000
  H   H2171     1.0  0.80541  0.85648  0.84925  1.0000
  H   H2172     1.0  0.78628  0.87994  0.93043  1.0000
  H   H2173     1.0  0.79614  0.91395  0.95009  1.0000
  H   H2174     1.0  0.83084  0.92754  0.94640  1.0000
  H   H2175     1.0  0.85565  0.90700  0.92238  1.0000
  H   H2176     1.0  0.84620  0.87313  0.90248  1.0000
  H   H2177     1.0  0.91714  0.87257  0.74912  1.0000
  H   H2178     1.0  0.95778  0.50489  0.79706  1.0000
  H   H2179     1.0  0.86960  0.78974  0.58036  1.0000
  H   H2180     1.0  0.80849  0.81334  0.97836  1.0000
  H   H2181     1.0  0.80703  0.84539  0.95125  1.0000
  H   H2182     1.0  0.78794  0.88681  0.87671  1.0000
  C   C2723     1.0  0.90131  0.54276  0.59402  1.0000
  H   H2183     1.0  0.90669  0.51112  0.90878  1.0000
  C   C2724     1.0  0.79774  0.82341  0.74346  1.0000
  C   C2725     1.0  0.80472  0.83758  0.72577  1.0000
  C   C2726     1.0  0.79169  0.85310  0.71512  1.0000
  C   C2727     1.0  0.95947  0.60530  0.60611  1.0000
  H   H2184     1.0  0.90770  0.61076  0.55493  1.0000
  H   H2185     1.0  0.77379  0.84061  0.53925  1.0000
  H   H2186     1.0  0.75451  0.88969  0.65582  1.0000
  H   H2187     1.0  0.95844  0.97189  0.50688  1.0000
  H   H2188     1.0  0.88168  0.50119  0.80370  1.0000
  C   C2728     1.0  0.84088  0.51894  0.61846  1.0000
  H   H2189     1.0  0.93598  0.79273  0.78358  1.0000
  C   C2729     1.0  0.93923  0.51251  0.82685  1.0000
  C   C2730     1.0  0.88695  0.93140  0.51250  1.0000
  H   H2190     1.0  0.96527  0.93111  0.50635  1.0000
  C   C2731     1.0  0.91550  0.95303  0.52393  1.0000
  C   C2732     1.0  0.89577  0.60212  0.52221  1.0000
  C   C2733     1.0  0.90889  0.78949  0.96296  1.0000
  H   H2191     1.0  0.88939  0.63548  0.97751  1.0000
  C   C2734     1.0  0.88075  0.56581  0.52025  1.0000
  C   C2735     1.0  0.91971  0.71546  0.52421  1.0000
  C   C2736     1.0  0.95018  0.54400  0.84917  1.0000
  C   C2737     1.0  0.86055  0.58604  0.59348  1.0000
  H   H2192     1.0  0.80783  0.81098  0.75118  1.0000
  H   H2193     1.0  0.82014  0.83613  0.71997  1.0000
  H   H2194     1.0  0.79700  0.86362  0.70091  1.0000
  H   H2195     1.0  0.89277  0.85259  0.99481  1.0000
  C   C2738     1.0  0.74547  0.87494  0.65742  1.0000
  C   C2739     1.0  0.83790  0.76145  0.51467  1.0000
  C   C2740     1.0  0.85867  0.70185  0.51918  1.0000
  C   C2741     1.0  0.77163  0.85445  0.72205  1.0000
  H   H2196     1.0  0.85158  0.49612  0.55749  1.0000
  C   C2742     1.0  0.77331  0.83017  0.55475  1.0000
  H   H2197     1.0  0.75995  0.84960  0.78950  1.0000
  H   H2198     1.0  0.94248  0.63625  0.60574  1.0000
  H   H2199     1.0  0.82050  0.56379  0.99471  1.0000
  C   C2743     1.0  0.85540  0.52382  0.98151  1.0000
  H   H2200     1.0  0.83014  0.59786  0.59759  1.0000
  H   H2201     1.0  0.91804  0.83704  0.72861  1.0000
  H   H2202     1.0  0.85784  0.71974  0.57809  1.0000
  H   H2203     1.0  0.83595  0.61421  0.63583  1.0000
  C   C2744     1.0  0.86706  0.60393  0.63699  1.0000
  C   C2745     1.0  0.94100  0.57218  0.59719  1.0000
  C   C2746     1.0  0.84815  0.60580  0.62691  1.0000
  C   C2747     1.0  0.76997  0.83947  0.57661  1.0000
  H   H2204     1.0  0.87525  0.55745  0.95653  1.0000
  H   H2205     1.0  0.92435  0.52510  0.85764  1.0000
  C   C2748     1.0  0.90927  0.79646  0.70725  1.0000
  C   C2749     1.0  0.78710  0.87779  0.59870  1.0000
  C   C2750     1.0  0.78424  0.89505  0.61451  1.0000
  C   C2751     1.0  0.79990  0.90129  0.62877  1.0000
  C   C2752     1.0  0.81850  0.89036  0.62739  1.0000
  C   C2753     1.0  0.82155  0.87332  0.61157  1.0000
  C   C2754     1.0  0.80595  0.86711  0.59722  1.0000
  C   C2755     1.0  0.86655  0.77539  0.92575  1.0000
  H   H2206     1.0  0.74466  0.95752  0.98956  1.0000
  H   H2207     1.0  0.98555  0.72933  0.93929  1.0000
  C   C2756     1.0  0.98023  0.55165  0.98384  1.0000
  H   H2208     1.0  0.77329  0.79148  0.60968  1.0000
  C   C2757     1.0  0.88589  0.58611  0.50961  1.0000
  C   C2758     1.0  0.89927  0.71928  0.96586  1.0000
  C   C2759     1.0  0.76918  0.88411  0.55247  1.0000
  C   C2760     1.0  0.88285  0.59358  0.62505  1.0000
  H   H2209     1.0  0.88422  0.71789  0.95935  1.0000
  C   C2761     1.0  0.78490  0.89882  0.54784  1.0000
  H   H2210     1.0  0.93452  0.75760  0.97837  1.0000
  H   H2211     1.0  0.76909  0.53766  0.58746  1.0000
  C   C2762     1.0  0.77301  0.80227  0.59430  1.0000
  C   C2763     1.0  0.90295  0.70236  0.52020  1.0000
  C   C2764     1.0  0.98316  0.80638  0.72077  1.0000
  H   H2212     1.0  0.81163  0.77474  0.96381  1.0000
  H   H2213     1.0  0.79740  0.91410  0.64147  1.0000
  H   H2214     1.0  0.83043  0.89472  0.63894  1.0000
  H   H2215     1.0  0.83588  0.86453  0.61089  1.0000
  H   H2216     1.0  0.80852  0.85361  0.58536  1.0000
  S   S380      1.0  0.80750  0.63596  0.51565  1.0000
  H   H2217     1.0  0.80955  0.68830  0.52370  1.0000
  C   C2765     1.0  0.91210  0.50495  0.58469  1.0000
  H   H2218     1.0  0.88524  0.54547  0.62667  1.0000
  C   C2766     1.0  0.97718  0.76754  0.73092  1.0000
  H   H2219     1.0  0.88972  0.58335  0.92759  1.0000
  H   H2220     1.0  0.89072  0.96674  0.50484  1.0000
  C   C2767     1.0  0.74435  0.83314  0.81752  1.0000
  H   H2221     1.0  0.79633  0.90150  0.56058  1.0000
  C   C2768     1.0  0.93152  0.77749  0.77566  1.0000
  H   H2222     1.0  0.88209  0.79679  0.68751  1.0000
  H   H2223     1.0  0.87122  0.51991  0.98250  1.0000
  H   H2224     1.0  0.91293  0.72323  0.74822  1.0000
  C   C2769     1.0  0.91866  0.79738  0.94285  1.0000
  C   C2770     1.0  0.77632  0.80707  0.55276  1.0000
  S   S381      1.0  0.81985  0.58443  0.50115  1.0000
  C   C2771     1.0  0.82269  0.51401  0.96779  1.0000
  H   H2225     1.0  0.97338  0.61305  0.61062  1.0000
  C   C2772     1.0  0.84860  0.90585  0.53626  1.0000
  H   H2226     1.0  0.88858  0.78763  0.54347  1.0000
  H   H2227     1.0  0.76364  0.56073  0.54457  1.0000
  P   P91       1.0  0.89303  0.76543  0.96207  1.0000
  C   C2773     1.0  0.88590  0.58922  0.94470  1.0000
  C   C2774     1.0  0.87176  0.76342  0.88631  1.0000
  C   C2775     1.0  0.93701  0.71284  0.51068  1.0000
  H   H2228     1.0  0.85377  0.75589  0.59713  1.0000
  H   H2229     1.0  0.84758  0.78495  0.89704  1.0000
  C   C2776     1.0  0.78590  0.91051  0.52660  1.0000
  H   H2230     1.0  0.85781  0.78496  0.93794  1.0000
  H   H2231     1.0  0.80368  0.50725  0.53810  1.0000
  H   H2232     1.0  0.79893  0.53770  0.97454  1.0000
  C   C2777     1.0  0.93282  0.77515  0.75160  1.0000
  C   C2778     1.0  0.89496  0.75156  0.91632  1.0000
  H   H2233     1.0  0.89736  0.59211  0.63316  1.0000
  C   C2779     1.0  0.95648  0.84753  0.77690  1.0000
  C   C2780     1.0  0.92982  0.70127  0.97942  1.0000
  C   C2781     1.0  0.88453  0.75207  0.54004  1.0000
  C   C2782     1.0  0.87656  0.73259  0.55012  1.0000
  Fe  Fe191     1.0  0.79236  0.60235  0.51488  1.0000
  S   S382      1.0  0.76035  0.91395  0.98003  1.0000
  H   H2234     1.0  0.83862  0.88680  0.56610  1.0000
  H   H2235     1.0  0.76805  0.83217  0.61343  1.0000
  H   H2236     1.0  0.91696  0.78932  0.92641  1.0000
  H   H2237     1.0  0.82525  0.74389  0.54427  1.0000
  H   H2238     1.0  0.91768  0.53381  0.56298  1.0000
  C   C2783     1.0  0.77008  0.82533  0.59636  1.0000
  C   C2784     1.0  0.75486  0.85365  0.65752  1.0000
  H   H2239     1.0  0.88852  0.89641  0.52293  1.0000
  C   C2785     1.0  0.92838  0.80685  0.66531  1.0000
  C   C2786     1.0  0.77456  0.50566  0.57144  1.0000
  C   C2787     1.0  0.82511  0.77942  0.54902  1.0000
  H   H2240     1.0  0.74978  0.81829  0.65958  1.0000
  C   C2788     1.0  0.83806  0.88870  0.54740  1.0000
  C   C2789     1.0  0.93956  0.80448  0.68565  1.0000
  H   H2241     1.0  0.82774  0.81512  0.54951  1.0000
  C   C2790     1.0  0.88213  0.77262  0.55099  1.0000
  C   C2791     1.0  0.86501  0.73427  0.57048  1.0000
  H   H2242     1.0  0.98602  0.95240  0.65115  1.0000
  H   H2243     1.0  0.81928  0.86031  0.54309  1.0000
  C   C2792     1.0  0.94207  0.61835  0.60338  1.0000
  H   H2244     1.0  0.86798  0.80430  0.97393  1.0000
  H   H2245     1.0  0.93802  0.82234  0.92805  1.0000
  C   C2793     1.0  0.92411  0.93401  0.53457  1.0000
  H   H2246     1.0  0.87657  0.49760  0.88945  1.0000
  H   H2247     1.0  0.84116  0.74626  0.50554  1.0000
  P   P92       1.0  0.94398  0.79663  0.73343  1.0000
  H   H2248     1.0  0.89770  0.74238  0.88061  1.0000
  H   H2249     1.0  0.88073  0.54594  0.55154  1.0000
  C   C2794     1.0  0.98762  0.94414  0.61506  1.0000
  C   C2795     1.0  0.75525  0.89350  0.51463  1.0000
  C   C2796     1.0  0.91830  0.73830  0.75589  1.0000
  C   C2797     1.0  0.86108  0.50405  0.85740  1.0000
  C   C2798     1.0  0.82888  0.76004  0.53658  1.0000
  C   C2799     1.0  0.95547  0.51573  0.81164  1.0000
  C   C2800     1.0  0.83027  0.80022  0.53954  1.0000
  H   H2250     1.0  0.77246  0.81304  0.76366  1.0000
  C   C2801     1.0  0.97469  0.50528  0.98265  1.0000
  C   C2802     1.0  0.91415  0.91373  0.53436  1.0000
  C   C2803     1.0  0.88984  0.61124  0.95042  1.0000
  H   H2251     1.0  0.94975  0.72335  0.51348  1.0000
  C   C2804     1.0  0.88553  0.56146  0.54347  1.0000
  H   H2252     1.0  0.81214  0.98394  0.52476  1.0000
  H   H2253     1.0  0.86944  0.61059  0.65401  1.0000
  C   C2805     1.0  0.84740  0.54340  0.99119  1.0000
  C   C2806     1.0  0.84487  0.59665  0.60528  1.0000
  C   C2807     1.0  0.82726  0.87372  0.53443  1.0000
  C   C2808     1.0  0.82432  0.98083  0.51272  1.0000
  C   C2809     1.0  0.89697  0.95180  0.51302  1.0000
  C   C2810     1.0  0.91321  0.50429  0.75310  1.0000
  C   C2811     1.0  0.82698  0.54847  0.98827  1.0000
  C   C2812     1.0  0.76797  0.83715  0.89422  1.0000
  H   H2254     1.0  0.93566  0.81105  0.64901  1.0000
  C   C2813     1.0  0.93845  0.72214  0.98173  1.0000
  C   C2814     1.0  0.88882  0.75137  0.89325  1.0000
  C   C2815     1.0  0.88387  0.76357  0.93280  1.0000
  C   C2816     1.0  0.91026  0.69982  0.97144  1.0000
  C   C2817     1.0  0.87775  0.57456  0.96126  1.0000
  H   H2255     1.0  0.85755  0.57844  0.57708  1.0000
  H   H2256     1.0  0.84670  0.50665  0.86575  1.0000
  C   C2818     1.0  0.86061  0.77539  0.90256  1.0000
  H   H2257     1.0  0.95550  0.80690  0.68480  1.0000
  C   C2819     1.0  0.90770  0.80399  0.66595  1.0000
  C   C2820     1.0  0.87138  0.77389  0.57178  1.0000
  C   C2821     1.0  0.74750  0.83905  0.79421  1.0000
  C   C2822     1.0  0.84036  0.69611  0.52941  1.0000
  H   H2258     1.0  0.76984  0.90327  0.61647  1.0000
  C   C2823     1.0  0.92620  0.75535  0.74180  1.0000
  C   C2824     1.0  0.96890  0.53293  0.81519  1.0000
  H   H2259     1.0  0.91954  0.72766  0.53775  1.0000
  H   H2260     1.0  0.77169  0.82136  0.90278  1.0000
  H   H2261     1.0  0.91141  0.51908  0.74208  1.0000
  H   H2262     1.0  0.90162  0.79265  0.72340  1.0000
  C   C2825     1.0  0.97965  0.51745  0.96235  1.0000
  H   H2263     1.0  0.89918  0.61810  0.51403  1.0000
  C   C2826     1.0  0.98218  0.54057  0.96294  1.0000
  H   H2264     1.0  0.89902  0.80591  0.65023  1.0000
  C   C2827     1.0  0.89816  0.79883  0.68693  1.0000
  H   H2265     1.0  0.83919  0.69346  0.54798  1.0000
  C   C2828     1.0  0.94217  0.86391  0.77096  1.0000
  H   H2266     1.0  0.92085  0.89882  0.54233  1.0000
  C   C2829     1.0  0.90762  0.74039  0.96881  1.0000
  H   H2267     1.0  0.91116  0.72757  0.79086  1.0000
  C   C2830     1.0  0.83912  0.80169  0.51753  1.0000
  C   C2831     1.0  0.87354  0.58184  0.98375  1.0000
  C   C2832     1.0  0.77771  0.82478  0.75054  1.0000
  C   C2833     1.0  0.91103  0.52781  0.57905  1.0000
  C   C2834     1.0  0.89811  0.49579  0.83571  1.0000
  H   H2268     1.0  0.78867  0.52818  0.62241  1.0000
  C   C2835     1.0  0.86261  0.75478  0.58135  1.0000
  C   C2836     1.0  0.87982  0.58523  0.60283  1.0000
  H   H2269     1.0  0.81251  0.76845  0.92144  1.0000
  C   C2837     1.0  0.95707  0.82724  0.76540  1.0000
  P   P93       1.0  0.88029  0.70555  0.53712  1.0000
  H   H2270     1.0  0.98135  0.53534  0.80335  1.0000
  C   C2838     1.0  0.92856  0.86010  0.75331  1.0000
  H   H2271     1.0  0.76172  0.86598  0.71282  1.0000
  H   H2272     1.0  0.75284  0.79925  0.72428  1.0000
  C   C2839     1.0  0.74840  0.55680  0.54944  1.0000
  C   C2840     1.0  0.89574  0.91240  0.52328  1.0000
  C   C2841     1.0  0.92395  0.76028  0.78976  1.0000
  C   C2842     1.0  0.94326  0.82313  0.74785  1.0000
  C   C2843     1.0  0.93004  0.79921  0.70679  1.0000
  P   P94       1.0  0.75993  0.51204  0.54583  1.0000
  C   C2844     1.0  0.89439  0.51170  0.62057  1.0000
  C   C2845     1.0  0.74808  0.84152  0.88796  1.0000
  C   C2846     1.0  0.92908  0.83980  0.74177  1.0000
  H   H2273     1.0  0.92706  0.75314  0.72325  1.0000
  H   H2274     1.0  0.86584  0.65924  0.54227  1.0000
  H   H2275     1.0  0.74627  0.91241  0.58432  1.0000
  P   P95       1.0  0.90014  0.57235  0.58692  1.0000
  C   C2847     1.0  0.81467  0.53375  0.97675  1.0000
  C   C2848     1.0  0.84878  0.90784  0.51196  1.0000
  C   C2849     1.0  0.87261  0.76915  0.98255  1.0000
  H   H2276     1.0  0.77867  0.77524  0.57116  1.0000
  C   C2850     1.0  0.75424  0.88173  0.53581  1.0000
  C   C2851     1.0  0.82351  0.69332  0.51570  1.0000
  C   C2852     1.0  0.96990  0.78956  0.72775  1.0000
  Fe  Fe192     1.0  0.83558  0.61752  0.50415  1.0000
  H   H2277     1.0  0.84347  0.81787  0.51071  1.0000
  C   C2853     1.0  0.83449  0.96014  0.51314  1.0000
  H   H2278     1.0  0.92299  0.76232  0.80837  1.0000
  C   C2854     1.0  0.93669  0.52685  0.84565  1.0000
  H   H2279     1.0  0.93846  0.68621  0.98342  1.0000
  H   H2280     1.0  0.95390  0.72306  0.98710  1.0000
  H   H2281     1.0  0.83002  0.94749  0.52568  1.0000
  C   C2855     1.0  0.91726  0.74073  0.77989  1.0000
  C   C2856     1.0  0.92414  0.60833  0.59759  1.0000
  C   C2857     1.0  0.90055  0.59783  0.54548  1.0000
  C   C2858     1.0  0.76859  0.53222  0.50296  1.0000
  P   P96       1.0  0.76716  0.86937  0.58002  1.0000
  C   C2859     1.0  0.92426  0.81879  0.98479  1.0000
  H   H2282     1.0  0.75446  0.83887  0.83062  1.0000
  H   H2283     1.0  0.97662  0.56043  0.83667  1.0000
  C   C2860     1.0  0.91659  0.50636  0.77684  1.0000
  C   C2861     1.0  0.90374  0.49690  0.60542  1.0000
  C   C2862     1.0  0.91200  0.80016  0.98402  1.0000
  C   C2863     1.0  0.84307  0.50912  0.97007  1.0000
  C   C2864     1.0  0.96626  0.54706  0.83394  1.0000
  C   C2865     1.0  0.77637  0.52046  0.52234  1.0000
  H   H2284     1.0  0.94099  0.55429  0.59492  1.0000
  H   H2285     1.0  0.98546  0.55004  0.94717  1.0000
  C   C2866     1.0  0.87807  0.60385  0.98956  1.0000
  H   H2286     1.0  0.79810  0.92178  0.52309  1.0000
  H   H2287     1.0  0.97789  0.82352  0.71844  1.0000
  H   H2288     1.0  0.98860  0.88486  0.85141  1.0000
  C   C2867     1.0  0.86627  0.75144  0.99711  1.0000
  C   C2868     1.0  0.75275  0.97143  0.99625  1.0000
  H   H2289     1.0  0.92267  0.79880  0.50312  1.0000
  H   H2290     1.0  0.87355  0.73521  0.99680  1.0000
  H   H2291     1.0  0.84944  0.50841  0.82292  1.0000
  C   C2869     1.0  0.86264  0.50509  0.83326  1.0000
  S   S383      1.0  0.75932  0.59665  0.50512  1.0000
  C   C2870     1.0  0.82693  0.87593  0.51029  1.0000
  C   C2871     1.0  0.88105  0.50092  0.82241  1.0000
  H   H2292     1.0  0.81321  0.50259  0.95880  1.0000
  C   C2872     1.0  0.84850  0.50262  0.57449  1.0000
  C   C2873     1.0  0.77354  0.96968  0.99797  1.0000
  H   H2293     1.0  0.89212  0.67401  0.50152  1.0000
  H   H2294     1.0  0.78125  0.95449  0.99271  1.0000
  C   C2874     1.0  0.87793  0.49886  0.87075  1.0000
  H   H2295     1.0  0.98237  0.56953  0.98428  1.0000
  H   H2296     1.0  0.98149  0.50925  0.94598  1.0000
  H   H2297     1.0  0.97165  0.94598  0.61243  1.0000
  C   C2875     1.0  0.80943  0.52180  0.50468  1.0000
  C   C2876     1.0  0.77617  0.52130  0.58906  1.0000
  H   H2298     1.0  0.82537  0.51842  0.50575  1.0000
  H   H2299     1.0  0.75287  0.53689  0.50214  1.0000
  C   C2877     1.0  0.84270  0.78233  0.50475  1.0000
  C   C2878     1.0  0.90442  0.68529  0.50391  1.0000
  S   S384      1.0  0.99225  0.88816  0.51851  1.0000
  H   H2300     1.0  0.99229  0.88812  0.89378  1.0000
  C   C2879     1.0  0.84715  0.79324  0.99988  1.0000
  H   H2301     1.0  0.90498  0.79407  0.99985  1.0000
  H   H2302     1.0  0.74358  0.89172  0.50192  1.0000
  H   H2303     1.0  0.74601  0.49532  0.50107  1.0000
  C   C2880     1.0  0.79679  0.49512  0.61142  1.0000
  H   H2304     1.0  0.81860  0.86427  0.50027  1.0000
