data_image0
_chemical_formula_structural       FeS2FeS2FeSFeS3CHCH3C2HC6HCH2C7H3SC2PHFeCHC2HCH2C2HC5PC11H11CHSC3HCH2C5HCH2CH2CH2C2H7C3FeHCHCH2C3HSC2HCH4CH3FeC3SHSC4HC2HCH2C4H3CHC4HCH6CHC3HC2HFeS2FeS2FeSFeS3H2SCSC4H2C6H4C6HCHC12HCH12CPC3HCHCHC3H3CH2CHC4HSC2HCHC3HCHCHC2PFeC2H3C5HPCH3CHC2HC6HCH3FeHCH2C2H2CHCPSH2C2H2C3HSCHC2HC3HC3H2CHCSCSH2SC2HCHC2FeHCHC4HC3HC5H5PC2H2CHFeHC2H4C2H2C4HC6HC3HC3H4C2HCH2PHCH3CHC2HC2HCH3FeSHFeSCFe2S2FeS2FeHFeCFeCS2H4C6H4SC2HC2HC5HCH3CH4C3H5C2HCPHCH2SHC5PC21H4C2H2CH2SCHCHCH3CH7SC2SH2CHSHCSC4H4CH2C2H3C3HCPH3C3H2C3H3C2H2C5HCSC3HCHCHCHCHC2HCHCFeHPH2SC2HC3SC2HC4HCHCH2CHCH3CFeSHCH3C2HCHC2H2C2SCH2CHC3HC2HCHCH5C4HCHC2HCH3C3H2C6H2C2SHC4H2FeCHC3PCHC2H2SCSH3C2H2PC2HC7H3C3H3CH3C7SC2HCH2C2HC2HCH3C3PCH4CH2C6FeCH5C2HCFe2S2FeCFeCS2FeS2FeHSCFeS3C2HC3HC6H4PC2HC2H2C4H4C3HC3HCH3SHCH4C3H3C3H7C2H2FeC2H2C2H3CH4C5HCFeS2CHC4H3CHC4H2CH4CHC4PCHC7H2C5H9C3H4CHSH2CHCHC2H2C4HCH3C3HC3PSH2C5SH3FeS2FeS2FeSFeS3CHSCH2SC7H4C8H4C3H3C4H2CHCFeCH2SC5H2C7H3C2HCHCHC2SC3SC2PH2C2HCH2PHCH2CH4CH2CH2CHC5H2CHCHC2HPC2HC2HCH2C2HCHC2H2SCHCHC6HC3H3CHC2H3C3H7FeS2FeSCFeSFeS3HCHCSPC4H4C6H4CHFeC5SHC6PC18H8SH11CSHFeCH3CHC4HC5HCHCH3C2HCHC3SHC2SH2PFeCH2CHCHCH2CHC3H2
_chemical_formula_sum              "Fe48 S96 C720 H576 P24"
_cell_length_a       32.0301
_cell_length_b       31.0036
_cell_length_c       51.6106
_cell_angle_alpha    89.4318
_cell_angle_beta     88.9229
_cell_angle_gamma    89.9298

_space_group_name_H-M_alt    "P 1"
_space_group_IT_number       1

loop_
  _space_group_symop_operation_xyz
  'x, y, z'

loop_
  _atom_site_type_symbol
  _atom_site_label
  _atom_site_symmetry_multiplicity
  _atom_site_fract_x
  _atom_site_fract_y
  _atom_site_fract_z
  _atom_site_occupancy
  Fe  Fe1       1.0  0.15645  0.19797  0.09543  1.0000
  S   S1        1.0  0.16479  0.12730  0.10437  1.0000
  S   S2        1.0  0.16704  0.23084  0.05587  1.0000
  Fe  Fe2       1.0  0.11793  0.21792  0.14945  1.0000
  S   S3        1.0  0.12217  0.14773  0.16111  1.0000
  S   S4        1.0  0.09106  0.25996  0.18224  1.0000
  Fe  Fe3       1.0  0.18742  0.14864  0.14362  1.0000
  S   S5        1.0  0.23363  0.11554  0.17140  1.0000
  Fe  Fe4       1.0  0.09977  0.13222  0.12147  1.0000
  S   S6        1.0  0.04875  0.08824  0.10707  1.0000
  S   S7        1.0  0.18391  0.21970  0.13354  1.0000
  S   S8        1.0  0.09044  0.20194  0.11098  1.0000
  C   C1        1.0  0.34526  0.17937  0.23911  1.0000
  H   H1        1.0  0.10160  0.12242  0.03917  1.0000
  C   C2        1.0  0.14753  0.45845  0.25256  1.0000
  H   H2        1.0  0.34186  0.42589  0.29519  1.0000
  H   H3        1.0  0.35366  0.08096  0.31403  1.0000
  H   H4        1.0  0.17636  0.04486  0.19513  1.0000
  C   C3        1.0  0.43846  0.38171  0.30156  1.0000
  C   C4        1.0  0.37437  0.15937  0.25507  1.0000
  H   H5        1.0  0.35595  0.07055  0.22115  1.0000
  C   C5        1.0  0.28868  0.10919  0.17536  1.0000
  C   C6        1.0  0.30297  0.09141  0.19877  1.0000
  C   C7        1.0  0.34583  0.08425  0.20297  1.0000
  C   C8        1.0  0.37543  0.09539  0.18380  1.0000
  C   C9        1.0  0.36134  0.11383  0.16047  1.0000
  C   C10       1.0  0.31826  0.12040  0.15617  1.0000
  H   H6        1.0  0.28063  0.08336  0.21384  1.0000
  C   C11       1.0  0.39374  0.33465  0.27712  1.0000
  H   H7        1.0  0.39464  0.13442  0.24726  1.0000
  H   H8        1.0  0.30800  0.13372  0.13792  1.0000
  C   C12       1.0  0.04847  0.40174  0.19050  1.0000
  C   C13       1.0  0.06166  0.38613  0.16615  1.0000
  C   C14       1.0  0.07491  0.34295  0.16313  1.0000
  C   C15       1.0  0.07485  0.31478  0.18448  1.0000
  C   C16       1.0  0.06129  0.33034  0.20875  1.0000
  C   C17       1.0  0.04807  0.37346  0.21177  1.0000
  C   C18       1.0  0.46704  0.26272  0.26250  1.0000
  H   H9        1.0  0.08515  0.33149  0.14432  1.0000
  H   H10       1.0  0.06124  0.30880  0.22534  1.0000
  H   H11       1.0  0.35340  0.21298  0.31097  1.0000
  S   S9        1.0  0.43166  0.04561  0.26096  1.0000
  C   C19       1.0  0.17851  0.16416  0.02028  1.0000
  C   C20       1.0  0.16980  0.20790  0.02425  1.0000
  P   P1        1.0  0.47449  0.30426  0.28626  1.0000
  H   H12       1.0  0.26627  0.05414  0.25434  1.0000
  Fe  Fe5       1.0  0.46229  0.05264  0.22182  1.0000
  C   C21       1.0  0.35120  0.20373  0.29086  1.0000
  H   H13       1.0  0.33086  0.35748  0.27164  1.0000
  C   C22       1.0  0.36109  0.36446  0.27967  1.0000
  C   C23       1.0  0.13005  0.01005  0.01200  1.0000
  H   H14       1.0  0.40057  0.15622  0.29315  1.0000
  C   C24       1.0  0.01632  0.35791  0.30306  1.0000
  H   H15       1.0  0.38797  0.30442  0.26752  1.0000
  H   H16       1.0  0.13689  0.42717  0.19011  1.0000
  C   C25       1.0  0.45408  0.27365  0.23743  1.0000
  C   C26       1.0  0.40582  0.41144  0.30405  1.0000
  H   H17       1.0  0.30096  0.49615  0.15409  1.0000
  C   C27       1.0  0.47817  0.21989  0.26801  1.0000
  C   C28       1.0  0.29456  0.22606  0.14938  1.0000
  C   C29       1.0  0.27730  0.22397  0.17445  1.0000
  C   C30       1.0  0.30065  0.23721  0.19567  1.0000
  C   C31       1.0  0.34132  0.25304  0.19138  1.0000
  P   P2        1.0  0.27913  0.23455  0.22827  1.0000
  C   C32       1.0  0.23371  0.19990  0.22945  1.0000
  C   C33       1.0  0.46050  0.19890  0.22451  1.0000
  C   C34       1.0  0.19491  0.21580  0.22139  1.0000
  C   C35       1.0  0.15973  0.18914  0.22213  1.0000
  C   C36       1.0  0.16296  0.14642  0.23063  1.0000
  C   C37       1.0  0.20133  0.13039  0.23878  1.0000
  C   C38       1.0  0.23661  0.15696  0.23821  1.0000
  C   C39       1.0  0.26281  0.28755  0.23885  1.0000
  C   C40       1.0  0.27469  0.32484  0.22486  1.0000
  C   C41       1.0  0.26004  0.36540  0.23254  1.0000
  C   C42       1.0  0.23593  0.29159  0.26052  1.0000
  H   H18       1.0  0.27672  0.21483  0.13313  1.0000
  H   H19       1.0  0.35978  0.26349  0.20751  1.0000
  H   H20       1.0  0.44085  0.25015  0.19920  1.0000
  H   H21       1.0  0.19181  0.24850  0.21404  1.0000
  H   H22       1.0  0.13004  0.20133  0.21552  1.0000
  H   H23       1.0  0.13585  0.12559  0.23040  1.0000
  H   H24       1.0  0.20385  0.09703  0.24487  1.0000
  H   H25       1.0  0.26611  0.14351  0.24404  1.0000
  H   H26       1.0  0.29440  0.32281  0.20768  1.0000
  H   H27       1.0  0.26867  0.39394  0.22140  1.0000
  H   H28       1.0  0.22550  0.26320  0.27122  1.0000
  C   C43       1.0  0.35848  0.25504  0.16626  1.0000
  H   H29       1.0  0.24612  0.21111  0.17712  1.0000
  S   S10       1.0  0.43015  0.08795  0.18837  1.0000
  C   C44       1.0  0.37756  0.17163  0.28092  1.0000
  C   C45       1.0  0.04351  0.15667  0.04131  1.0000
  C   C46       1.0  0.28961  0.04276  0.26756  1.0000
  H   H30       1.0  0.34846  0.24236  0.12582  1.0000
  C   C47       1.0  0.22148  0.33221  0.26819  1.0000
  H   H31       1.0  0.05092  0.32446  0.27326  1.0000
  H   H32       1.0  0.41047  0.44081  0.31490  1.0000
  C   C48       1.0  0.47650  0.28285  0.31883  1.0000
  C   C49       1.0  0.33512  0.24141  0.14528  1.0000
  C   C50       1.0  0.33871  0.05818  0.30141  1.0000
  C   C51       1.0  0.23348  0.36909  0.25420  1.0000
  C   C52       1.0  0.16843  0.49749  0.24826  1.0000
  H   H33       1.0  0.38996  0.26680  0.16298  1.0000
  C   C53       1.0  0.07256  0.12922  0.02954  1.0000
  H   H34       1.0  0.12023  0.40280  0.23495  1.0000
  H   H35       1.0  0.24685  0.02015  0.20539  1.0000
  C   C54       1.0  0.31856  0.21152  0.24891  1.0000
  H   H36       1.0  0.06198  0.40768  0.14953  1.0000
  H   H37       1.0  0.34326  0.16930  0.21913  1.0000
  C   C55       1.0  0.36720  0.40294  0.29301  1.0000
  H   H38       1.0  0.30152  0.24810  0.28309  1.0000
  H   H39       1.0  0.16916  0.05282  0.03356  1.0000
  C   C56       1.0  0.45061  0.24174  0.21856  1.0000
  C   C57       1.0  0.47446  0.18811  0.24922  1.0000
  H   H40       1.0  0.20034  0.33504  0.28475  1.0000
  H   H41       1.0  0.18255  0.14296  0.03680  1.0000
  H   H42       1.0  0.11974  0.05677  0.07111  1.0000
  H   H43       1.0  0.38385  0.12264  0.14546  1.0000
  H   H44       1.0  0.04373  0.36605  0.31398  1.0000
  H   H45       1.0  0.22168  0.40047  0.25991  1.0000
  H   H46       1.0  0.05484  0.05994  0.16121  1.0000
  C   C58       1.0  0.32177  0.22365  0.27494  1.0000
  C   C59       1.0  0.03076  0.04142  0.15202  1.0000
  C   C60       1.0  0.14671  0.44635  0.20636  1.0000
  Fe  Fe6       1.0  0.01974  0.49244  0.23134  1.0000
  H   H47       1.0  0.44737  0.30689  0.23237  1.0000
  C   C61       1.0  0.30824  0.07217  0.28419  1.0000
  H   H48       1.0  0.03782  0.38502  0.23055  1.0000
  C   C62       1.0  0.35043  0.01478  0.30206  1.0000
  H   H49       1.0  0.45764  0.17404  0.20997  1.0000
  H   H50       1.0  0.29940  0.10588  0.28355  1.0000
  C   C63       1.0  0.43297  0.34355  0.28757  1.0000
  C   C64       1.0  0.02189  0.04897  0.12595  1.0000
  C   C65       1.0  0.14022  0.03470  0.03348  1.0000
  H   H51       1.0  0.49990  0.38867  0.26339  1.0000
  S   S11       1.0  0.49550  0.11468  0.30909  1.0000
  C   C66       1.0  0.11248  0.03689  0.05461  1.0000
  C   C67       1.0  0.13704  0.43268  0.23163  1.0000
  H   H52       1.0  0.04996  0.17007  0.06015  1.0000
  C   C68       1.0  0.02031  0.33454  0.28012  1.0000
  H   H53       1.0  0.25494  0.49562  0.19300  1.0000
  H   H54       1.0  0.13827  0.44896  0.27211  1.0000
  H   H55       1.0  0.42845  0.23516  0.31320  1.0000
  H   H56       1.0  0.05274  0.01893  0.07022  1.0000
  C   C69       1.0  0.07453  0.01475  0.05422  1.0000
  H   H57       1.0  0.48246  0.15507  0.25395  1.0000
  H   H58       1.0  0.49027  0.21093  0.28669  1.0000
  H   H59       1.0  0.17273  0.49658  0.18226  1.0000
  Fe  Fe7       1.0  0.49407  0.06603  0.27626  1.0000
  C   C70       1.0  0.44893  0.25000  0.32689  1.0000
  C   C71       1.0  0.18069  0.02216  0.21104  1.0000
  C   C72       1.0  0.16721  0.48564  0.20200  1.0000
  S   S12       1.0  0.03326  0.45672  0.19341  1.0000
  H   H60       1.0  0.46786  0.38831  0.31091  1.0000
  S   S13       1.0  0.02397  0.46697  0.27201  1.0000
  C   C73       1.0  0.14631  0.00690  0.22539  1.0000
  C   C74       1.0  0.50151  0.30281  0.33724  1.0000
  C   C75       1.0  0.22088  0.00815  0.21704  1.0000
  C   C76       1.0  0.00840  0.00962  0.16617  1.0000
  H   H61       1.0  0.11512  0.01751  0.22051  1.0000
  C   C77       1.0  0.00702  0.16777  0.02845  1.0000
  C   C78       1.0  0.41310  0.41472  0.60534  1.0000
  H   H62       1.0  0.07254  0.48086  0.66572  1.0000
  C   C79       1.0  0.44781  0.23593  0.35272  1.0000
  H   H63       1.0  0.46780  0.49505  0.61635  1.0000
  H   H64       1.0  0.33510  0.44405  0.53447  1.0000
  C   C80       1.0  0.34438  0.47647  0.53946  1.0000
  C   C81       1.0  0.41082  0.42297  0.63194  1.0000
  C   C82       1.0  0.28045  0.46780  0.66376  1.0000
  C   C83       1.0  0.48351  0.38775  0.60995  1.0000
  H   H65       1.0  0.40059  0.47450  0.51619  1.0000
  H   H66       1.0  0.38673  0.42214  0.59322  1.0000
  H   H67       1.0  0.29066  0.48750  0.56433  1.0000
  C   C84       1.0  0.44943  0.39712  0.59435  1.0000
  H   H68       1.0  0.47147  0.47410  0.43136  1.0000
  C   C85       1.0  0.48161  0.39663  0.63647  1.0000
  C   C86       1.0  0.44543  0.41487  0.64763  1.0000
  C   C87       1.0  0.38131  0.49395  0.52899  1.0000
  C   C88       1.0  0.46611  0.47364  0.36933  1.0000
  H   H69       1.0  0.30338  0.47350  0.64840  1.0000
  C   C89       1.0  0.47325  0.25557  0.37086  1.0000
  H   H70       1.0  0.45126  0.39080  0.57374  1.0000
  H   H71       1.0  0.44364  0.44890  0.37459  1.0000
  H   H72       1.0  0.42733  0.20974  0.35867  1.0000
  H   H73       1.0  0.47239  0.24486  0.39090  1.0000
  H   H74       1.0  0.38211  0.43585  0.64007  1.0000
  H   H75       1.0  0.41516  0.50569  0.65748  1.0000
  C   C90       1.0  0.31938  0.50086  0.55627  1.0000
  H   H76       1.0  0.41575  0.33895  0.66639  1.0000
  C   C91       1.0  0.49973  0.28927  0.36315  1.0000
  C   C92       1.0  0.25306  0.50078  0.67106  1.0000
  C   C93       1.0  0.48522  0.50014  0.55304  1.0000
  H   H77       1.0  0.30051  0.40263  0.67128  1.0000
  C   C94       1.0  0.50197  0.49684  0.50717  1.0000
  C   C95       1.0  0.50450  0.46755  0.43334  1.0000
  H   H78       1.0  0.49889  0.40029  0.42399  1.0000
  Fe  Fe8       1.0  0.11382  0.16551  0.85902  1.0000
  S   S14       1.0  0.12169  0.21672  0.88907  1.0000
  S   S15       1.0  0.04849  0.14113  0.85081  1.0000
  Fe  Fe9       1.0  0.20724  0.16631  0.84310  1.0000
  S   S16       1.0  0.22181  0.21701  0.87269  1.0000
  S   S17       1.0  0.24806  0.13613  0.81081  1.0000
  Fe  Fe10      1.0  0.17903  0.17973  0.90037  1.0000
  S   S18       1.0  0.19127  0.15441  0.94159  1.0000
  Fe  Fe11      1.0  0.16282  0.25033  0.85920  1.0000
  S   S19       1.0  0.16081  0.32368  0.85277  1.0000
  S   S20       1.0  0.16880  0.12637  0.87147  1.0000
  S   S21       1.0  0.15064  0.20191  0.82833  1.0000
  H   H79       1.0  0.37059  0.08216  0.76197  1.0000
  H   H80       1.0  0.01746  0.20138  0.81628  1.0000
  S   S22       1.0  0.03782  0.42912  0.77901  1.0000
  C   C96       1.0  0.37594  0.45711  0.71219  1.0000
  S   S23       1.0  0.44232  0.09017  0.79636  1.0000
  C   C97       1.0  0.49308  0.44810  0.69079  1.0000
  C   C98       1.0  0.18020  0.17560  0.97303  1.0000
  C   C99       1.0  0.18387  0.14824  0.99485  1.0000
  C   C100      1.0  0.17001  0.21897  0.97698  1.0000
  H   H81       1.0  0.19185  0.11469  0.99207  1.0000
  H   H82       1.0  0.16725  0.24050  0.96047  1.0000
  C   C101      1.0  0.12800  0.35300  0.83133  1.0000
  C   C102      1.0  0.10577  0.33264  0.81185  1.0000
  C   C103      1.0  0.07911  0.35685  0.79586  1.0000
  C   C104      1.0  0.07411  0.40157  0.79903  1.0000
  C   C105      1.0  0.09723  0.42223  0.81799  1.0000
  C   C106      1.0  0.12414  0.39804  0.83396  1.0000
  H   H83       1.0  0.10866  0.29815  0.80936  1.0000
  H   H84       1.0  0.06188  0.34073  0.78107  1.0000
  H   H85       1.0  0.09379  0.45658  0.82069  1.0000
  H   H86       1.0  0.14142  0.41417  0.84884  1.0000
  C   C107      1.0  0.30240  0.12429  0.80725  1.0000
  C   C108      1.0  0.33091  0.13160  0.82694  1.0000
  C   C109      1.0  0.37352  0.12103  0.82319  1.0000
  C   C110      1.0  0.38824  0.10307  0.79978  1.0000
  C   C111      1.0  0.35978  0.09582  0.78008  1.0000
  C   C112      1.0  0.31719  0.10635  0.78384  1.0000
  H   H87       1.0  0.32012  0.14529  0.84507  1.0000
  C   C113      1.0  0.44174  0.22469  0.80599  1.0000
  H   H88       1.0  0.03750  0.26224  0.84154  1.0000
  C   C114      1.0  0.34496  0.48738  0.71852  1.0000
  C   C115      1.0  0.02571  0.29444  0.84487  1.0000
  C   C116      1.0  0.03063  0.08890  0.85955  1.0000
  C   C117      1.0  0.04526  0.31979  0.86332  1.0000
  C   C118      1.0  0.00856  0.25160  0.78757  1.0000
  C   C119      1.0  0.19106  0.31786  0.75166  1.0000
  C   C120      1.0  0.20225  0.32059  0.77764  1.0000
  C   C121      1.0  0.20905  0.36086  0.78865  1.0000
  C   C122      1.0  0.20410  0.39853  0.77390  1.0000
  C   C123      1.0  0.19219  0.39619  0.74786  1.0000
  C   C124      1.0  0.18615  0.35547  0.73679  1.0000
  C   C125      1.0  0.14562  0.49517  0.76773  1.0000
  H   H89       1.0  0.07219  0.30733  0.87343  1.0000
  C   C126      1.0  0.02783  0.21471  0.79784  1.0000
  H   H90       1.0  0.18541  0.28656  0.74329  1.0000
  H   H91       1.0  0.20493  0.29161  0.78947  1.0000
  H   H92       1.0  0.21677  0.36282  0.80900  1.0000
  H   H93       1.0  0.17650  0.35291  0.71686  1.0000
  H   H94       1.0  0.24886  0.38986  0.70641  1.0000
  H   H95       1.0  0.41796  0.23951  0.81818  1.0000
  H   H96       1.0  0.20849  0.42923  0.78323  1.0000
  H   H97       1.0  0.28416  0.05151  0.72137  1.0000
  H   H98       1.0  0.07577  0.16669  0.79304  1.0000
  H   H99       1.0  0.26739  0.05814  0.84797  1.0000
  H   H100      1.0  0.08897  0.06659  0.87477  1.0000
  H   H101      1.0  0.01568  0.25758  0.89783  1.0000
  C   C127      1.0  0.10128  0.41117  0.72556  1.0000
  P   P3        1.0  0.01946  0.10428  0.95955  1.0000
  C   C128      1.0  0.44281  0.33308  0.73931  1.0000
  C   C129      1.0  0.12646  0.01578  0.93104  1.0000
  C   C130      1.0  0.06174  0.06972  0.94883  1.0000
  H   H102      1.0  0.29544  0.10063  0.76848  1.0000
  C   C131      1.0  0.18029  0.48980  0.75105  1.0000
  H   H103      1.0  0.37943  0.42905  0.72454  1.0000
  C   C132      1.0  0.43612  0.37525  0.69958  1.0000
  H   H104      1.0  0.15945  0.07453  0.92167  1.0000
  C   C133      1.0  0.26096  0.02993  0.83643  1.0000
  C   C134      1.0  0.09870  0.08749  0.93838  1.0000
  C   C135      1.0  0.24941  0.42089  0.69669  1.0000
  H   H105      1.0  0.06746  0.26164  0.73204  1.0000
  H   H106      1.0  0.10145  0.19671  0.75089  1.0000
  H   H107      1.0  0.42865  0.26538  0.73655  1.0000
  C   C136      1.0  0.02782  0.12212  0.99231  1.0000
  H   H108      1.0  0.05926  0.18922  0.96450  1.0000
  H   H109      1.0  0.02172  0.42779  0.68384  1.0000
  C   C137      1.0  0.05791  0.02461  0.95081  1.0000
  H   H110      1.0  0.03002  0.00994  0.95909  1.0000
  C   C138      1.0  0.06097  0.19490  0.78460  1.0000
  C   C139      1.0  0.30894  0.03080  0.72827  1.0000
  C   C140      1.0  0.01914  0.15239  0.93940  1.0000
  C   C141      1.0  0.44570  0.37255  0.72601  1.0000
  H   H111      1.0  0.08843  0.09156  0.99624  1.0000
  S   S24       1.0  0.48141  0.07008  0.72045  1.0000
  C   C142      1.0  0.22128  0.45367  0.70390  1.0000
  C   C143      1.0  0.42031  0.29854  0.70013  1.0000
  H   H112      1.0  0.10281  0.12213  0.93687  1.0000
  C   C144      1.0  0.43030  0.29607  0.72634  1.0000
  H   H113      1.0  0.05584  0.25575  0.93843  1.0000
  C   C145      1.0  0.40188  0.46342  0.69019  1.0000
  C   C146      1.0  0.13097  0.06054  0.92967  1.0000
  C   C147      1.0  0.01644  0.22847  0.90947  1.0000
  H   H114      1.0  0.41095  0.26970  0.69006  1.0000
  C   C148      1.0  0.34715  0.02932  0.71483  1.0000
  H   H115      1.0  0.32497  0.48231  0.73544  1.0000
  C   C149      1.0  0.04064  0.18949  0.94718  1.0000
  H   H116      1.0  0.45081  0.33101  0.75959  1.0000
  C   C150      1.0  0.05233  0.43069  0.69223  1.0000
  C   C151      1.0  0.43046  0.20540  0.78279  1.0000
  P   P4        1.0  0.18200  0.44475  0.72914  1.0000
  Fe  Fe12      1.0  0.48243  0.06026  0.76385  1.0000
  C   C152      1.0  0.13098  0.43990  0.71485  1.0000
  C   C153      1.0  0.12009  0.46513  0.69321  1.0000
  H   H117      1.0  0.35206  0.04856  0.69739  1.0000
  H   H118      1.0  0.11904  0.47368  0.76680  1.0000
  H   H119      1.0  0.45617  0.40084  0.73620  1.0000
  C   C154      1.0  0.03886  0.22745  0.93241  1.0000
  C   C155      1.0  0.42309  0.33796  0.68677  1.0000
  C   C156      1.0  0.05697  0.05827  0.87077  1.0000
  C   C157      1.0  0.16523  0.23502  0.00241  1.0000
  C   C158      1.0  0.46089  0.18575  0.76715  1.0000
  H   H120      1.0  0.39798  0.20468  0.77726  1.0000
  P   P5        1.0  0.44322  0.42561  0.68202  1.0000
  C   C159      1.0  0.06230  0.40642  0.71419  1.0000
  H   H121      1.0  0.39522  0.12682  0.83858  1.0000
  H   H122      1.0  0.45206  0.16982  0.74949  1.0000
  H   H123      1.0  0.10753  0.39312  0.74312  1.0000
  C   C160      1.0  0.48333  0.22363  0.81384  1.0000
  H   H124      1.0  0.19452  0.03393  0.84288  1.0000
  C   C161      1.0  0.50053  0.49271  0.68899  1.0000
  C   C162      1.0  0.07536  0.21183  0.76092  1.0000
  H   H125      1.0  0.03928  0.38507  0.72307  1.0000
  C   C163      1.0  0.05621  0.24834  0.75035  1.0000
  C   C164      1.0  0.27884  0.42799  0.67670  1.0000
  C   C165      1.0  0.21979  0.01641  0.83342  1.0000
  C   C166      1.0  0.02287  0.26812  0.76356  1.0000
  C   C167      1.0  0.04201  0.01650  0.87651  1.0000
  C   C168      1.0  0.06485  0.11183  0.00518  1.0000
  H   H126      1.0  0.15113  0.00918  0.99533  1.0000
  C   C169      1.0  0.22379  0.49382  0.69107  1.0000
  H   H127      1.0  0.04787  0.38188  0.88143  1.0000
  H   H128      1.0  0.00902  0.29656  0.75507  1.0000
  H   H129      1.0  0.32511  0.02071  0.82551  1.0000
  Fe  Fe13      1.0  0.01583  0.49714  0.76795  1.0000
  H   H130      1.0  0.14102  0.48911  0.68511  1.0000
  C   C170      1.0  0.08100  0.46044  0.68197  1.0000
  H   H131      1.0  0.15868  0.26891  0.00519  1.0000
  H   H132      1.0  0.27323  0.00860  0.76112  1.0000
  C   C171      1.0  0.50237  0.18419  0.77508  1.0000
  C   C172      1.0  0.03159  0.36185  0.86782  1.0000
  H   H133      1.0  0.49112  0.23877  0.83185  1.0000
  H   H134      1.0  0.39746  0.00900  0.79430  1.0000
  C   C173      1.0  0.29365  0.00845  0.82367  1.0000
  H   H135      1.0  0.46022  0.00829  0.82099  1.0000
  C   C174      1.0  0.39579  0.50015  0.67458  1.0000
  P   P6        1.0  0.01532  0.95938  0.03315  1.0000
  S   S25       1.0  0.05820  0.55120  0.23988  1.0000
  H   H136      1.0  0.49081  0.89199  0.19081  1.0000
  H   H137      1.0  0.07499  0.70966  0.14553  1.0000
  C   C175      1.0  0.29244  0.59792  0.28348  1.0000
  C   C176      1.0  0.50269  0.78497  0.30793  1.0000
  H   H138      1.0  0.37588  0.96927  0.15151  1.0000
  H   H139      1.0  0.45214  0.75538  0.32984  1.0000
  C   C177      1.0  0.43187  0.89695  0.32052  1.0000
  C   C178      1.0  0.41497  0.88433  0.29698  1.0000
  C   C179      1.0  0.29360  0.87213  0.24629  1.0000
  H   H140      1.0  0.37459  0.00385  0.31505  1.0000
  S   S26       1.0  0.41855  0.91705  0.26854  1.0000
  C   C180      1.0  0.05372  0.73486  0.15172  1.0000
  H   H141      1.0  0.09771  0.66558  0.25087  1.0000
  C   C181      1.0  0.03471  0.68732  0.09731  1.0000
  C   C182      1.0  0.03045  0.92378  0.08237  1.0000
  H   H142      1.0  0.10010  0.74872  0.05920  1.0000
  C   C183      1.0  0.15412  0.56192  0.31446  1.0000
  C   C184      1.0  0.23682  0.56265  0.18900  1.0000
  C   C185      1.0  0.29401  0.94755  0.19260  1.0000
  H   H143      1.0  0.22830  0.63063  0.18057  1.0000
  C   C186      1.0  0.09250  0.98699  0.01185  1.0000
  C   C187      1.0  0.48198  0.85659  0.22660  1.0000
  C   C188      1.0  0.02648  0.89201  0.10168  1.0000
  H   H144      1.0  0.12044  0.61608  0.29904  1.0000
  H   H145      1.0  0.04368  0.95430  0.08762  1.0000
  C   C189      1.0  0.37582  0.97860  0.19274  1.0000
  H   H146      1.0  0.01409  0.66342  0.17497  1.0000
  C   C190      1.0  0.04714  0.64637  0.08861  1.0000
  S   S27       1.0  0.48486  0.98362  0.22075  1.0000
  C   C191      1.0  0.26711  0.90301  0.28629  1.0000
  S   S28       1.0  0.11644  0.52212  0.30658  1.0000
  H   H147      1.0  0.06619  0.67816  0.20817  1.0000
  H   H148      1.0  0.48157  0.82395  0.26320  1.0000
  S   S29       1.0  0.25385  0.66306  0.33521  1.0000
  C   C192      1.0  0.22723  0.97881  0.23757  1.0000
  C   C193      1.0  0.26984  0.60109  0.15283  1.0000
  H   H149      1.0  0.30427  0.87524  0.22635  1.0000
  C   C194      1.0  0.11100  0.65008  0.23385  1.0000
  H   H150      1.0  0.47901  0.68121  0.32453  1.0000
  C   C195      1.0  0.05435  0.72415  0.08668  1.0000
  C   C196      1.0  0.28285  0.82667  0.28433  1.0000
  Fe  Fe14      1.0  0.05822  0.52845  0.28135  1.0000
  H   H151      1.0  0.12128  0.67618  0.04379  1.0000
  C   C197      1.0  0.01560  0.91651  0.05730  1.0000
  H   H152      1.0  0.49029  0.81726  0.31041  1.0000
  C   C198      1.0  0.14860  0.60564  0.30853  1.0000
  C   C199      1.0  0.26878  0.86241  0.29828  1.0000
  C   C200      1.0  0.04123  0.80040  0.17583  1.0000
  C   C201      1.0  0.17941  0.63600  0.31506  1.0000
  H   H153      1.0  0.26231  0.93551  0.19219  1.0000
  C   C202      1.0  0.16112  0.60056  0.21441  1.0000
  C   C203      1.0  0.23794  0.57647  0.24363  1.0000
  C   C204      1.0  0.39343  0.84487  0.29596  1.0000
  H   H154      1.0  0.05224  0.82569  0.18833  1.0000
  C   C205      1.0  0.49607  0.70816  0.31599  1.0000
  C   C206      1.0  0.27186  0.63043  0.26980  1.0000
  C   C207      1.0  0.24502  0.61985  0.24978  1.0000
  C   C208      1.0  0.14199  0.60651  0.19038  1.0000
  C   C209      1.0  0.10821  0.63483  0.18803  1.0000
  H   H155      1.0  0.30670  0.80393  0.24766  1.0000
  H   H156      1.0  0.27465  0.63065  0.14180  1.0000
  H   H157      1.0  0.34231  0.95219  0.28580  1.0000
  H   H158      1.0  0.15734  0.61563  0.25523  1.0000
  H   H159      1.0  0.04529  0.75608  0.09308  1.0000
  P   P7        1.0  0.20360  0.56274  0.21760  1.0000
  C   C210      1.0  0.22148  0.57946  0.33379  1.0000
  C   C211      1.0  0.50097  0.84000  0.24876  1.0000
  H   H160      1.0  0.31232  0.60631  0.29945  1.0000
  H   H161      1.0  0.03658  0.89860  0.12118  1.0000
  C   C212      1.0  0.21595  0.62320  0.32782  1.0000
  H   H162      1.0  0.19615  0.94117  0.26782  1.0000
  Fe  Fe15      1.0  0.45755  0.97788  0.26122  1.0000
  H   H163      1.0  0.38048  0.83473  0.27782  1.0000
  C   C213      1.0  0.07829  0.64247  0.06940  1.0000
  C   C214      1.0  0.30153  0.99918  0.26791  1.0000
  H   H164      1.0  0.27601  0.66379  0.27527  1.0000
  H   H165      1.0  0.22952  0.64556  0.23937  1.0000
  H   H166      1.0  0.15259  0.58864  0.17358  1.0000
  H   H167      1.0  0.09316  0.63876  0.16956  1.0000
  C   C215      1.0  0.28648  0.55475  0.27702  1.0000
  C   C216      1.0  0.24339  0.60090  0.17471  1.0000
  H   H168      1.0  0.25695  0.93053  0.29754  1.0000
  H   H169      1.0  0.19528  0.51539  0.33194  1.0000
  C   C217      1.0  0.25963  0.54402  0.25701  1.0000
  C   C218      1.0  0.06816  0.76740  0.16785  1.0000
  C   C219      1.0  0.14476  0.62178  0.23625  1.0000
  C   C220      1.0  0.06445  0.98869  0.03313  1.0000
  H   H170      1.0  0.08753  0.61079  0.06266  1.0000
  C   C221      1.0  0.08542  0.72012  0.06747  1.0000
  C   C222      1.0  0.35273  0.97582  0.21597  1.0000
  C   C223      1.0  0.19071  0.54909  0.32718  1.0000
  C   C224      1.0  0.29510  0.83152  0.25833  1.0000
  C   C225      1.0  0.27952  0.90824  0.26018  1.0000
  C   C226      1.0  0.09294  0.65688  0.20973  1.0000
  H   H171      1.0  0.30356  0.94055  0.15139  1.0000
  C   C227      1.0  0.31114  0.96162  0.21593  1.0000
  C   C228      1.0  0.19246  0.96377  0.25197  1.0000
  C   C229      1.0  0.09735  0.67929  0.05879  1.0000
  H   H172      1.0  0.17478  0.66969  0.31030  1.0000
  C   C230      1.0  0.38850  0.81839  0.31820  1.0000
  C   C231      1.0  0.25837  0.52508  0.18172  1.0000
  C   C232      1.0  0.48085  0.75006  0.31890  1.0000
  H   H173      1.0  0.01542  0.00371  0.18632  1.0000
  H   H174      1.0  0.25982  0.85882  0.31851  1.0000
  H   H175      1.0  0.44858  0.92716  0.32161  1.0000
  H   H176      1.0  0.44852  0.85353  0.22450  1.0000
  C   C233      1.0  0.17941  0.51085  0.22302  1.0000
  C   C234      1.0  0.31731  0.95018  0.16945  1.0000
  H   H177      1.0  0.10020  0.76706  0.17420  1.0000
  C   C235      1.0  0.35806  0.96618  0.16949  1.0000
  H   H178      1.0  0.37180  0.78818  0.31709  1.0000
  H   H179      1.0  0.28492  0.79534  0.29376  1.0000
  P   P8        1.0  0.27963  0.96140  0.24537  1.0000
  H   H180      1.0  0.12544  0.96574  0.25687  1.0000
  C   C236      1.0  0.15218  0.97772  0.24584  1.0000
  H   H181      1.0  0.03306  0.61732  0.09649  1.0000
  H   H182      1.0  0.36726  0.98561  0.23373  1.0000
  H   H183      1.0  0.40723  0.99142  0.19265  1.0000
  C   C237      1.0  0.29034  0.56328  0.14529  1.0000
  H   H184      1.0  0.30227  0.52968  0.28782  1.0000
  C   C238      1.0  0.33206  0.98546  0.28535  1.0000
  C   C239      1.0  0.28473  0.52534  0.15979  1.0000
  H   H185      1.0  0.17510  0.51774  0.26464  1.0000
  C   C240      1.0  0.01204  0.73482  0.14369  1.0000
  C   C241      1.0  0.50574  0.87850  0.20772  1.0000
  H   H186      1.0  0.25559  0.51043  0.25217  1.0000
  C   C242      1.0  0.00769  0.85264  0.09620  1.0000
  H   H187      1.0  0.24598  0.77873  0.34005  1.0000
  H   H188      1.0  0.00764  0.59272  0.19641  1.0000
  H   H189      1.0  0.31084  0.56347  0.12834  1.0000
  Fe  Fe16      1.0  0.30025  0.65739  0.65270  1.0000
  S   S30       1.0  0.30723  0.72739  0.64096  1.0000
  H   H190      1.0  0.26892  0.59589  0.41997  1.0000
  Fe  Fe17      1.0  0.38569  0.63403  0.62820  1.0000
  S   S31       1.0  0.40001  0.70214  0.61562  1.0000
  C   C243      1.0  0.42297  0.84251  0.66259  1.0000
  Fe  Fe18      1.0  0.37343  0.72263  0.65454  1.0000
  Fe  Fe19      1.0  0.33310  0.70219  0.60266  1.0000
  S   S32       1.0  0.31895  0.73223  0.56315  1.0000
  S   S33       1.0  0.32012  0.63305  0.61347  1.0000
  Fe  Fe20      1.0  0.35051  0.65831  0.41377  1.0000
  S   S34       1.0  0.41282  0.68278  0.39941  1.0000
  S   S35       1.0  0.33619  0.63392  0.45506  1.0000
  Fe  Fe21      1.0  0.31384  0.66004  0.35885  1.0000
  H   H191      1.0  0.15965  0.83830  0.62939  1.0000
  Fe  Fe22      1.0  0.40577  0.63549  0.36710  1.0000
  C   C244      1.0  0.43972  0.68506  0.54163  1.0000
  Fe  Fe23      1.0  0.37764  0.72908  0.37381  1.0000
  C   C245      1.0  0.16749  0.80506  0.66589  1.0000
  S   S36       1.0  0.34510  0.60792  0.38252  1.0000
  S   S37       1.0  0.31575  0.70836  0.39108  1.0000
  H   H192      1.0  0.41727  0.82693  0.64434  1.0000
  H   H193      1.0  0.19886  0.74158  0.37103  1.0000
  H   H194      1.0  0.18711  0.77760  0.60303  1.0000
  H   H195      1.0  0.15400  0.80879  0.40111  1.0000
  C   C246      1.0  0.32599  0.70446  0.53335  1.0000
  C   C247      1.0  0.32218  0.65962  0.53201  1.0000
  C   C248      1.0  0.32521  0.63874  0.50788  1.0000
  C   C249      1.0  0.33266  0.66230  0.48481  1.0000
  C   C250      1.0  0.33673  0.70715  0.48612  1.0000
  C   C251      1.0  0.33313  0.72809  0.51025  1.0000
  H   H196      1.0  0.31589  0.64117  0.54952  1.0000
  H   H197      1.0  0.32185  0.60406  0.50709  1.0000
  H   H198      1.0  0.34222  0.72575  0.46854  1.0000
  H   H199      1.0  0.33566  0.76285  0.51100  1.0000
  S   S38       1.0  0.41974  0.57194  0.61874  1.0000
  C   C252      1.0  0.40987  0.54713  0.47183  1.0000
  C   C253      1.0  0.49982  0.59564  0.63220  1.0000
  H   H200      1.0  0.36036  0.55825  0.66852  1.0000
  C   C254      1.0  0.16964  0.80880  0.63884  1.0000
  C   C255      1.0  0.18499  0.77460  0.62396  1.0000
  H   H201      1.0  0.48908  0.62661  0.43968  1.0000
  C   C256      1.0  0.45309  0.51697  0.36729  1.0000
  C   C257      1.0  0.19790  0.73654  0.63610  1.0000
  C   C258      1.0  0.33151  0.54256  0.56280  1.0000
  C   C259      1.0  0.19602  0.73285  0.66311  1.0000
  C   C260      1.0  0.46750  0.60389  0.44865  1.0000
  H   H202      1.0  0.11920  0.69928  0.44909  1.0000
  C   C261      1.0  0.36840  0.56017  0.55235  1.0000
  H   H203      1.0  0.22346  0.82410  0.50434  1.0000
  H   H204      1.0  0.04499  0.72018  0.44576  1.0000
  H   H205      1.0  0.42075  0.52550  0.37089  1.0000
  C   C262      1.0  0.39322  0.53627  0.53496  1.0000
  H   H206      1.0  0.19396  0.62185  0.64188  1.0000
  H   H207      1.0  0.24001  0.76145  0.53267  1.0000
  H   H208      1.0  0.21324  0.67507  0.47112  1.0000
  H   H209      1.0  0.48794  0.62808  0.63447  1.0000
  C   C263      1.0  0.13628  0.60218  0.66117  1.0000
  C   C264      1.0  0.47289  0.56264  0.62489  1.0000
  C   C265      1.0  0.43894  0.88491  0.66293  1.0000
  H   H210      1.0  0.23414  0.68733  0.51588  1.0000
  H   H211      1.0  0.44532  0.90170  0.64481  1.0000
  H   H212      1.0  0.30388  0.82450  0.35588  1.0000
  H   H213      1.0  0.07985  0.82903  0.39794  1.0000
  H   H214      1.0  0.37741  0.59222  0.55818  1.0000
  C   C266      1.0  0.43897  0.58217  0.43338  1.0000
  C   C267      1.0  0.17882  0.61404  0.66024  1.0000
  H   H215      1.0  0.20997  0.71001  0.62464  1.0000
  C   C268      1.0  0.21127  0.59569  0.39905  1.0000
  P   P9        1.0  0.44170  0.55769  0.52181  1.0000
  H   H216      1.0  0.41080  0.64492  0.51362  1.0000
  C   C269      1.0  0.43887  0.56837  0.48730  1.0000
  H   H217      1.0  0.11886  0.60122  0.64343  1.0000
  H   H218      1.0  0.42265  0.71365  0.53572  1.0000
  S   S39       1.0  0.39883  0.79956  0.37063  1.0000
  H   H219      1.0  0.20310  0.81271  0.45894  1.0000
  C   C270      1.0  0.43278  0.64589  0.52929  1.0000
  C   C271      1.0  0.24135  0.61408  0.41475  1.0000
  C   C272      1.0  0.23649  0.65642  0.42333  1.0000
  C   C273      1.0  0.20074  0.68025  0.41712  1.0000
  C   C274      1.0  0.17115  0.66192  0.40072  1.0000
  P   P10       1.0  0.19583  0.73570  0.42733  1.0000
  C   C275      1.0  0.20875  0.74319  0.46102  1.0000
  C   C276      1.0  0.22840  0.76692  0.40512  1.0000
  C   C277      1.0  0.26133  0.79262  0.41389  1.0000
  C   C278      1.0  0.28769  0.81414  0.39610  1.0000
  C   C279      1.0  0.28190  0.80965  0.36950  1.0000
  C   C280      1.0  0.24941  0.78397  0.36062  1.0000
  C   C281      1.0  0.22275  0.76276  0.37832  1.0000
  C   C282      1.0  0.21000  0.78508  0.47113  1.0000
  C   C283      1.0  0.22117  0.79167  0.49688  1.0000
  C   C284      1.0  0.23014  0.75645  0.51292  1.0000
  C   C285      1.0  0.22699  0.71461  0.50342  1.0000
  C   C286      1.0  0.21590  0.70789  0.47769  1.0000
  C   C287      1.0  0.14199  0.75209  0.42505  1.0000
  C   C288      1.0  0.11090  0.72769  0.43790  1.0000
  C   C289      1.0  0.06889  0.73948  0.43608  1.0000
  C   C290      1.0  0.05770  0.77591  0.42162  1.0000
  C   C291      1.0  0.08855  0.80075  0.40911  1.0000
  C   C292      1.0  0.13061  0.78902  0.41086  1.0000
  C   C293      1.0  0.48169  0.61060  0.55780  1.0000
  C   C294      1.0  0.48178  0.54891  0.35978  1.0000
  C   C295      1.0  0.48891  0.64998  0.56993  1.0000
  H   H220      1.0  0.26086  0.67069  0.43471  1.0000
  H   H221      1.0  0.14451  0.68028  0.39424  1.0000
  H   H222      1.0  0.26841  0.79440  0.43422  1.0000
  H   H223      1.0  0.31418  0.83238  0.40284  1.0000
  C   C296      1.0  0.17636  0.61973  0.39185  1.0000
  C   C297      1.0  0.41017  0.55386  0.44496  1.0000
  H   H224      1.0  0.43870  0.58782  0.41260  1.0000
  H   H225      1.0  0.15389  0.60596  0.37882  1.0000
  C   C298      1.0  0.47993  0.51612  0.52778  1.0000
  H   H226      1.0  0.38711  0.53827  0.43316  1.0000
  H   H227      1.0  0.20650  0.70333  0.67221  1.0000
  S   S40       1.0  0.36536  0.65376  0.66800  1.0000
  C   C299      1.0  0.46784  0.68714  0.56192  1.0000
  H   H228      1.0  0.43953  0.88087  0.36099  1.0000
  C   C300      1.0  0.45337  0.60821  0.53740  1.0000
  H   H229      1.0  0.21548  0.56321  0.39191  1.0000
  C   C301      1.0  0.46794  0.59655  0.47542  1.0000
  H   H230      1.0  0.31241  0.56134  0.57605  1.0000
  H   H231      1.0  0.38644  0.52606  0.48029  1.0000
  H   H232      1.0  0.47271  0.71744  0.57171  1.0000
  C   C302      1.0  0.48851  0.52072  0.62187  1.0000
  H   H233      1.0  0.24949  0.56907  0.34342  1.0000
  H   H234      1.0  0.25473  0.53208  0.66147  1.0000
  H   H235      1.0  0.49066  0.61329  0.48688  1.0000
  H   H236      1.0  0.02510  0.78485  0.42008  1.0000
  H   H237      1.0  0.49790  0.58241  0.56479  1.0000
  H   H238      1.0  0.46720  0.51341  0.56907  1.0000
  H   H239      1.0  0.49766  0.50767  0.48750  1.0000
  S   S41       1.0  0.46683  0.60333  0.35492  1.0000
  C   C303      1.0  0.40494  0.83123  0.34184  1.0000
  C   C304      1.0  0.42664  0.87064  0.34283  1.0000
  S   S42       1.0  0.37450  0.68347  0.34055  1.0000
  H   H240      1.0  0.28083  0.87869  0.81630  1.0000
  H   H241      1.0  0.48869  0.77721  0.70925  1.0000
  C   C305      1.0  0.43803  0.98199  0.82271  1.0000
  H   H242      1.0  0.15126  0.99515  0.92379  1.0000
  S   S43       1.0  0.05237  0.55864  0.76197  1.0000
  H   H243      1.0  0.06270  0.99285  0.88493  1.0000
  C   C306      1.0  0.17969  0.81542  0.72705  1.0000
  S   S44       1.0  0.39779  0.76581  0.68684  1.0000
  C   C307      1.0  0.11110  0.70732  0.70571  1.0000
  C   C308      1.0  0.42289  0.84114  0.70938  1.0000
  C   C309      1.0  0.43860  0.88358  0.70973  1.0000
  C   C310      1.0  0.44731  0.90549  0.68646  1.0000
  H   H244      1.0  0.32322  0.66682  0.74336  1.0000
  H   H245      1.0  0.29659  0.77232  0.76449  1.0000
  H   H246      1.0  0.41696  0.82421  0.72742  1.0000
  H   H247      1.0  0.44458  0.89913  0.72793  1.0000
  C   C311      1.0  0.29601  0.68559  0.73820  1.0000
  H   H248      1.0  0.07146  0.71365  0.77713  1.0000
  H   H249      1.0  0.05868  0.66510  0.70019  1.0000
  C   C312      1.0  0.41521  0.82024  0.68586  1.0000
  C   C313      1.0  0.17921  0.55588  0.78788  1.0000
  H   H250      1.0  0.18010  0.93213  0.75435  1.0000
  H   H251      1.0  0.11232  0.82014  0.73132  1.0000
  H   H252      1.0  0.13474  0.75408  0.76317  1.0000
  C   C314      1.0  0.26378  0.73956  0.71083  1.0000
  C   C315      1.0  0.18152  0.60470  0.70670  1.0000
  C   C316      1.0  0.18101  0.76709  0.67823  1.0000
  H   H253      1.0  0.08600  0.96311  0.94231  1.0000
  C   C317      1.0  0.31622  0.89286  0.78104  1.0000
  P   P11       1.0  0.17937  0.76205  0.71316  1.0000
  H   H254      1.0  0.20316  0.51996  0.69658  1.0000
  H   H255      1.0  0.17853  0.58145  0.80205  1.0000
  H   H256      1.0  0.46520  0.90468  0.78587  1.0000
  C   C318      1.0  0.22497  0.73220  0.72324  1.0000
  C   C319      1.0  0.44277  0.79881  0.77664  1.0000
  C   C320      1.0  0.30221  0.80579  0.76915  1.0000
  H   H257      1.0  0.19889  0.60558  0.72444  1.0000
  H   H258      1.0  0.39878  0.95831  0.75317  1.0000
  C   C321      1.0  0.13909  0.59274  0.70763  1.0000
  C   C322      1.0  0.21400  0.55059  0.77148  1.0000
  C   C323      1.0  0.08251  0.71239  0.75714  1.0000
  H   H259      1.0  0.19290  0.69459  0.75321  1.0000
  H   H260      1.0  0.47650  0.51489  0.68300  1.0000
  H   H261      1.0  0.11313  0.89329  0.74948  1.0000
  C   C324      1.0  0.24382  0.95973  0.80475  1.0000
  C   C325      1.0  0.37342  0.97846  0.74652  1.0000
  H   H262      1.0  0.26753  0.80278  0.80527  1.0000
  H   H263      1.0  0.33890  0.81824  0.73446  1.0000
  C   C326      1.0  0.29306  0.86621  0.79815  1.0000
  C   C327      1.0  0.38011  0.91502  0.82756  1.0000
  C   C328      1.0  0.14202  0.83600  0.73396  1.0000
  C   C329      1.0  0.29903  0.71628  0.71828  1.0000
  C   C330      1.0  0.46905  0.87172  0.77947  1.0000
  H   H264      1.0  0.48329  0.75295  0.75817  1.0000
  C   C331      1.0  0.13275  0.73298  0.72327  1.0000
  S   S45       1.0  0.46904  0.95820  0.68565  1.0000
  C   C332      1.0  0.11622  0.59128  0.68483  1.0000
  C   C333      1.0  0.21742  0.83790  0.72959  1.0000
  C   C334      1.0  0.18004  0.89960  0.74682  1.0000
  H   H265      1.0  0.35774  0.88919  0.83012  1.0000
  C   C335      1.0  0.14229  0.87773  0.74404  1.0000
  H   H266      1.0  0.03359  0.66941  0.74575  1.0000
  C   C336      1.0  0.43739  0.84156  0.78431  1.0000
  H   H267      1.0  0.42085  0.88911  0.85669  1.0000
  C   C337      1.0  0.11823  0.73517  0.74912  1.0000
  H   H268      1.0  0.24678  0.89701  0.74114  1.0000
  C   C338      1.0  0.50575  0.85944  0.76635  1.0000
  H   H269      1.0  0.24674  0.82355  0.72357  1.0000
  C   C339      1.0  0.28540  0.97287  0.80792  1.0000
  C   C340      1.0  0.21120  0.98125  0.81765  1.0000
  H   H270      1.0  0.23639  0.93366  0.79189  1.0000
  C   C341      1.0  0.22231  0.70159  0.74348  1.0000
  H   H271      1.0  0.32852  0.72123  0.70812  1.0000
  C   C342      1.0  0.41582  0.91490  0.84278  1.0000
  Fe  Fe24      1.0  0.02578  0.56039  0.72219  1.0000
  H   H272      1.0  0.47259  0.94836  0.85201  1.0000
  P   P12       1.0  0.32755  0.94812  0.78959  1.0000
  H   H273      1.0  0.24049  0.57201  0.77293  1.0000
  H   H274      1.0  0.25520  0.65419  0.76607  1.0000
  S   S46       1.0  0.49187  0.98836  0.76143  1.0000
  C   C343      1.0  0.21757  0.87976  0.73948  1.0000
  C   C344      1.0  0.14530  0.52786  0.78620  1.0000
  H   H275      1.0  0.40875  0.85119  0.79404  1.0000
  C   C345      1.0  0.20172  0.61504  0.68303  1.0000
  C   C346      1.0  0.03209  0.90452  0.99164  1.0000
  C   C347      1.0  0.44491  0.94828  0.84024  1.0000
  S   S47       1.0  0.06270  0.57616  0.68499  1.0000
  C   C348      1.0  0.25771  0.67843  0.75089  1.0000
  C   C349      1.0  0.06101  0.68736  0.73945  1.0000
  H   H276      1.0  0.12417  0.58460  0.72599  1.0000
  C   C350      1.0  0.37358  0.94821  0.80934  1.0000
  C   C351      1.0  0.07519  0.68498  0.71377  1.0000
  C   C352      1.0  0.33317  0.87499  0.75818  1.0000
  C   C353      1.0  0.28577  0.82302  0.79209  1.0000
  H   H277      1.0  0.11855  0.53146  0.79919  1.0000
  C   C354      1.0  0.40245  0.98213  0.80742  1.0000
  H   H278      1.0  0.35207  0.89411  0.74481  1.0000
  C   C355      1.0  0.32598  0.83172  0.75225  1.0000
  H   H279      1.0  0.08554  0.96855  0.99490  1.0000
  H   H280      1.0  0.26677  0.76257  0.69497  1.0000
  C   C356      1.0  0.33522  0.97994  0.76030  1.0000
  H   H281      1.0  0.41832  0.77538  0.78051  1.0000
  C   C357      1.0  0.47950  0.78634  0.76369  1.0000
  H   H282      1.0  0.24253  0.51320  0.74135  1.0000
  H   H283      1.0  0.47730  0.71765  0.67916  1.0000
  H   H284      1.0  0.40889  0.00239  0.71360  1.0000
  C   C358      1.0  0.21481  0.51738  0.75333  1.0000
  Fe  Fe25      1.0  0.49588  0.99861  0.71829  1.0000
  S   S48       1.0  0.25585  0.62724  0.68310  1.0000
  H   H285      1.0  0.12190  0.70389  0.68586  1.0000
  C   C359      1.0  0.08988  0.99781  0.94157  1.0000
  H   H286      1.0  0.05816  0.89292  0.00283  1.0000
  H   H287      1.0  0.31546  0.54752  0.70767  1.0000
  H   H288      1.0  0.04600  0.86281  0.95935  1.0000
  C   C360      1.0  0.36482  0.53022  0.68090  1.0000
  C   C361      1.0  0.02528  0.88733  0.96711  1.0000
  H   H289      1.0  0.17912  0.97138  0.81507  1.0000
  C   C362      1.0  0.33959  0.52409  0.70297  1.0000
  H   H290      1.0  0.00599  0.73822  0.82169  1.0000
  C   C363      1.0  0.30293  0.00625  0.75091  1.0000
  C   C364      1.0  0.37929  0.00323  0.72399  1.0000
  H   H291      1.0  0.15551  0.83188  0.67704  1.0000
  H   H292      1.0  0.68870  0.19951  0.17838  1.0000
  C   C365      1.0  0.65550  0.11129  0.33579  1.0000
  C   C366      1.0  0.97651  0.03958  0.03977  1.0000
  S   S49       1.0  0.64498  0.24727  0.32505  1.0000
  C   C367      1.0  0.59970  0.18869  0.29739  1.0000
  H   H293      1.0  0.78912  0.09209  0.04388  1.0000
  H   H294      1.0  0.56904  0.41868  0.25171  1.0000
  C   C368      1.0  0.79225  0.47384  0.29377  1.0000
  H   H295      1.0  0.91616  0.47637  0.18448  1.0000
  C   C369      1.0  0.86284  0.46185  0.30916  1.0000
  C   C370      1.0  0.87784  0.02084  0.19278  1.0000
  C   C371      1.0  0.90054  0.10464  0.11715  1.0000
  H   H296      1.0  0.93880  0.24817  0.26412  1.0000
  C   C372      1.0  0.78192  0.14681  0.17459  1.0000
  C   C373      1.0  0.83572  0.48109  0.29151  1.0000
  H   H297      1.0  0.84820  0.50181  0.27627  1.0000
  C   C374      1.0  0.53674  0.15217  0.31293  1.0000
  H   H298      1.0  0.68192  0.16701  0.13494  1.0000
  C   C375      1.0  0.77852  0.12863  0.14988  1.0000
  H   H299      1.0  0.89926  0.07046  0.11292  1.0000
  H   H300      1.0  0.86843  0.42154  0.25553  1.0000
  H   H301      1.0  0.80939  0.14088  0.18603  1.0000
  H   H302      1.0  0.75231  0.18652  0.20376  1.0000
  H   H303      1.0  0.77158  0.48909  0.28010  1.0000
  C   C376      1.0  0.64168  0.09743  0.18726  1.0000
  C   C377      1.0  0.74214  0.13596  0.13569  1.0000
  C   C378      1.0  0.74839  0.22229  0.27352  1.0000
  C   C379      1.0  0.74975  0.17258  0.18470  1.0000
  H   H304      1.0  0.63165  0.13304  0.24907  1.0000
  C   C380      1.0  0.86665  0.12529  0.12946  1.0000
  H   H305      1.0  0.87361  0.48275  0.22497  1.0000
  C   C381      1.0  0.63871  0.06886  0.28958  1.0000
  C   C382      1.0  0.53826  0.17665  0.33568  1.0000
  H   H306      1.0  0.74774  0.33678  0.31184  1.0000
  C   C383      1.0  0.80243  0.42815  0.33130  1.0000
  H   H307      1.0  0.73804  0.12152  0.11691  1.0000
  H   H308      1.0  0.96836  0.18884  0.11213  1.0000
  H   H309      1.0  0.81616  0.36403  0.24152  1.0000
  C   C384      1.0  0.60263  0.36143  0.26280  1.0000
  C   C385      1.0  0.77822  0.35178  0.27538  1.0000
  C   C386      1.0  0.91236  0.44876  0.19731  1.0000
  H   H310      1.0  0.86340  0.30705  0.20503  1.0000
  H   H311      1.0  0.83501  0.18629  0.24138  1.0000
  C   C387      1.0  0.93682  0.12771  0.11076  1.0000
  C   C388      1.0  0.90601  0.04848  0.05668  1.0000
  C   C389      1.0  0.71004  0.16170  0.14590  1.0000
  C   C390      1.0  0.62421  0.11748  0.20903  1.0000
  C   C391      1.0  0.90598  0.19237  0.12867  1.0000
  C   C392      1.0  0.86939  0.16952  0.13489  1.0000
  H   H312      1.0  0.98521  0.19021  0.03726  1.0000
  H   H313      1.0  0.62753  0.30065  0.27617  1.0000
  C   C393      1.0  0.71385  0.18003  0.17037  1.0000
  C   C394      1.0  0.78132  0.14728  0.25142  1.0000
  S   S50       1.0  0.91797  0.46961  0.30756  1.0000
  H   H314      1.0  0.73545  0.25129  0.28216  1.0000
  C   C395      1.0  0.78800  0.22304  0.26172  1.0000
  C   C396      1.0  0.77528  0.44752  0.31372  1.0000
  C   C397      1.0  0.72530  0.18406  0.27439  1.0000
  C   C398      1.0  0.80441  0.18559  0.25061  1.0000
  H   H315      1.0  0.59375  0.13257  0.20792  1.0000
  H   H316      1.0  0.90810  0.17729  0.19602  1.0000
  Fe  Fe26      1.0  0.54337  0.00692  0.23953  1.0000
  C   C399      1.0  0.74503  0.04968  0.26736  1.0000
  H   H317      1.0  0.52189  0.32942  0.33180  1.0000
  C   C400      1.0  0.78298  0.05210  0.28047  1.0000
  C   C401      1.0  0.56726  0.15888  0.29360  1.0000
  C   C402      1.0  0.64561  0.11733  0.23239  1.0000
  P   P13       1.0  0.82006  0.09473  0.13741  1.0000
  C   C403      1.0  0.74194  0.14598  0.26387  1.0000
  H   H318      1.0  0.89728  0.06825  0.16491  1.0000
  C   C404      1.0  0.68429  0.09628  0.23428  1.0000
  C   C405      1.0  0.84588  0.43524  0.32897  1.0000
  H   H319      1.0  0.62466  0.09663  0.16932  1.0000
  H   H320      1.0  0.80588  0.25268  0.26115  1.0000
  S   S51       1.0  0.72014  0.43991  0.31576  1.0000
  C   C406      1.0  0.59958  0.31963  0.27304  1.0000
  S   S52       1.0  0.52387  0.07682  0.23706  1.0000
  H   H321      1.0  0.96301  0.11158  0.10145  1.0000
  H   H322      1.0  0.79414  0.11874  0.24229  1.0000
  H   H323      1.0  0.63166  0.05203  0.27187  1.0000
  C   C407      1.0  0.70246  0.07783  0.21203  1.0000
  C   C408      1.0  0.92329  0.24686  0.24567  1.0000
  H   H324      1.0  0.84346  0.18652  0.14378  1.0000
  H   H325      1.0  0.81003  0.12708  0.08455  1.0000
  P   P14       1.0  0.71195  0.09661  0.26444  1.0000
  C   C409      1.0  0.79745  0.03163  0.17373  1.0000
  C   C410      1.0  0.88512  0.41738  0.23729  1.0000
  H   H326      1.0  0.88046  0.06927  0.06242  1.0000
  C   C411      1.0  0.56060  0.30285  0.28036  1.0000
  C   C412      1.0  0.83055  0.05581  0.16283  1.0000
  C   C413      1.0  0.80477  0.06877  0.10781  1.0000
  C   C414      1.0  0.80254  0.09302  0.08472  1.0000
  C   C415      1.0  0.90188  0.28297  0.23604  1.0000
  C   C416      1.0  0.68099  0.07807  0.18869  1.0000
  C   C417      1.0  0.90399  0.37781  0.23116  1.0000
  H   H327      1.0  0.94667  0.34576  0.20446  1.0000
  H   H328      1.0  0.79260  0.08191  0.28932  1.0000
  H   H329      1.0  0.90921  0.01591  0.19980  1.0000
  C   C418      1.0  0.88838  0.45234  0.22009  1.0000
  C   C419      1.0  0.98504  0.32584  0.26545  1.0000
  C   C420      1.0  0.97706  0.37238  0.31138  1.0000
  H   H330      1.0  0.76619  0.03470  0.16627  1.0000
  H   H331      1.0  0.69444  0.06255  0.17177  1.0000
  H   H332      1.0  0.58059  0.05032  0.30825  1.0000
  C   C421      1.0  0.67566  0.09290  0.29161  1.0000
  H   H333      1.0  0.73287  0.06271  0.21271  1.0000
  H   H334      1.0  0.98344  0.03044  0.09416  1.0000
  H   H335      1.0  0.70215  0.00680  0.24840  1.0000
  C   C422      1.0  0.88281  0.24171  0.19824  1.0000
  C   C423      1.0  0.60174  0.21257  0.32037  1.0000
  C   C424      1.0  0.94339  0.06639  0.04729  1.0000
  C   C425      1.0  0.92919  0.37487  0.20867  1.0000
  C   C426      1.0  0.84952  0.31470  0.29679  1.0000
  C   C427      1.0  0.93975  0.17140  0.11672  1.0000
  C   C428      1.0  0.99055  0.02473  0.11424  1.0000
  S   S53       1.0  0.62408  0.36805  0.32852  1.0000
  C   C429      1.0  0.85188  0.33312  0.27182  1.0000
  C   C430      1.0  0.94175  0.36339  0.29689  1.0000
  H   H336      1.0  0.95349  0.40818  0.17479  1.0000
  C   C431      1.0  0.79074  0.07335  0.06166  1.0000
  H   H337      1.0  0.69458  0.18446  0.28345  1.0000
  H   H338      1.0  0.86724  0.23989  0.17985  1.0000
  C   C432      1.0  0.88079  0.27979  0.21253  1.0000
  C   C433      1.0  0.60996  0.06711  0.31029  1.0000
  H   H339      1.0  0.56608  0.14076  0.27585  1.0000
  C   C434      1.0  0.87087  0.05039  0.17268  1.0000
  C   C435      1.0  0.94537  0.33962  0.27398  1.0000
  H   H340      1.0  0.90834  0.22639  0.13305  1.0000
  C   C436      1.0  0.52741  0.36918  0.26645  1.0000
  H   H341      1.0  0.91198  0.37673  0.30306  1.0000
  H   H342      1.0  0.55876  0.27068  0.28863  1.0000
  H   H343      1.0  0.71327  0.13050  0.31762  1.0000
  C   C437      1.0  0.81557  0.35050  0.26092  1.0000
  C   C438      1.0  0.93311  0.41018  0.19175  1.0000
  C   C439      1.0  0.77647  0.33456  0.30046  1.0000
  P   P15       1.0  0.90071  0.33301  0.25364  1.0000
  C   C440      1.0  0.90565  0.20645  0.20740  1.0000
  H   H344      1.0  0.94684  0.10107  0.04592  1.0000
  H   H345      1.0  0.94323  0.18157  0.23837  1.0000
  H   H346      1.0  0.75082  0.36736  0.26753  1.0000
  H   H347      1.0  0.87683  0.30035  0.30543  1.0000
  C   C441      1.0  0.79466  0.02480  0.10745  1.0000
  H   H348      1.0  0.62312  0.19345  0.28235  1.0000
  H   H349      1.0  0.63302  0.37496  0.25797  1.0000
  C   C442      1.0  0.56655  0.38615  0.25945  1.0000
  C   C443      1.0  0.78112  0.02938  0.06150  1.0000
  C   C444      1.0  0.92553  0.20890  0.23124  1.0000
  C   C445      1.0  0.81196  0.31566  0.31108  1.0000
  C   C446      1.0  0.52431  0.32761  0.27737  1.0000
  C   C447      1.0  0.80876  0.01578  0.28241  1.0000
  Fe  Fe27      1.0  0.96442  0.50419  0.27998  1.0000
  C   C448      1.0  0.68447  0.11291  0.31519  1.0000
  H   H350      1.0  0.97401  0.39228  0.32849  1.0000
  H   H351      1.0  0.00501  0.05407  0.03228  1.0000
  H   H352      1.0  0.98896  0.30961  0.24708  1.0000
  H   H353      1.0  0.81051  0.30278  0.33068  1.0000
  H   H354      1.0  0.83819  0.01787  0.29234  1.0000
  C   C449      1.0  0.61815  0.08863  0.33329  1.0000
  C   C450      1.0  0.73219  0.00987  0.25754  1.0000
  H   H355      1.0  0.77217  0.01392  0.04367  1.0000
  C   C451      1.0  0.57043  0.20689  0.33934  1.0000
  Fe  Fe28      1.0  0.71276  0.41116  0.63821  1.0000
  Fe  Fe29      1.0  0.65034  0.39220  0.59505  1.0000
  S   S54       1.0  0.59606  0.40855  0.62149  1.0000
  S   S55       1.0  0.62539  0.37338  0.55535  1.0000
  Fe  Fe30      1.0  0.63397  0.46481  0.63404  1.0000
  C   C452      1.0  0.51374  0.46694  0.55775  1.0000
  Fe  Fe31      1.0  0.62820  0.37010  0.65236  1.0000
  C   C453      1.0  0.62427  0.23796  0.52689  1.0000
  S   S56       1.0  0.68638  0.45144  0.60566  1.0000
  S   S57       1.0  0.68043  0.35004  0.62558  1.0000
  Fe  Fe32      1.0  0.66412  0.36055  0.39876  1.0000
  S   S58       1.0  0.64634  0.42343  0.37968  1.0000
  S   S59       1.0  0.69459  0.36229  0.43861  1.0000
  Fe  Fe33      1.0  0.64312  0.30812  0.34988  1.0000
  H   H356      1.0  0.55741  0.42215  0.54074  1.0000
  S   S60       1.0  0.66250  0.42830  0.66719  1.0000
  C   C454      1.0  0.72489  0.10556  0.55679  1.0000
  Fe  Fe34      1.0  0.59107  0.38687  0.36531  1.0000
  S   S61       1.0  0.52273  0.40713  0.36605  1.0000
  S   S62       1.0  0.70267  0.33798  0.36415  1.0000
  S   S63       1.0  0.60674  0.32475  0.38626  1.0000
  C   C455      1.0  0.56703  0.20389  0.61152  1.0000
  C   C456      1.0  0.74116  0.25288  0.60114  1.0000
  H   H357      1.0  0.54861  0.17636  0.61795  1.0000
  C   C457      1.0  0.70812  0.11002  0.60260  1.0000
  C   C458      1.0  0.77547  0.32234  0.59703  1.0000
  C   C459      1.0  0.57971  0.28075  0.61147  1.0000
  H   H358      1.0  0.86862  0.42736  0.65898  1.0000
  C   C460      1.0  0.64482  0.37425  0.52280  1.0000
  C   C461      1.0  0.61738  0.36423  0.50275  1.0000
  C   C462      1.0  0.63165  0.36204  0.47676  1.0000
  C   C463      1.0  0.67374  0.36940  0.47052  1.0000
  C   C464      1.0  0.70098  0.38030  0.49052  1.0000
  C   C465      1.0  0.68658  0.38318  0.51646  1.0000
  H   H359      1.0  0.58505  0.35707  0.50740  1.0000
  H   H360      1.0  0.61052  0.35263  0.46179  1.0000
  H   H361      1.0  0.73363  0.38601  0.48593  1.0000
  H   H362      1.0  0.70801  0.39136  0.53156  1.0000
  P   P16       1.0  0.67558  0.22594  0.56978  1.0000
  C   C466      1.0  0.69428  0.17128  0.57416  1.0000
  C   C467      1.0  0.50799  0.46209  0.36442  1.0000
  H   H363      1.0  0.79814  0.34543  0.60380  1.0000
  C   C468      1.0  0.71888  0.30433  0.56862  1.0000
  C   C469      1.0  0.80591  0.44351  0.67133  1.0000
  H   H364      1.0  0.64407  0.26688  0.46396  1.0000
  H   H365      1.0  0.68162  0.16974  0.61561  1.0000
  C   C470      1.0  0.61540  0.27475  0.59591  1.0000
  C   C471      1.0  0.62784  0.23325  0.58855  1.0000
  C   C472      1.0  0.57496  0.49313  0.44066  1.0000
  C   C473      1.0  0.52957  0.46280  0.51182  1.0000
  H   H366      1.0  0.50841  0.38906  0.64819  1.0000
  H   H367      1.0  0.70708  0.09545  0.62179  1.0000
  H   H368      1.0  0.73840  0.22234  0.61121  1.0000
  H   H369      1.0  0.71642  0.26527  0.47961  1.0000
  C   C474      1.0  0.53191  0.50096  0.43911  1.0000
  C   C475      1.0  0.71478  0.26357  0.58058  1.0000
  C   C476      1.0  0.60258  0.19788  0.59579  1.0000
  H   H370      1.0  0.57120  0.31281  0.61785  1.0000
  C   C477      1.0  0.51988  0.42596  0.42935  1.0000
  C   C478      1.0  0.71032  0.14771  0.55310  1.0000
  C   C479      1.0  0.72372  0.08670  0.58151  1.0000
  H   H371      1.0  0.63345  0.30246  0.58973  1.0000
  C   C480      1.0  0.63306  0.49492  0.52330  1.0000
  H   H372      1.0  0.69809  0.31410  0.55337  1.0000
  H   H373      1.0  0.57159  0.22502  0.35711  1.0000
  H   H374      1.0  0.73053  0.24584  0.52518  1.0000
  S   S64       1.0  0.78265  0.41291  0.64637  1.0000
  H   H375      1.0  0.79100  0.27419  0.62551  1.0000
  C   C481      1.0  0.61669  0.24826  0.50093  1.0000
  H   H376      1.0  0.64132  0.26039  0.65846  1.0000
  H   H377      1.0  0.51164  0.37387  0.60146  1.0000
  H   H378      1.0  0.66153  0.12855  0.35349  1.0000
  H   H379      1.0  0.71146  0.16152  0.53378  1.0000
  C   C482      1.0  0.77129  0.28220  0.60932  1.0000
  C   C483      1.0  0.69085  0.25669  0.49274  1.0000
  C   C484      1.0  0.69861  0.24601  0.51860  1.0000
  H   H380      1.0  0.61039  0.16558  0.58962  1.0000
  H   H381      1.0  0.52901  0.24986  0.63236  1.0000
  H   H382      1.0  0.73703  0.08749  0.54044  1.0000
  C   C485      1.0  0.69365  0.15216  0.59899  1.0000
  C   C486      1.0  0.74935  0.33334  0.57663  1.0000
  C   C487      1.0  0.56263  0.41781  0.43110  1.0000
  H   H383      1.0  0.75191  0.36491  0.56757  1.0000
  H   H384      1.0  0.57455  0.38580  0.42730  1.0000
  H   H385      1.0  0.54208  0.47914  0.62401  1.0000
  H   H386      1.0  0.59799  0.23160  0.53983  1.0000
  H   H387      1.0  0.64931  0.47462  0.48479  1.0000
  H   H388      1.0  0.73487  0.05400  0.58432  1.0000
  H   H389      1.0  0.51893  0.45582  0.57738  1.0000
  C   C488      1.0  0.59014  0.45113  0.43697  1.0000
  C   C489      1.0  0.66534  0.23692  0.53596  1.0000
  H   H390      1.0  0.51865  0.30538  0.37727  1.0000
  H   H391      1.0  0.59507  0.08854  0.34892  1.0000
  Fe  Fe35      1.0  0.68162  0.39884  0.34455  1.0000
  C   C490      1.0  0.64995  0.25768  0.48390  1.0000
  C   C491      1.0  0.53560  0.44805  0.53713  1.0000
  H   H392      1.0  0.58495  0.24991  0.49412  1.0000
  H   H393      1.0  0.64967  0.46854  0.53248  1.0000
  C   C492      1.0  0.61765  0.24557  0.67083  1.0000
  C   C493      1.0  0.55579  0.24529  0.61953  1.0000
  H   H394      1.0  0.54672  0.44810  0.49587  1.0000
  H   H395      1.0  0.62319  0.44402  0.43841  1.0000
  H   H396      1.0  0.56912  0.48571  0.35377  1.0000
  C   C494      1.0  0.53685  0.49423  0.35766  1.0000
  H   H397      1.0  0.51473  0.17180  0.35070  1.0000
  H   H398      1.0  0.64235  0.18118  0.66643  1.0000
  H   H399      1.0  0.86650  0.42023  0.34276  1.0000
  H   H400      1.0  0.78996  0.40783  0.34674  1.0000
  C   C495      1.0  0.84973  0.44506  0.67285  1.0000
  C   C496      1.0  0.63292  0.49865  0.49626  1.0000
  C   C497      1.0  0.56558  0.43722  0.70254  1.0000
  C   C498      1.0  0.97125  0.07441  0.95619  1.0000
  C   C499      1.0  0.59641  0.27290  0.88315  1.0000
  H   H401      1.0  0.95119  0.36640  0.82610  1.0000
  C   C500      1.0  0.99749  0.15353  0.91598  1.0000
  Fe  Fe36      1.0  0.55104  0.07896  0.72278  1.0000
  S   S65       1.0  0.55165  0.07401  0.76629  1.0000
  S   S66       1.0  0.59192  0.12432  0.69784  1.0000
  C   C501      1.0  0.89827  0.21180  0.86070  1.0000
  H   H402      1.0  0.88708  0.21670  0.88039  1.0000
  C   C502      1.0  0.88745  0.36377  0.75262  1.0000
  C   C503      1.0  0.60983  0.25980  0.83752  1.0000
  C   C504      1.0  0.58682  0.27121  0.68253  1.0000
  C   C505      1.0  0.95197  0.35034  0.77498  1.0000
  H   H403      1.0  0.52530  0.16766  0.76309  1.0000
  H   H404      1.0  0.65865  0.07331  0.82937  1.0000
  H   H405      1.0  0.74822  0.46606  0.68841  1.0000
  C   C506      1.0  0.89567  0.29848  0.77841  1.0000
  H   H406      1.0  0.53217  0.27078  0.70761  1.0000
  C   C507      1.0  0.58792  0.18073  0.69165  1.0000
  C   C508      1.0  0.55664  0.20628  0.70300  1.0000
  C   C509      1.0  0.55614  0.25126  0.69844  1.0000
  C   C510      1.0  0.52612  0.42053  0.69745  1.0000
  H   H407      1.0  0.51233  0.12523  0.82420  1.0000
  H   H408      1.0  0.98800  0.05139  0.91792  1.0000
  C   C511      1.0  0.87149  0.32467  0.76224  1.0000
  H   H409      1.0  0.98721  0.41108  0.85765  1.0000
  H   H410      1.0  0.53327  0.19148  0.71556  1.0000
  H   H411      1.0  0.66528  0.02209  0.77712  1.0000
  H   H412      1.0  0.60368  0.49433  0.70366  1.0000
  C   C512      1.0  0.62133  0.27054  0.75089  1.0000
  H   H413      1.0  0.66064  0.17339  0.73259  1.0000
  C   C513      1.0  0.86937  0.46943  0.69211  1.0000
  C   C514      1.0  0.62099  0.18374  0.76614  1.0000
  C   C515      1.0  0.59895  0.21409  0.78114  1.0000
  C   C516      1.0  0.59809  0.25735  0.77277  1.0000
  P   P17       1.0  0.56732  0.19758  0.80891  1.0000
  C   C517      1.0  0.57754  0.14251  0.81872  1.0000
  H   H414      1.0  0.94188  0.02767  0.85670  1.0000
  C   C518      1.0  0.55693  0.21846  0.86091  1.0000
  C   C519      1.0  0.56574  0.24089  0.88353  1.0000
  C   C520      1.0  0.90512  0.16627  0.82303  1.0000
  C   C521      1.0  0.92101  0.24428  0.84778  1.0000
  C   C522      1.0  0.99229  0.31113  0.83060  1.0000
  C   C523      1.0  0.61882  0.12786  0.82121  1.0000
  C   C524      1.0  0.62678  0.08499  0.82832  1.0000
  H   H415      1.0  0.59986  0.02335  0.83858  1.0000
  H   H416      1.0  0.62842  0.26666  0.82029  1.0000
  C   C525      1.0  0.55252  0.07180  0.83257  1.0000
  C   C526      1.0  0.61859  0.28218  0.86020  1.0000
  C   C527      1.0  0.84530  0.49250  0.71016  1.0000
  C   C528      1.0  0.80152  0.49108  0.70860  1.0000
  C   C529      1.0  0.96470  0.05128  0.93340  1.0000
  H   H417      1.0  0.92453  0.00886  0.91288  1.0000
  H   H418      1.0  0.54898  0.23316  0.90142  1.0000
  H   H419      1.0  0.52191  0.38589  0.69809  1.0000
  H   H420      1.0  0.59095  0.41544  0.70716  1.0000
  H   H421      1.0  0.86863  0.38431  0.74028  1.0000
  H   H422      1.0  0.61942  0.14962  0.77059  1.0000
  H   H423      1.0  0.57912  0.28080  0.78302  1.0000
  H   H424      1.0  0.53360  0.19315  0.86164  1.0000
  H   H425      1.0  0.88174  0.04529  0.98893  1.0000
  C   C530      1.0  0.97390  0.03604  0.86067  1.0000
  C   C531      1.0  0.90474  0.04756  0.97331  1.0000
  C   C532      1.0  0.97763  0.35291  0.83606  1.0000
  H   H426      1.0  0.64485  0.14932  0.81720  1.0000
  H   H427      1.0  0.92703  0.27415  0.85773  1.0000
  H   H428      1.0  0.96838  0.10132  0.84617  1.0000
  H   H429      1.0  0.60337  0.29012  0.90073  1.0000
  C   C533      1.0  0.51384  0.20254  0.79867  1.0000
  H   H430      1.0  0.52677  0.05003  0.83668  1.0000
  S   S67       1.0  0.56547  0.00807  0.71814  1.0000
  H   H431      1.0  0.62022  0.30380  0.74422  1.0000
  H   H432      1.0  0.94533  0.08854  0.99425  1.0000
  C   C534      1.0  0.89059  0.17271  0.84840  1.0000
  H   H433      1.0  0.94016  0.40704  0.75177  1.0000
  C   C535      1.0  0.94101  0.07210  0.97625  1.0000
  H   H434      1.0  0.93909  0.19303  0.79045  1.0000
  C   C536      1.0  0.64495  0.24051  0.73693  1.0000
  C   C537      1.0  0.64437  0.19708  0.74437  1.0000
  H   H435      1.0  0.84024  0.31482  0.75724  1.0000
  H   H436      1.0  0.64295  0.30642  0.86003  1.0000
  C   C538      1.0  0.99626  0.19140  0.90110  1.0000
  C   C539      1.0  0.78190  0.46671  0.68936  1.0000
  C   C540      1.0  0.92773  0.37656  0.75900  1.0000
  C   C541      1.0  0.93627  0.23778  0.82243  1.0000
  H   H437      1.0  0.90306  0.47027  0.69303  1.0000
  C   C542      1.0  0.54445  0.11454  0.82527  1.0000
  H   H438      1.0  0.88259  0.26851  0.78573  1.0000
  H   H439      1.0  0.89940  0.13581  0.81359  1.0000
  H   H440      1.0  0.66223  0.25059  0.71966  1.0000
  C   C543      1.0  0.59363  0.05684  0.83372  1.0000
  C   C544      1.0  0.93615  0.31127  0.78500  1.0000
  C   C545      1.0  0.92769  0.19873  0.81002  1.0000
  H   H441      1.0  0.87355  0.14725  0.85854  1.0000
  C   C546      1.0  0.92853  0.02698  0.93048  1.0000
  C   C547      1.0  0.98897  0.07773  0.85475  1.0000
  C   C548      1.0  0.57822  0.22839  0.83756  1.0000
  P   P18       1.0  0.96790  0.27847  0.80622  1.0000
  S   S68       1.0  0.99202  0.49714  0.72706  1.0000
  H   H442      1.0  0.98079  0.19147  0.88261  1.0000
  H   H443      1.0  0.98306  0.36067  0.77978  1.0000
  C   C549      1.0  0.99944  0.15104  0.00390  1.0000
  C   C550      1.0  0.89841  0.02511  0.95037  1.0000
  C   C551      1.0  0.57267  0.48156  0.70069  1.0000
  C   C552      1.0  0.99759  0.37829  0.85433  1.0000
  C   C553      1.0  0.61811  0.20063  0.67535  1.0000
  S   S69       1.0  0.58577  0.32822  0.67843  1.0000
  H   H444      1.0  0.97194  0.16144  0.99365  1.0000
  H   H445      1.0  0.73836  0.02688  0.79249  1.0000
  H   H446      1.0  0.98211  0.12532  0.90871  1.0000
  Fe  Fe37      1.0  0.86554  0.87068  0.10308  1.0000
  S   S70       1.0  0.85649  0.93540  0.12160  1.0000
  S   S71       1.0  0.88783  0.85833  0.06140  1.0000
  Fe  Fe38      1.0  0.85453  0.82236  0.15570  1.0000
  S   S72       1.0  0.84333  0.88392  0.17770  1.0000
  S   S73       1.0  0.85134  0.75436  0.17347  1.0000
  Fe  Fe39      1.0  0.80314  0.90418  0.14436  1.0000
  S   S74       1.0  0.74104  0.94136  0.14530  1.0000
  Fe  Fe40      1.0  0.89698  0.91006  0.15333  1.0000
  S   S75       1.0  0.94975  0.94565  0.17252  1.0000
  S   S76       1.0  0.81015  0.84055  0.12374  1.0000
  S   S77       1.0  0.91027  0.84752  0.13344  1.0000
  C   C554      1.0  0.54848  0.88444  0.21114  1.0000
  H   H447      1.0  0.67429  0.75939  0.22090  1.0000
  S   S78       1.0  0.99918  0.56387  0.29212  1.0000
  C   C555      1.0  0.66891  0.77436  0.23957  1.0000
  H   H448      1.0  0.68160  0.92458  0.23403  1.0000
  H   H449      1.0  0.90901  0.76333  0.05409  1.0000
  S   S79       1.0  0.51689  0.99763  0.28007  1.0000
  C   C556      1.0  0.97286  0.99462  0.04248  1.0000
  C   C557      1.0  0.96825  0.99306  0.12832  1.0000
  C   C558      1.0  0.63724  0.98147  0.18527  1.0000
  C   C559      1.0  0.70285  0.94791  0.17045  1.0000
  C   C560      1.0  0.70756  0.92999  0.19520  1.0000
  C   C561      1.0  0.55541  0.73586  0.29125  1.0000
  C   C562      1.0  0.64285  0.96493  0.21025  1.0000
  H   H450      1.0  0.60064  0.87366  0.23565  1.0000
  H   H451      1.0  0.60279  0.97167  0.30734  1.0000
  H   H452      1.0  0.73441  0.90994  0.19917  1.0000
  H   H453      1.0  0.77518  0.97110  0.08450  1.0000
  C   C563      1.0  0.99625  0.59711  0.17692  1.0000
  C   C564      1.0  0.90175  0.00375  0.05879  1.0000
  C   C565      1.0  0.89040  0.72716  0.19157  1.0000
  C   C566      1.0  0.88758  0.68220  0.19535  1.0000
  C   C567      1.0  0.91794  0.65947  0.20956  1.0000
  C   C568      1.0  0.95147  0.68155  0.22026  1.0000
  C   C569      1.0  0.95424  0.72648  0.21648  1.0000
  C   C570      1.0  0.92374  0.74919  0.20242  1.0000
  H   H454      1.0  0.86174  0.66482  0.18721  1.0000
  H   H455      1.0  0.91536  0.62493  0.21226  1.0000
  H   H456      1.0  0.84289  0.75575  0.07911  1.0000
  H   H457      1.0  0.92574  0.78382  0.20021  1.0000
  C   C571      1.0  0.83442  0.90605  0.03006  1.0000
  C   C572      1.0  0.86871  0.87819  0.03143  1.0000
  C   C573      1.0  0.93501  0.97690  0.05170  1.0000
  H   H458      1.0  0.81881  0.91635  0.04770  1.0000
  H   H459      1.0  0.59390  0.91411  0.27579  1.0000
  H   H460      1.0  0.95256  0.76781  0.14685  1.0000
  C   C574      1.0  0.96521  0.60904  0.12713  1.0000
  C   C575      1.0  0.62145  0.80668  0.27122  1.0000
  C   C576      1.0  0.67766  0.93843  0.21492  1.0000
  C   C577      1.0  0.99633  0.87688  0.05214  1.0000
  H   H461      1.0  0.55787  0.82651  0.33780  1.0000
  H   H462      1.0  0.72163  0.80621  0.29264  1.0000
  C   C578      1.0  0.54407  0.84519  0.25219  1.0000
  H   H463      1.0  0.54495  0.66841  0.29999  1.0000
  C   C579      1.0  0.70245  0.78156  0.25589  1.0000
  Fe  Fe41      1.0  0.99687  0.58357  0.24986  1.0000
  C   C580      1.0  0.99980  0.80061  0.16789  1.0000
  H   H464      1.0  0.74834  0.94312  0.25156  1.0000
  H   H465      1.0  0.60286  0.78070  0.23435  1.0000
  S   S80       1.0  0.99106  0.65486  0.23815  1.0000
  C   C581      1.0  0.65526  0.81335  0.28766  1.0000
  C   C582      1.0  0.90885  0.74640  0.07259  1.0000
  C   C583      1.0  0.75808  0.97364  0.25949  1.0000
  C   C584      1.0  0.56757  0.86798  0.23327  1.0000
  C   C585      1.0  0.58402  0.93240  0.34027  1.0000
  H   H466      1.0  0.97592  0.81572  0.06753  1.0000
  H   H467      1.0  0.87279  0.98962  0.06602  1.0000
  C   C586      1.0  0.96117  0.56895  0.13965  1.0000
  C   C587      1.0  0.99269  0.84512  0.07145  1.0000
  C   C588      1.0  0.94604  0.73035  0.08273  1.0000
  C   C589      1.0  0.87142  0.74206  0.08666  1.0000
  C   C590      1.0  0.87101  0.72096  0.11069  1.0000
  C   C591      1.0  0.90814  0.70503  0.12095  1.0000
  C   C592      1.0  0.98580  0.64317  0.13923  1.0000
  H   H468      1.0  0.73375  0.77210  0.24985  1.0000
  H   H469      1.0  0.93107  0.94228  0.05347  1.0000
  H   H470      1.0  0.56680  0.90264  0.19694  1.0000
  C   C593      1.0  0.79646  0.97665  0.27174  1.0000
  C   C594      1.0  0.58733  0.90726  0.29602  1.0000
  H   H471      1.0  0.65064  0.82825  0.30637  1.0000
  C   C595      1.0  0.53327  0.70104  0.30214  1.0000
  H   H472      1.0  0.94583  0.54251  0.13013  1.0000
  C   C596      1.0  0.80469  0.00181  0.19363  1.0000
  H   H473      1.0  0.81641  0.94849  0.27321  1.0000
  C   C597      1.0  0.66720  0.97311  0.16553  1.0000
  C   C598      1.0  0.59252  0.94012  0.31400  1.0000
  S   S81       1.0  0.60948  0.97871  0.23681  1.0000
  C   C599      1.0  0.56680  0.85819  0.33073  1.0000
  C   C600      1.0  0.54046  0.77824  0.29422  1.0000
  C   C601      1.0  0.94604  0.70985  0.10714  1.0000
  S   S82       1.0  0.95810  0.52648  0.23840  1.0000
  C   C602      1.0  0.00022  0.63722  0.16452  1.0000
  C   C603      1.0  0.97713  0.98535  0.15434  1.0000
  P   P19       1.0  0.56931  0.82363  0.28064  1.0000
  H   H474      1.0  0.58421  0.72941  0.28074  1.0000
  H   H475      1.0  0.85079  0.97220  0.21794  1.0000
  C   C604      1.0  0.62852  0.78663  0.24723  1.0000
  C   C605      1.0  0.57402  0.86613  0.30415  1.0000
  H   H476      1.0  0.97993  0.74395  0.22470  1.0000
  C   C606      1.0  0.69560  0.80087  0.27996  1.0000
  H   H477      1.0  0.84206  0.71819  0.12181  1.0000
  H   H478      1.0  0.90735  0.69016  0.14004  1.0000
  P   P20       1.0  0.99432  0.69356  0.12200  1.0000
  H   H479      1.0  0.94448  0.97438  0.11895  1.0000
  C   C607      1.0  0.97716  0.56285  0.16444  1.0000
  H   H480      1.0  0.97453  0.73468  0.07154  1.0000
  H   H481      1.0  0.97465  0.53172  0.17411  1.0000
  C   C608      1.0  0.84490  0.99627  0.20309  1.0000
  H   H482      1.0  0.77927  0.98213  0.20119  1.0000
  H   H483      1.0  0.95289  0.61327  0.10786  1.0000
  H   H484      1.0  0.91522  0.84369  0.00905  1.0000
  H   H485      1.0  0.98196  0.87107  0.03368  1.0000
  C   C609      1.0  0.98507  0.76765  0.15215  1.0000
  H   H486      1.0  0.00330  0.82867  0.11138  1.0000
  H   H487      1.0  0.61050  0.00166  0.18133  1.0000
  C   C610      1.0  0.88861  0.86513  0.00825  1.0000
  H   H488      1.0  0.97882  0.82607  0.17425  1.0000
  H   H489      1.0  0.66301  0.98675  0.14637  1.0000
  C   C611      1.0  0.78293  0.00520  0.08443  1.0000
  H   H490      1.0  0.79594  0.00523  0.12479  1.0000
  C   C612      1.0  0.80017  0.70323  0.64521  1.0000
  C   C613      1.0  0.54239  0.58658  0.63608  1.0000
  C   C614      1.0  0.73823  0.51481  0.40908  1.0000
  C   C615      1.0  0.59196  0.58717  0.43665  1.0000
  C   C616      1.0  0.53075  0.51164  0.62603  1.0000
  H   H491      1.0  0.76458  0.52373  0.44669  1.0000
  H   H492      1.0  0.59961  0.69531  0.44738  1.0000
  C   C617      1.0  0.58799  0.56136  0.49968  1.0000
  H   H493      1.0  0.96017  0.65857  0.62221  1.0000
  C   C618      1.0  0.72033  0.58848  0.65594  1.0000
  H   H494      1.0  0.63484  0.51908  0.39576  1.0000
  C   C619      1.0  0.73171  0.54991  0.64400  1.0000
  C   C620      1.0  0.55730  0.62870  0.40304  1.0000
  H   H495      1.0  0.51940  0.53284  0.44232  1.0000
  P   P21       1.0  0.61001  0.53591  0.44922  1.0000
  C   C621      1.0  0.69745  0.52962  0.44806  1.0000
  C   C622      1.0  0.56738  0.66694  0.41554  1.0000
  H   H496      1.0  0.77537  0.75288  0.62033  1.0000
  C   C623      1.0  0.66292  0.52027  0.40713  1.0000
  C   C624      1.0  0.96577  0.60430  0.64821  1.0000
  H   H497      1.0  0.56883  0.58608  0.49098  1.0000
  C   C625      1.0  0.60381  0.62586  0.44836  1.0000
  H   H498      1.0  0.53276  0.66329  0.67138  1.0000
  H   H499      1.0  0.76813  0.50914  0.39949  1.0000
  C   C626      1.0  0.61133  0.53268  0.48422  1.0000
  C   C627      1.0  0.52366  0.53734  0.35507  1.0000
  H   H500      1.0  0.78992  0.67748  0.63280  1.0000
  C   C628      1.0  0.77373  0.53813  0.64206  1.0000
  H   H501      1.0  0.56261  0.55990  0.40295  1.0000
  C   C629      1.0  0.70168  0.51394  0.39478  1.0000
  C   C630      1.0  0.73614  0.52288  0.43568  1.0000
  H   H502      1.0  0.53966  0.62974  0.38529  1.0000
  H   H503      1.0  0.56476  0.88528  0.36902  1.0000
  S   S83       1.0  0.61106  0.53367  0.63898  1.0000
  C   C631      1.0  0.55793  0.54449  0.63311  1.0000
  H   H504      1.0  0.88843  0.67659  0.63658  1.0000
  C   C632      1.0  0.79211  0.74600  0.63797  1.0000
  H   H505      1.0  0.68757  0.59716  0.65741  1.0000
  C   C633      1.0  0.57125  0.89140  0.34864  1.0000
  C   C634      1.0  0.80451  0.56455  0.65238  1.0000
  C   C635      1.0  0.59094  0.66556  0.43807  1.0000
  C   C636      1.0  0.80615  0.77986  0.65321  1.0000
  C   C637      1.0  0.94592  0.57909  0.66729  1.0000
  C   C638      1.0  0.66046  0.52737  0.43394  1.0000
  H   H506      1.0  0.70784  0.52897  0.63647  1.0000
  C   C639      1.0  0.75104  0.61535  0.66595  1.0000
  C   C640      1.0  0.58829  0.55757  0.52673  1.0000
  C   C641      1.0  0.79344  0.60368  0.66417  1.0000
  H   H507      1.0  0.83668  0.55394  0.65122  1.0000
  H   H508      1.0  0.55734  0.69763  0.40752  1.0000
  H   H509      1.0  0.62320  0.62541  0.46532  1.0000
  C   C642      1.0  0.56995  0.58902  0.41335  1.0000
  H   H510      1.0  0.51023  0.65148  0.58594  1.0000
  C   C643      1.0  0.82184  0.69399  0.66803  1.0000
  C   C644      1.0  0.94472  0.63921  0.63710  1.0000
  H   H511      1.0  0.70335  0.50760  0.37412  1.0000
  H   H512      1.0  0.80021  0.81299  0.64744  1.0000
  H   H513      1.0  0.61081  0.52121  0.55951  1.0000
  C   C645      1.0  0.90400  0.64932  0.64537  1.0000
  C   C646      1.0  0.88415  0.62457  0.66495  1.0000
  C   C647      1.0  0.61104  0.52455  0.53855  1.0000
  H   H514      1.0  0.56343  0.61212  0.64135  1.0000
  H   H515      1.0  0.57030  0.57975  0.53859  1.0000
  H   H516      1.0  0.99759  0.59679  0.64221  1.0000
  H   H517      1.0  0.69671  0.53658  0.46854  1.0000
  H   H518      1.0  0.58739  0.95816  0.35410  1.0000
  H   H519      1.0  0.54602  0.56182  0.34914  1.0000
  H   H520      1.0  0.78238  0.50787  0.63303  1.0000
  Fe  Fe42      1.0  0.82674  0.93302  0.85434  1.0000
  S   S84       1.0  0.80616  0.87729  0.87964  1.0000
  S   S85       1.0  0.78780  0.97343  0.82589  1.0000
  Fe  Fe43      1.0  0.91649  0.92861  0.87522  1.0000
  S   S86       1.0  0.90181  0.87169  0.90135  1.0000
  C   C648      1.0  0.90531  0.58913  0.67559  1.0000
  Fe  Fe44      1.0  0.86716  0.84561  0.86728  1.0000
  S   S87       1.0  0.86426  0.77499  0.85454  1.0000
  Fe  Fe45      1.0  0.84317  0.90788  0.91156  1.0000
  S   S88       1.0  0.81821  0.92302  0.95235  1.0000
  S   S89       1.0  0.88595  0.89995  0.84031  1.0000
  S   S90       1.0  0.85946  0.96608  0.88701  1.0000
  H   H521      1.0  0.54598  0.54353  0.69183  1.0000
  C   C649      1.0  0.63728  0.80959  0.80325  1.0000
  H   H522      1.0  0.93709  0.94195  0.95174  1.0000
  C   C650      1.0  0.59696  0.74360  0.77704  1.0000
  S   S91       1.0  0.59964  0.95736  0.78722  1.0000
  P   P22       1.0  0.55886  0.80014  0.74208  1.0000
  C   C651      1.0  0.83907  0.90599  0.98250  1.0000
  C   C652      1.0  0.57630  0.69298  0.69714  1.0000
  C   C653      1.0  0.87388  0.87884  0.98393  1.0000
  C   C654      1.0  0.67677  0.99865  0.79093  1.0000
  H   H523      1.0  0.88906  0.86788  0.96629  1.0000
  H   H524      1.0  0.83530  0.62702  0.78765  1.0000
  H   H525      1.0  0.60825  0.85309  0.77644  1.0000
  H   H526      1.0  0.64540  0.82126  0.72759  1.0000
  C   C655      1.0  0.90270  0.74228  0.83888  1.0000
  C   C656      1.0  0.89081  0.70207  0.82891  1.0000
  C   C657      1.0  0.92013  0.67507  0.81628  1.0000
  C   C658      1.0  0.96183  0.68796  0.81346  1.0000
  C   C659      1.0  0.97377  0.72805  0.82353  1.0000
  C   C660      1.0  0.94446  0.75505  0.83617  1.0000
  H   H527      1.0  0.85878  0.69158  0.83121  1.0000
  H   H528      1.0  0.91070  0.64389  0.80926  1.0000
  H   H529      1.0  0.61297  0.72969  0.72346  1.0000
  H   H530      1.0  0.95419  0.78566  0.84393  1.0000
  C   C661      1.0  0.73423  0.97049  0.81717  1.0000
  H   H531      1.0  0.67625  0.87828  0.69943  1.0000
  Fe  Fe46      1.0  0.93752  0.53486  0.74236  1.0000
  C   C662      1.0  0.65079  0.96495  0.79946  1.0000
  C   C663      1.0  0.66630  0.93507  0.81763  1.0000
  C   C664      1.0  0.70764  0.93791  0.82653  1.0000
  C   C665      1.0  0.99143  0.90146  0.95259  1.0000
  C   C666      1.0  0.61258  0.81949  0.78195  1.0000
  S   S92       1.0  0.96891  0.59875  0.73403  1.0000
  H   H532      1.0  0.71911  0.91488  0.84054  1.0000
  C   C667      1.0  0.77631  0.92519  0.75589  1.0000
  C   C668      1.0  0.73418  0.93340  0.75140  1.0000
  C   C669      1.0  0.70494  0.90027  0.75415  1.0000
  C   C670      1.0  0.71799  0.85862  0.76078  1.0000
  C   C671      1.0  0.76032  0.84990  0.76511  1.0000
  C   C672      1.0  0.78943  0.88365  0.76274  1.0000
  P   P23       1.0  0.77538  0.79638  0.77569  1.0000
  C   C673      1.0  0.76134  0.78853  0.80945  1.0000
  C   C674      1.0  0.74908  0.75851  0.75514  1.0000
  C   C675      1.0  0.72653  0.72341  0.76561  1.0000
  C   C676      1.0  0.70645  0.69461  0.74928  1.0000
  C   C677      1.0  0.70855  0.70070  0.72242  1.0000
  C   C678      1.0  0.73062  0.73574  0.71185  1.0000
  C   C679      1.0  0.75065  0.76464  0.72814  1.0000
  C   C680      1.0  0.77402  0.75088  0.82242  1.0000
  C   C681      1.0  0.76433  0.74486  0.84874  1.0000
  C   C682      1.0  0.74257  0.77670  0.86240  1.0000
  C   C683      1.0  0.73024  0.81449  0.84970  1.0000
  C   C684      1.0  0.73986  0.82058  0.82337  1.0000
  C   C685      1.0  0.83131  0.78913  0.77327  1.0000
  C   C686      1.0  0.85716  0.81218  0.78984  1.0000
  C   C687      1.0  0.90049  0.80744  0.78822  1.0000
  C   C688      1.0  0.91836  0.77834  0.77077  1.0000
  C   C689      1.0  0.89287  0.75444  0.75461  1.0000
  C   C690      1.0  0.84943  0.75962  0.75587  1.0000
  H   H533      1.0  0.79864  0.95145  0.75501  1.0000
  H   H534      1.0  0.62516  0.70069  0.80486  1.0000
  H   H535      1.0  0.67201  0.90742  0.75198  1.0000
  H   H536      1.0  0.69502  0.83338  0.76323  1.0000
  H   H537      1.0  0.82209  0.87868  0.76659  1.0000
  H   H538      1.0  0.72418  0.71809  0.78631  1.0000
  H   H539      1.0  0.68937  0.66743  0.75750  1.0000
  H   H540      1.0  0.85452  0.72214  0.70007  1.0000
  S   S93       1.0  0.98348  0.95203  0.87871  1.0000
  H   H541      1.0  0.76761  0.79174  0.71973  1.0000
  H   H542      1.0  0.79273  0.72687  0.81245  1.0000
  H   H543      1.0  0.77592  0.71666  0.85890  1.0000
  H   H544      1.0  0.73677  0.77284  0.88305  1.0000
  H   H545      1.0  0.71468  0.83980  0.86055  1.0000
  H   H546      1.0  0.73142  0.85078  0.81424  1.0000
  H   H547      1.0  0.84380  0.83348  0.80435  1.0000
  H   H548      1.0  0.92006  0.82506  0.80136  1.0000
  H   H549      1.0  0.95188  0.77339  0.77039  1.0000
  H   H550      1.0  0.90695  0.73125  0.74157  1.0000
  H   H551      1.0  0.83028  0.73980  0.74380  1.0000
  C   C691      1.0  0.86884  0.64680  0.72577  1.0000
  S   S94       1.0  0.86816  0.52370  0.73490  1.0000
  H   H552      1.0  0.69305  0.67825  0.70984  1.0000
  Fe  Fe47      1.0  0.99310  0.59336  0.77449  1.0000
  C   C692      1.0  0.59318  0.78642  0.76823  1.0000
  H   H553      1.0  0.94926  0.97375  0.99449  1.0000
  H   H554      1.0  0.60082  0.66973  0.69316  1.0000
  H   H555      1.0  0.65199  0.83531  0.81379  1.0000
  C   C693      1.0  0.62513  0.84430  0.71821  1.0000
  H   H556      1.0  0.57998  0.71786  0.76794  1.0000
  C   C694      1.0  0.55600  0.87106  0.70865  1.0000
  C   C695      1.0  0.58166  0.84220  0.72208  1.0000
  C   C696      1.0  0.86941  0.64442  0.75282  1.0000
  C   C697      1.0  0.97111  0.95008  0.98708  1.0000
  H   H557      1.0  0.89747  0.65297  0.76299  1.0000
  C   C698      1.0  0.96410  0.93232  0.96273  1.0000
  C   C699      1.0  0.79796  0.61969  0.72645  1.0000
  C   C700      1.0  0.54011  0.50928  0.69406  1.0000
  C   C701      1.0  0.55075  0.75632  0.71994  1.0000
  C   C702      1.0  0.62213  0.73377  0.79818  1.0000
  H   H558      1.0  0.77200  0.60463  0.76431  1.0000
  C   C703      1.0  0.64251  0.76674  0.81119  1.0000
  H   H559      1.0  0.77044  0.60867  0.71675  1.0000
  C   C704      1.0  0.79864  0.61739  0.75354  1.0000
  H   H560      1.0  0.66163  0.75924  0.82776  1.0000
  H   H561      1.0  0.64614  0.90964  0.82491  1.0000
  H   H562      1.0  0.89663  0.65758  0.71536  1.0000
  C   C705      1.0  0.58287  0.72668  0.71446  1.0000
  C   C706      1.0  0.57359  0.90275  0.69241  1.0000
  H   H563      1.0  0.89055  0.56949  0.69053  1.0000
  C   C707      1.0  0.83306  0.63463  0.71232  1.0000
  H   H564      1.0  0.96232  0.55210  0.67597  1.0000
  C   C708      1.0  0.61690  0.90568  0.68932  1.0000
  C   C709      1.0  0.83432  0.62981  0.76672  1.0000
  C   C710      1.0  0.82852  0.77097  0.67563  1.0000
  S   S95       1.0  0.00040  0.65516  0.79799  1.0000
  H   H565      1.0  0.72397  0.96587  0.74674  1.0000
  C   C711      1.0  0.64268  0.87621  0.70203  1.0000
  C   C712      1.0  0.71823  0.00129  0.79970  1.0000
  S   S96       1.0  0.95866  0.53147  0.78382  1.0000
  H   H566      1.0  0.73231  0.74049  0.69102  1.0000
  H   H567      1.0  0.98599  0.88826  0.93354  1.0000
  P   P24       1.0  0.83275  0.63876  0.67731  1.0000
  Fe  Fe48      1.0  0.56103  0.00274  0.76157  1.0000
  C   C713      1.0  0.53806  0.68936  0.68472  1.0000
  H   H568      1.0  0.78263  0.50892  0.72239  1.0000
  H   H569      1.0  0.84011  0.79721  0.68722  1.0000
  C   C714      1.0  0.51081  0.81681  0.75785  1.0000
  H   H570      1.0  0.53014  0.88322  0.76299  1.0000
  C   C715      1.0  0.51313  0.75343  0.70652  1.0000
  H   H571      1.0  0.63032  0.93077  0.67701  1.0000
  C   C716      1.0  0.83646  0.72824  0.68297  1.0000
  H   H572      1.0  0.52241  0.86900  0.71053  1.0000
  H   H573      1.0  0.55350  0.92521  0.68227  1.0000
  C   C717      1.0  0.81972  0.91983  0.00571  1.0000
  H   H574      1.0  0.79273  0.94075  0.00482  1.0000
  C   C718      1.0  0.00557  0.93674  0.00161  1.0000
  C   C719      1.0  0.50669  0.71982  0.68921  1.0000
  C   C720      1.0  0.00054  0.00509  0.87133  1.0000
  H   H575      1.0  0.74178  0.64514  0.67514  1.0000
  H   H576      1.0  0.87059  0.00555  0.94817  1.0000
