data_image0
_chemical_formula_structural       S2HSCFeS2FeHFeSCSFeS2FeSHC6H4CHC2HCH2CHC6H4CH2C5H2C6PC9HC6H14CH3C2H4C2H4C2HS2C2HCHC7PHC2H2CHCHCHCHCHCHC4FeHC3H2CHCHC2H3C2H3C2H4C2HCHC2H5C2HC2HCFeC4H3C5H2CSHCPSCHFeCH2CFeSHFeS2FeHFeS3CS2FeSHC6HCH3SC5H2SC6H4C7H3C2HCH3C2HCH2C4SHC3H3CH2CH3CH3CH4CHC2SCH4CH2CHCH2C6HC2HC3HCH3C2H5PC2SH5CHC6PC18H20C7PC4HC5FeCHC2HC3SCPC2HC3H4FeH2CHFeSHFeS2FeSFeS3FeSCFeH2FeSFeS3FeS2FeS2C6H4C6H4C6H4C6H5C2H2C2H3C2HC2HC2H2CH3SC4HC2H3C6PC8H2C3H2CH2C2HCH11C5H2C2PC3HCHSC6H3CH2C2HCH2C3HCH4C2H3CHCHC2H2CH2CHC3PC14HC4HCH3CH4CH3CHC2PCH2C2SC3H2CSCH2C2HCHCH5C2HCHC2PC2HCHCH2FeSHFeS2FeSFeS3FeS2FeCHCHFeS3CPHFeS2C6H4C6H3SC6H3C7H5C2HCHCHC3HC4HC3H3C2H11CHCPH4C4PHCH2C2HC2HCH5C3HCH5CHCH6CHC4HC3HC8H2C3HC3HC2HCS2CHCHCHCHCSHPCHC4HCHFeC7HCHC2H4CFeS2H3FeSHSFeS2FeS2C2SCSC6HC2HCPC4H3C8H4C6H4C2HC2HCH2CHCFeCPC3H3C2H2C2HCHFeH2CHCPC2HC12HS2H2CH9CH2C3HC2HCHC2H3PH2C2H2C4HC2H2C2HC3HCH2CHCH2C3H5C2HC3FeS2HSFe2SCSFeS2FeS3HSCS2HC5H5C3H6C6H4C6H4C2HC8PC3HC9FeCH5CH2CH4CH2CSCH2CHFeC2H3CH3CHSH3CHCHC3HCHC2SH2C2HC2HCHC3PHC3H3CSC3HCHC3H4C2H4C3HC2H5C4PC7H2C4H2C3H9CH3C2HPCHC4PC14H2C2HC2HC2H2C2H2C2H2PHC3FeCHC3H4C3HCH2C5H3CHCHFeS2FeSHSCFeCSFeS2FeHSHS2C6H4C6H4FeHC3HCH2C7H2C8HC2H3C5HPC5SC5FeH5SC2HC4HCH2C4PC3SH2C12HCH6C2H10CH2C2HCFeHC4H2CH3C2HCH5CHC3HPC2H3C8H2CH7CHSCHCH3CH2C3PC3H2CH2C2SC2HCH4CHSCHCHCHCHC4HC2HC4H4CH2FeS2FeSHSHC2SHSHFeHSHS2C6H4C6H4C4HC2HCH3C4H2C3H2CH5C4HC2PC2HCHFeH5CHPSC2HCH4CH2FeCHCHC3H3C3HC2SC4HC2HCH2C2H3C2H3CHC2HC2H6C6PC14HCH2C3H5C5FeCSHCHCHCHFeH2C2HCSFeS2FeS2FeCFeSCSFeS2FeSHFeSFeS3H2SH3C6HCH2C6H4C6H4C6H5C2H4C2PC7H3C8HCH8C3H7SH5C2HCHCHPHC3H9C4HSHC2HSC3PC19H8C3HCH2C4H2CHC4SC2FeC2HCHSHCH3C2HCHC2H3FeS2HSPFeCFeSCSFeS2FeSHFeSFeS3FeS2FeHSC6H4C6HCH2C6H3C7H5CHCHC2H2CHC4PC4HC7SH4CHC2H3C7PC18H5FeH11CH2CHSC2PHC3HC2H3CHC6HCH4C2HCH2CH6C2H2C3H3CHC2H2PH3CSCH4C2H2C2H2C5H3C2SH2SH2C2H2CHCHC3HFeS2FeS2FeSFeCS2CSC4H2C2HCPHCHC6H2CHC5H3C8H4C3HCH3C3H4S2H2CHC2H6CHCHCHC9HCHC2HCHFeH2C2H4C2H3C6PC2HCPC10SC2H2CH3CHCH7FeCSH2CH5C2H3CHPC3HCHCHC2H2CH2CHC3SHCHC3SHC5H2FeH7CH3C3HC3HSFeS2FeSHFeSFeHS2CSH2S2CHC2HSH2C8H2CHC4H4C8H6C7PC5HC2H2C4H2C2H7C2HFeHSH5CH2CHC3HCHC5H2C4H5CHFeSC2HC2HC2HC4HCH2C4HC3PC15HC3H14FeC2H2C2SH2CPHC3H5C3H2
_chemical_formula_sum              "S192 H1152 C1440 Fe96 P48"
_cell_length_a       42.6319
_cell_length_b       42.6837
_cell_length_c       35.2049
_cell_angle_alpha    89.9931
_cell_angle_beta     90.0641
_cell_angle_gamma    90.1071

_space_group_name_H-M_alt    "P 1"
_space_group_IT_number       1

loop_
  _space_group_symop_operation_xyz
  'x, y, z'

loop_
  _atom_site_type_symbol
  _atom_site_label
  _atom_site_symmetry_multiplicity
  _atom_site_fract_x
  _atom_site_fract_y
  _atom_site_fract_z
  _atom_site_occupancy
  S   S1        1.0  0.28699  0.22369  0.23129  1.0000
  S   S2        1.0  0.30825  0.22889  0.42515  1.0000
  H   H1        1.0  0.29305  0.43170  0.32922  1.0000
  S   S3        1.0  0.16984  0.28286  0.01205  1.0000
  C   C1        1.0  0.15944  0.01307  0.10338  1.0000
  Fe  Fe1       1.0  0.11469  0.21892  0.05780  1.0000
  S   S4        1.0  0.11152  0.27055  0.07115  1.0000
  S   S5        1.0  0.07798  0.18726  0.08661  1.0000
  Fe  Fe2       1.0  0.11698  0.28062  0.00864  1.0000
  H   H2        1.0  0.14030  0.25046  0.38590  1.0000
  Fe  Fe3       1.0  0.16435  0.26856  0.07373  1.0000
  S   S6        1.0  0.19007  0.29325  0.12217  1.0000
  C   C2        1.0  0.31336  0.03796  0.33399  1.0000
  S   S7        1.0  0.16718  0.21662  0.06321  1.0000
  Fe  Fe4       1.0  0.03595  0.02356  0.19585  1.0000
  S   S8        1.0  0.07150  0.04870  0.15698  1.0000
  S   S9        1.0  0.04303  0.02603  0.25911  1.0000
  Fe  Fe5       1.0  0.01510  0.47970  0.38376  1.0000
  S   S10       1.0  0.04733  0.43800  0.39869  1.0000
  H   H3        1.0  0.32608  0.13022  0.28742  1.0000
  C   C3        1.0  0.07739  0.14914  0.10751  1.0000
  C   C4        1.0  0.04967  0.13858  0.12517  1.0000
  C   C5        1.0  0.04753  0.10820  0.14093  1.0000
  C   C6        1.0  0.07319  0.08785  0.13918  1.0000
  C   C7        1.0  0.10108  0.09858  0.12208  1.0000
  C   C8        1.0  0.10325  0.12901  0.10646  1.0000
  H   H4        1.0  0.02957  0.15397  0.12627  1.0000
  H   H5        1.0  0.02592  0.10035  0.15392  1.0000
  H   H6        1.0  0.12118  0.08324  0.12094  1.0000
  H   H7        1.0  0.12479  0.13675  0.09323  1.0000
  C   C9        1.0  0.18508  0.31372  0.43819  1.0000
  H   H8        1.0  0.09572  0.34917  0.46665  1.0000
  C   C10       1.0  0.15467  0.01046  0.03463  1.0000
  C   C11       1.0  0.05346  0.41411  0.43989  1.0000
  H   H9        1.0  0.16557  0.30053  0.44976  1.0000
  C   C12       1.0  0.32070  0.11318  0.26562  1.0000
  H   H10       1.0  0.02316  0.43988  0.47736  1.0000
  H   H11       1.0  0.11422  0.41447  0.36458  1.0000
  C   C13       1.0  0.30233  0.24006  0.08109  1.0000
  H   H12       1.0  0.30349  0.17140  0.47498  1.0000
  C   C14       1.0  0.26073  0.24414  0.20122  1.0000
  C   C15       1.0  0.25496  0.27624  0.20483  1.0000
  C   C16       1.0  0.23364  0.29112  0.18004  1.0000
  C   C17       1.0  0.21726  0.27390  0.15226  1.0000
  C   C18       1.0  0.22276  0.24174  0.14920  1.0000
  C   C19       1.0  0.24481  0.22716  0.17303  1.0000
  H   H13       1.0  0.26672  0.28953  0.22676  1.0000
  H   H14       1.0  0.22951  0.31602  0.18272  1.0000
  H   H15       1.0  0.21032  0.22811  0.12818  1.0000
  H   H16       1.0  0.24960  0.20249  0.16962  1.0000
  C   C20       1.0  0.26817  0.23408  0.43674  1.0000
  H   H17       1.0  0.29824  0.09146  0.37536  1.0000
  H   H18       1.0  0.12473  0.17790  0.16323  1.0000
  C   C21       1.0  0.20416  0.23723  0.45782  1.0000
  C   C22       1.0  0.21294  0.23417  0.41949  1.0000
  C   C23       1.0  0.24477  0.23297  0.40891  1.0000
  C   C24       1.0  0.08427  0.16506  0.25032  1.0000
  C   C25       1.0  0.32509  0.32460  0.46535  1.0000
  H   H19       1.0  0.19507  0.23228  0.39786  1.0000
  H   H20       1.0  0.25117  0.23007  0.37939  1.0000
  C   C26       1.0  0.20799  0.26133  0.29553  1.0000
  C   C27       1.0  0.19309  0.26435  0.26036  1.0000
  C   C28       1.0  0.18150  0.29346  0.24887  1.0000
  C   C29       1.0  0.18525  0.31971  0.27222  1.0000
  C   C30       1.0  0.20034  0.31695  0.30755  1.0000
  C   C31       1.0  0.21164  0.28749  0.31906  1.0000
  P   P1        1.0  0.20938  0.35139  0.33544  1.0000
  C   C32       1.0  0.24759  0.36601  0.32180  1.0000
  C   C33       1.0  0.18056  0.38185  0.32703  1.0000
  C   C34       1.0  0.15548  0.38690  0.35226  1.0000
  C   C35       1.0  0.13372  0.41077  0.34529  1.0000
  C   C36       1.0  0.13689  0.42992  0.31336  1.0000
  C   C37       1.0  0.16173  0.42515  0.28817  1.0000
  C   C38       1.0  0.18341  0.40120  0.29488  1.0000
  C   C39       1.0  0.25631  0.39687  0.33095  1.0000
  C   C40       1.0  0.28632  0.40795  0.32198  1.0000
  H   H21       1.0  0.01081  0.47103  0.22556  1.0000
  C   C41       1.0  0.29933  0.35760  0.29480  1.0000
  C   C42       1.0  0.26928  0.34651  0.30337  1.0000
  C   C43       1.0  0.20981  0.34021  0.38498  1.0000
  C   C44       1.0  0.23541  0.34778  0.40848  1.0000
  C   C45       1.0  0.23590  0.33804  0.44641  1.0000
  C   C46       1.0  0.18484  0.32272  0.40005  1.0000
  H   H22       1.0  0.21753  0.23888  0.30407  1.0000
  H   H23       1.0  0.19134  0.24436  0.24150  1.0000
  H   H24       1.0  0.17075  0.29593  0.22108  1.0000
  H   H25       1.0  0.17704  0.34215  0.26207  1.0000
  H   H26       1.0  0.22421  0.28482  0.34566  1.0000
  H   H27       1.0  0.15243  0.37268  0.37735  1.0000
  H   H28       1.0  0.11996  0.44838  0.30811  1.0000
  H   H29       1.0  0.16412  0.43998  0.26334  1.0000
  H   H30       1.0  0.20241  0.39776  0.27488  1.0000
  H   H31       1.0  0.24004  0.41225  0.34541  1.0000
  H   H32       1.0  0.23450  0.02365  0.33732  1.0000
  H   H33       1.0  0.32171  0.21084  0.15597  1.0000
  H   H34       1.0  0.26337  0.32262  0.29599  1.0000
  H   H35       1.0  0.25526  0.36071  0.39764  1.0000
  C   C47       1.0  0.03902  0.42024  0.47481  1.0000
  H   H36       1.0  0.16515  0.31599  0.38236  1.0000
  H   H37       1.0  0.09223  0.42426  0.98875  1.0000
  H   H38       1.0  0.02782  0.24632  0.16618  1.0000
  C   C48       1.0  0.24813  0.24222  0.06014  1.0000
  C   C49       1.0  0.08539  0.13680  0.22990  1.0000
  H   H39       1.0  0.07117  0.00810  0.08877  1.0000
  H   H40       1.0  0.17689  0.18238  0.26852  1.0000
  H   H41       1.0  0.27247  0.06223  0.31222  1.0000
  H   H42       1.0  0.06485  0.09107  0.22193  1.0000
  C   C50       1.0  0.28104  0.04200  0.32763  1.0000
  C   C51       1.0  0.12196  0.21378  0.28691  1.0000
  H   H43       1.0  0.22625  0.25496  0.05801  1.0000
  H   H44       1.0  0.31635  0.34223  0.28164  1.0000
  H   H45       1.0  0.32105  0.03484  0.24659  1.0000
  H   H46       1.0  0.04840  0.20714  0.21107  1.0000
  C   C52       1.0  0.25943  0.02024  0.34181  1.0000
  C   C53       1.0  0.25947  0.23764  0.47502  1.0000
  H   H47       1.0  0.29727  0.36407  0.13421  1.0000
  S   S11       1.0  0.16378  0.23662  0.47002  1.0000
  S   S12       1.0  0.31043  0.27522  0.32749  1.0000
  C   C54       1.0  0.32561  0.35597  0.47742  1.0000
  C   C55       1.0  0.31287  0.33882  0.18371  1.0000
  H   H48       1.0  0.02044  0.14891  0.30567  1.0000
  C   C56       1.0  0.11603  0.24737  0.19308  1.0000
  H   H49       1.0  0.28127  0.17303  0.03459  1.0000
  C   C57       1.0  0.08001  0.36892  0.46923  1.0000
  C   C58       1.0  0.32600  0.08100  0.27142  1.0000
  C   C59       1.0  0.30792  0.38820  0.30421  1.0000
  C   C60       1.0  0.17515  0.17681  0.23866  1.0000
  C   C61       1.0  0.13600  0.20783  0.35356  1.0000
  C   C62       1.0  0.14607  0.17433  0.17951  1.0000
  C   C63       1.0  0.12923  0.19457  0.31812  1.0000
  P   P2        1.0  0.11223  0.19617  0.24156  1.0000
  H   H50       1.0  0.30468  0.14887  0.22692  1.0000
  C   C64       1.0  0.13531  0.24032  0.35824  1.0000
  C   C65       1.0  0.30625  0.07066  0.20775  1.0000
  H   H51       1.0  0.10297  0.13280  0.20832  1.0000
  H   H52       1.0  0.11528  0.26194  0.26874  1.0000
  C   C66       1.0  0.27910  0.19604  0.04728  1.0000
  H   H53       1.0  0.09611  0.48124  0.41773  1.0000
  C   C67       1.0  0.06414  0.22471  0.19978  1.0000
  H   H54       1.0  0.02346  0.09880  0.27029  1.0000
  C   C68       1.0  0.14600  0.07048  0.99304  1.0000
  H   H55       1.0  0.14759  0.45519  0.41084  1.0000
  C   C69       1.0  0.01017  0.49256  0.20924  1.0000
  H   H56       1.0  0.25592  0.34336  0.46423  1.0000
  C   C70       1.0  0.07221  0.26963  0.15878  1.0000
  H   H57       1.0  0.14095  0.24730  0.19911  1.0000
  C   C71       1.0  0.12120  0.24645  0.29194  1.0000
  H   H58       1.0  0.05877  0.19119  0.29305  1.0000
  C   C72       1.0  0.06043  0.16942  0.27736  1.0000
  C   C73       1.0  0.05231  0.24697  0.17438  1.0000
  C   C74       1.0  0.27367  0.25603  0.07856  1.0000
  C   C75       1.0  0.06361  0.11301  0.23734  1.0000
  Fe  Fe6       1.0  0.16917  0.23101  0.00134  1.0000
  H   H59       1.0  0.23112  0.20185  0.02960  1.0000
  C   C76       1.0  0.10406  0.26985  0.16821  1.0000
  C   C77       1.0  0.32070  0.13236  0.39781  1.0000
  C   C78       1.0  0.14694  0.18096  0.21861  1.0000
  H   H60       1.0  0.22383  0.16339  0.23525  1.0000
  H   H61       1.0  0.08512  0.38302  0.41068  1.0000
  C   C79       1.0  0.17278  0.16324  0.16094  1.0000
  H   H62       1.0  0.29254  0.11120  0.17517  1.0000
  C   C80       1.0  0.15138  0.02709  0.06880  1.0000
  H   H63       1.0  0.19640  0.48706  0.40864  1.0000
  C   C81       1.0  0.04026  0.11736  0.26461  1.0000
  C   C82       1.0  0.09609  0.22492  0.20951  1.0000
  H   H64       1.0  0.30130  0.13806  0.41638  1.0000
  H   H65       1.0  0.14163  0.19298  0.37764  1.0000
  H   H66       1.0  0.17190  0.15843  0.13073  1.0000
  C   C83       1.0  0.21075  0.32102  0.46125  1.0000
  C   C84       1.0  0.07400  0.38831  0.43746  1.0000
  H   H67       1.0  0.32682  0.19727  0.06644  1.0000
  H   H68       1.0  0.12955  0.16930  0.31507  1.0000
  H   H69       1.0  0.06310  0.28654  0.13864  1.0000
  C   C85       1.0  0.25081  0.21228  0.04446  1.0000
  C   C86       1.0  0.12177  0.12018  0.00994  1.0000
  H   H70       1.0  0.12741  0.28480  0.33107  1.0000
  H   H71       1.0  0.10779  0.36895  0.00101  1.0000
  H   H72       1.0  0.11970  0.28694  0.15542  1.0000
  H   H73       1.0  0.27072  0.27915  0.09049  1.0000
  C   C87       1.0  0.20190  0.16589  0.21989  1.0000
  C   C88       1.0  0.30850  0.12395  0.23112  1.0000
  H   H74       1.0  0.14243  0.05077  0.06895  1.0000
  C   C89       1.0  0.20062  0.15883  0.18115  1.0000
  H   H75       1.0  0.22140  0.15057  0.16660  1.0000
  C   C90       1.0  0.03859  0.14561  0.28451  1.0000
  C   C91       1.0  0.12797  0.25961  0.32743  1.0000
  H   H76       1.0  0.14869  0.16170  0.99714  1.0000
  H   H77       1.0  0.31009  0.32144  0.08958  1.0000
  H   H78       1.0  0.15643  0.02593  0.12970  1.0000
  H   H79       1.0  0.01867  0.45440  0.04622  1.0000
  H   H80       1.0  0.10232  0.13314  0.02211  1.0000
  C   C92       1.0  0.32558  0.31086  0.19737  1.0000
  C   C93       1.0  0.31900  0.10601  0.37425  1.0000
  H   H81       1.0  0.30084  0.05422  0.18520  1.0000
  C   C94       1.0  0.30479  0.20984  0.06551  1.0000
  C   C95       1.0  0.30155  0.10274  0.20207  1.0000
  H   H82       1.0  0.10047  0.07534  0.01991  1.0000
  C   C96       1.0  0.12083  0.08741  0.00863  1.0000
  Fe  Fe7       1.0  0.31821  0.24116  0.27941  1.0000
  C   C97       1.0  0.31427  0.31810  0.11968  1.0000
  C   C98       1.0  0.32327  0.31749  0.42666  1.0000
  C   C99       1.0  0.31804  0.05979  0.24243  1.0000
  C   C100      1.0  0.32300  0.37998  0.45028  1.0000
  H   H83       1.0  0.32119  0.39126  0.39064  1.0000
  H   H84       1.0  0.30739  0.35765  0.20322  1.0000
  H   H85       1.0  0.32224  0.40432  0.45874  1.0000
  C   C101      1.0  0.14644  0.48049  0.41308  1.0000
  C   C102      1.0  0.32175  0.37272  0.41161  1.0000
  C   C103      1.0  0.32652  0.28968  0.13325  1.0000
  C   C104      1.0  0.30718  0.34242  0.14486  1.0000
  C   C105      1.0  0.32368  0.01171  0.35453  1.0000
  H   H86       1.0  0.32111  0.33595  0.36985  1.0000
  H   H87       1.0  0.00469  0.48132  0.10587  1.0000
  C   C106      1.0  0.32181  0.34151  0.39983  1.0000
  S   S13       1.0  0.00389  0.48608  0.32106  1.0000
  H   H88       1.0  0.21084  0.01112  0.99150  1.0000
  C   C107      1.0  0.14787  0.13631  0.99596  1.0000
  P   P3        1.0  0.14406  0.02815  0.98971  1.0000
  S   S14       1.0  0.11662  0.22889  0.99506  1.0000
  C   C108      1.0  0.00039  0.47205  0.04634  1.0000
  H   H89       1.0  0.32337  0.29331  0.41736  1.0000
  Fe  Fe8       1.0  0.32725  0.23646  0.36542  1.0000
  C   C109      1.0  0.11740  0.49518  0.41706  1.0000
  H   H90       1.0  0.99675  0.14447  0.20011  1.0000
  H   H91       1.0  0.05928  0.33673  0.69232  1.0000
  C   C110      1.0  0.14442  0.36639  0.69038  1.0000
  Fe  Fe9       1.0  0.14523  0.25463  0.52667  1.0000
  S   S15       1.0  0.15488  0.30485  0.54277  1.0000
  H   H92       1.0  0.30747  0.11585  0.49572  1.0000
  Fe  Fe10      1.0  0.10210  0.24178  0.59483  1.0000
  S   S16       1.0  0.10870  0.29166  0.61368  1.0000
  S   S17       1.0  0.07301  0.21615  0.64058  1.0000
  Fe  Fe11      1.0  0.10293  0.30744  0.55322  1.0000
  H   H93       1.0  0.04570  0.32394  0.62560  1.0000
  Fe  Fe12      1.0  0.15984  0.28519  0.60184  1.0000
  S   S18       1.0  0.18986  0.30498  0.64954  1.0000
  S   S19       1.0  0.09245  0.25795  0.53465  1.0000
  S   S20       1.0  0.15403  0.23470  0.58536  1.0000
  C   C111      1.0  0.14884  0.48351  0.76301  1.0000
  S   S21       1.0  0.01304  0.07865  0.65660  1.0000
  S   S22       1.0  0.01343  0.05421  0.76852  1.0000
  Fe  Fe13      1.0  0.01274  0.47569  0.89620  1.0000
  S   S23       1.0  0.04563  0.45299  0.94038  1.0000
  H   H94       1.0  0.02192  0.30928  0.86095  1.0000
  C   C112      1.0  0.05773  0.17731  0.64469  1.0000
  C   C113      1.0  0.04483  0.16760  0.67963  1.0000
  C   C114      1.0  0.03130  0.13753  0.68390  1.0000
  C   C115      1.0  0.03038  0.11671  0.65321  1.0000
  C   C116      1.0  0.04309  0.12652  0.61825  1.0000
  C   C117      1.0  0.05685  0.15648  0.61403  1.0000
  H   H95       1.0  0.04527  0.18346  0.70357  1.0000
  C   C118      1.0  0.18223  0.00183  0.88757  1.0000
  H   H96       1.0  0.04240  0.11077  0.59418  1.0000
  H   H97       1.0  0.06639  0.16357  0.58689  1.0000
  H   H98       1.0  0.03623  0.33787  0.92407  1.0000
  S   S24       1.0  0.08456  0.30914  0.96876  1.0000
  C   C119      1.0  0.03987  0.38812  0.93082  1.0000
  C   C120      1.0  0.05557  0.41281  0.94882  1.0000
  C   C121      1.0  0.07990  0.40546  0.97450  1.0000
  C   C122      1.0  0.11431  0.03663  0.72856  1.0000
  C   C123      1.0  0.00549  0.45760  0.72762  1.0000
  H   H99       1.0  0.02117  0.39338  0.91111  1.0000
  H   H100      1.0  0.02085  0.22385  0.57053  1.0000
  S   S25       1.0  0.01191  0.99637  0.70716  1.0000
  C   C124      1.0  0.28899  0.27666  0.68701  1.0000
  C   C125      1.0  0.27082  0.29658  0.70948  1.0000
  C   C126      1.0  0.24019  0.30448  0.69797  1.0000
  C   C127      1.0  0.22735  0.29216  0.66432  1.0000
  C   C128      1.0  0.24512  0.27133  0.64260  1.0000
  C   C129      1.0  0.27601  0.26405  0.65362  1.0000
  H   H101      1.0  0.28060  0.30652  0.73518  1.0000
  H   H102      1.0  0.22655  0.32053  0.71501  1.0000
  H   H103      1.0  0.23542  0.26148  0.61682  1.0000
  H   H104      1.0  0.29001  0.24873  0.63600  1.0000
  C   C130      1.0  0.29398  0.23942  0.90890  1.0000
  C   C131      1.0  0.28081  0.25385  0.94107  1.0000
  C   C132      1.0  0.25083  0.24522  0.95442  1.0000
  C   C133      1.0  0.23404  0.22119  0.93655  1.0000
  C   C134      1.0  0.24695  0.20703  0.90403  1.0000
  C   C135      1.0  0.27664  0.21621  0.89010  1.0000
  C   C136      1.0  0.08343  0.32908  0.82214  1.0000
  H   H105      1.0  0.16946  0.49049  0.74714  1.0000
  H   H106      1.0  0.23423  0.18840  0.88999  1.0000
  H   H107      1.0  0.28664  0.20448  0.86574  1.0000
  C   C137      1.0  0.03370  0.16566  0.81552  1.0000
  C   C138      1.0  0.02941  0.31846  0.64837  1.0000
  H   H108      1.0  0.02407  0.38093  0.78224  1.0000
  C   C139      1.0  0.09075  0.33857  0.85908  1.0000
  H   H109      1.0  0.22151  0.12994  0.84562  1.0000
  H   H110      1.0  0.16716  0.35526  0.69249  1.0000
  H   H111      1.0  0.19864  0.09557  0.89517  1.0000
  C   C140      1.0  0.12282  0.06276  0.75023  1.0000
  C   C141      1.0  0.05582  0.02668  0.94334  1.0000
  H   H112      1.0  0.21130  0.16286  0.68015  1.0000
  C   C142      1.0  0.09585  0.07065  0.67842  1.0000
  H   H113      1.0  0.09786  0.05378  0.93651  1.0000
  H   H114      1.0  0.07872  0.30467  0.81638  1.0000
  C   C143      1.0  0.01572  0.31928  0.71521  1.0000
  C   C144      1.0  0.32248  0.16401  0.49346  1.0000
  C   C145      1.0  0.06553  0.37500  0.50414  1.0000
  C   C146      1.0  0.12922  0.36815  0.65526  1.0000
  S   S26       1.0  0.07219  0.35124  0.54534  1.0000
  H   H115      1.0  0.10244  0.37747  0.89529  1.0000
  C   C147      1.0  0.32473  0.13280  0.50522  1.0000
  C   C148      1.0  0.08747  0.38306  0.80034  1.0000
  C   C149      1.0  0.00078  0.30407  0.64000  1.0000
  H   H116      1.0  0.29406  0.27160  0.95609  1.0000
  H   H117      1.0  0.13703  0.01594  0.90742  1.0000
  H   H118      1.0  0.23426  0.30780  0.57484  1.0000
  C   C150      1.0  0.20241  0.00847  0.96266  1.0000
  H   H119      1.0  0.02123  0.13056  0.71071  1.0000
  H   H120      1.0  0.18463  0.21214  0.66145  1.0000
  C   C151      1.0  0.08624  0.39618  0.68467  1.0000
  H   H121      1.0  0.06266  0.20135  0.84070  1.0000
  H   H122      1.0  0.01105  0.12666  0.78784  1.0000
  H   H123      1.0  0.14250  0.37733  0.74976  1.0000
  C   C152      1.0  0.18479  0.10203  0.87055  1.0000
  H   H124      1.0  0.18551  0.12599  0.72438  1.0000
  H   H125      1.0  0.27562  0.41016  0.53059  1.0000
  H   H126      1.0  0.00871  0.28481  0.79915  1.0000
  C   C153      1.0  0.10058  0.04055  0.69285  1.0000
  H   H127      1.0  0.04289  0.03980  0.92212  1.0000
  H   H128      1.0  0.09199  0.32164  0.88203  1.0000
  H   H129      1.0  0.01225  0.17413  0.82844  1.0000
  H   H130      1.0  0.06385  0.40781  0.68165  1.0000
  C   C154      1.0  0.09479  0.39232  0.83761  1.0000
  H   H131      1.0  0.28939  0.31183  0.55419  1.0000
  C   C155      1.0  0.24363  0.33017  0.56572  1.0000
  C   C156      1.0  0.03672  0.44912  0.73395  1.0000
  S   S27       1.0  0.32872  0.26883  0.69773  1.0000
  C   C157      1.0  0.26719  0.38786  0.54113  1.0000
  H   H132      1.0  0.11777  0.01323  0.73980  1.0000
  H   H133      1.0  0.13306  0.05885  0.77786  1.0000
  H   H134      1.0  0.09914  0.41650  0.84481  1.0000
  H   H135      1.0  0.11186  0.18140  0.81222  1.0000
  C   C158      1.0  0.09658  0.37012  0.86665  1.0000
  H   H136      1.0  0.05960  0.10661  0.75927  1.0000
  H   H137      1.0  0.22120  0.24186  0.51510  1.0000
  C   C159      1.0  0.01938  0.40207  0.76633  1.0000
  H   H138      1.0  0.19217  0.07458  0.96760  1.0000
  C   C160      1.0  0.28723  0.36181  0.54303  1.0000
  H   H139      1.0  0.14005  0.35804  0.63023  1.0000
  H   H140      1.0  0.11210  0.09132  0.83295  1.0000
  C   C161      1.0  0.16112  0.01172  0.91548  1.0000
  C   C162      1.0  0.15384  0.09161  0.86715  1.0000
  C   C163      1.0  0.08203  0.35115  0.79280  1.0000
  C   C164      1.0  0.13036  0.37891  0.72277  1.0000
  C   C165      1.0  0.13298  0.45578  0.75381  1.0000
  C   C166      1.0  0.10570  0.44709  0.77371  1.0000
  H   H141      1.0  0.14367  0.07709  0.88919  1.0000
  C   C167      1.0  0.00230  0.31791  0.84440  1.0000
  C   C168      1.0  0.19772  0.12126  0.84248  1.0000
  H   H142      1.0  0.30557  0.38267  0.68026  1.0000
  C   C169      1.0  0.10127  0.39409  0.72016  1.0000
  C   C170      1.0  0.17227  0.08693  0.97933  1.0000
  C   C171      1.0  0.04395  0.42140  0.75352  1.0000
  H   H143      1.0  0.32673  0.33799  0.60459  1.0000
  C   C172      1.0  0.10427  0.09687  0.69997  1.0000
  H   H144      1.0  0.10592  0.18809  0.73116  1.0000
  H   H145      1.0  0.24117  0.25653  0.97925  1.0000
  H   H146      1.0  0.09975  0.12001  0.68857  1.0000
  C   C173      1.0  0.08703  0.03441  0.95141  1.0000
  C   C174      1.0  0.07318  0.34932  0.96339  1.0000
  H   H147      1.0  0.19037  0.14508  0.78992  1.0000
  H   H148      1.0  0.19335  0.13245  0.97013  1.0000
  H   H149      1.0  0.20010  0.35447  0.57485  1.0000
  H   H150      1.0  0.02188  0.32570  0.74393  1.0000
  H   H151      1.0  0.08495  0.07365  0.65082  1.0000
  P   P4        1.0  0.08451  0.41144  0.76227  1.0000
  C   C175      1.0  0.10010  0.38295  0.65241  1.0000
  C   C176      1.0  0.04849  0.35669  0.93826  1.0000
  S   S28       1.0  0.19798  0.20679  0.95519  1.0000
  H   H152      1.0  0.14189  0.44172  0.73074  1.0000
  H   H153      1.0  0.13167  0.22381  0.68601  1.0000
  H   H154      1.0  0.22060  0.40547  0.55175  1.0000
  H   H155      1.0  0.07650  0.34337  0.76431  1.0000
  H   H156      1.0  0.00613  0.22721  0.63825  1.0000
  C   C177      1.0  0.04505  0.40084  0.50662  1.0000
  H   H157      1.0  0.08836  0.38422  0.62503  1.0000
  C   C178      1.0  0.14981  0.18398  0.88369  1.0000
  C   C179      1.0  0.12250  0.19016  0.90421  1.0000
  C   C180      1.0  0.10717  0.21880  0.89971  1.0000
  C   C181      1.0  0.11923  0.24128  0.87485  1.0000
  C   C182      1.0  0.14650  0.23509  0.85375  1.0000
  C   C183      1.0  0.16180  0.20625  0.85838  1.0000
  P   P5        1.0  0.16139  0.26446  0.82146  1.0000
  C   C184      1.0  0.13516  0.26842  0.78105  1.0000
  C   C185      1.0  0.16532  0.30092  0.84738  1.0000
  C   C186      1.0  0.16727  0.32966  0.82804  1.0000
  C   C187      1.0  0.17124  0.35763  0.84822  1.0000
  C   C188      1.0  0.17308  0.35720  0.88785  1.0000
  C   C189      1.0  0.17144  0.32874  0.90732  1.0000
  C   C190      1.0  0.16804  0.30069  0.88725  1.0000
  C   C191      1.0  0.14466  0.28528  0.74875  1.0000
  C   C192      1.0  0.12481  0.28773  0.71726  1.0000
  C   C193      1.0  0.09557  0.27297  0.71728  1.0000
  C   C194      1.0  0.08604  0.25577  0.74892  1.0000
  C   C195      1.0  0.10571  0.25345  0.78062  1.0000
  C   C196      1.0  0.20009  0.25404  0.80468  1.0000
  C   C197      1.0  0.20381  0.23819  0.77000  1.0000
  C   C198      1.0  0.23382  0.23185  0.75597  1.0000
  C   C199      1.0  0.26032  0.24079  0.77673  1.0000
  C   C200      1.0  0.25682  0.25583  0.81171  1.0000
  C   C201      1.0  0.22685  0.26224  0.82583  1.0000
  H   H158      1.0  0.16243  0.16247  0.88880  1.0000
  H   H159      1.0  0.11383  0.17318  0.92458  1.0000
  H   H160      1.0  0.08651  0.22403  0.91650  1.0000
  H   H161      1.0  0.10755  0.26371  0.87255  1.0000
  H   H162      1.0  0.18336  0.20119  0.84342  1.0000
  H   H163      1.0  0.16592  0.33069  0.79749  1.0000
  H   H164      1.0  0.17259  0.37974  0.83319  1.0000
  H   H165      1.0  0.17575  0.37889  0.90355  1.0000
  H   H166      1.0  0.17292  0.32834  0.93809  1.0000
  H   H167      1.0  0.16788  0.27894  0.90314  1.0000
  H   H168      1.0  0.16780  0.29578  0.74722  1.0000
  H   H169      1.0  0.13258  0.30025  0.69225  1.0000
  H   H170      1.0  0.08080  0.27385  0.69219  1.0000
  H   H171      1.0  0.06371  0.24358  0.74837  1.0000
  H   H172      1.0  0.09782  0.23963  0.80434  1.0000
  H   H173      1.0  0.18364  0.23112  0.75344  1.0000
  H   H174      1.0  0.23663  0.22055  0.72862  1.0000
  H   H175      1.0  0.28358  0.23633  0.76554  1.0000
  H   H176      1.0  0.27742  0.26260  0.82793  1.0000
  H   H177      1.0  0.22475  0.27367  0.85319  1.0000
  C   C202      1.0  0.11751  0.09315  0.73626  1.0000
  C   C203      1.0  0.18861  0.16857  0.69213  1.0000
  C   C204      1.0  0.17357  0.19625  0.68145  1.0000
  C   C205      1.0  0.14383  0.20306  0.69576  1.0000
  C   C206      1.0  0.12938  0.18270  0.72156  1.0000
  C   C207      1.0  0.14474  0.15525  0.73333  1.0000
  C   C208      1.0  0.17404  0.14789  0.71744  1.0000
  P   P6        1.0  0.12576  0.12748  0.76467  1.0000
  C   C209      1.0  0.14916  0.11822  0.80621  1.0000
  C   C210      1.0  0.08937  0.14297  0.78303  1.0000
  C   C211      1.0  0.08989  0.16966  0.80627  1.0000
  C   C212      1.0  0.06213  0.18101  0.82235  1.0000
  H   H178      1.0  0.03364  0.40584  0.53336  1.0000
  C   C213      1.0  0.03301  0.13895  0.79262  1.0000
  C   C214      1.0  0.06072  0.12758  0.77647  1.0000
  C   C215      1.0  0.13604  0.09978  0.83526  1.0000
  C   C216      1.0  0.17993  0.12961  0.81061  1.0000
  C   C217      1.0  0.09455  0.46685  0.80253  1.0000
  Fe  Fe14      1.0  0.99919  0.04776  0.70763  1.0000
  C   C218      1.0  0.17096  0.01492  0.95335  1.0000
  H   H179      1.0  0.05522  0.46466  0.72431  1.0000
  C   C219      1.0  0.11078  0.49419  0.81214  1.0000
  C   C220      1.0  0.22424  0.35649  0.56543  1.0000
  H   H180      1.0  0.07311  0.46131  0.81745  1.0000
  C   C221      1.0  0.27494  0.33268  0.55429  1.0000
  C   C222      1.0  0.03692  0.32590  0.68596  1.0000
  C   C223      1.0  0.23590  0.38525  0.55270  1.0000
  S   S29       1.0  0.00750  0.45997  0.83570  1.0000
  C   C224      1.0  0.22762  0.23959  0.48551  1.0000
  P   P7        1.0  0.32747  0.36500  0.52746  1.0000
  C   C225      1.0  0.04125  0.00196  0.96251  1.0000
  C   C226      1.0  0.22326  0.99793  0.93483  1.0000
  H   H181      1.0  0.31634  0.41301  0.58599  1.0000
  C   C227      1.0  0.17310  0.11971  0.98071  1.0000
  C   C228      1.0  0.08874  0.37403  0.98165  1.0000
  C   C229      1.0  0.10402  0.01730  0.97860  1.0000
  H   H182      1.0  0.09327  0.02027  0.67653  1.0000
  H   H183      1.0  0.21131  0.31305  0.49045  1.0000
  H   H184      1.0  0.00023  0.47958  0.71364  1.0000
  H   H185      1.0  0.27742  0.23844  0.49674  1.0000
  Fe  Fe15      1.0  0.02349  0.00226  0.76963  1.0000
  H   H186      1.0  0.17426  0.99870  0.85858  1.0000
  H   H187      1.0  0.32610  0.30557  0.48567  1.0000
  C   C230      1.0  0.99816  0.21517  0.57977  1.0000
  H   H188      1.0  0.01709  0.99597  0.95615  1.0000
  Fe  Fe16      1.0  0.28225  0.61550  0.16154  1.0000
  S   S30       1.0  0.23390  0.60940  0.13675  1.0000
  H   H189      1.0  0.19311  0.95110  0.23358  1.0000
  Fe  Fe17      1.0  0.25728  0.66541  0.21792  1.0000
  S   S31       1.0  0.20797  0.66308  0.19521  1.0000
  S   S32       1.0  0.26551  0.68849  0.27527  1.0000
  Fe  Fe18      1.0  0.21428  0.61085  0.19624  1.0000
  S   S33       1.0  0.18237  0.57351  0.22359  1.0000
  Fe  Fe19      1.0  0.23179  0.66215  0.13805  1.0000
  S   S34       1.0  0.21325  0.68401  0.08360  1.0000
  S   S35       1.0  0.26282  0.61310  0.22102  1.0000
  S   S36       1.0  0.28106  0.66839  0.16049  1.0000
  Fe  Fe20      1.0  0.28176  0.85018  0.36986  1.0000
  S   S37       1.0  0.23793  0.83500  0.40014  1.0000
  C   C231      1.0  0.17387  0.49845  0.41191  1.0000
  Fe  Fe21      1.0  0.30025  0.89840  0.43179  1.0000
  H   H190      1.0  0.25315  0.97746  0.37366  1.0000
  H   H191      1.0  0.11484  0.66614  0.07875  1.0000
  Fe  Fe22      1.0  0.26819  0.83641  0.45290  1.0000
  S   S38       1.0  0.22576  0.82842  0.04184  1.0000
  Fe  Fe23      1.0  0.23055  0.88698  0.40929  1.0000
  S   S39       1.0  0.18511  0.91565  0.40315  1.0000
  S   S40       1.0  0.29418  0.83145  0.31151  1.0000
  S   S41       1.0  0.27321  0.90190  0.37666  1.0000
  Fe  Fe24      1.0  0.04098  0.97323  0.25906  1.0000
  S   S42       1.0  0.03592  0.97066  0.19538  1.0000
  S   S43       1.0  0.07771  0.93655  0.27760  1.0000
  Fe  Fe25      1.0  0.01660  0.53691  0.33078  1.0000
  S   S44       1.0  0.03014  0.53007  0.39201  1.0000
  S   S45       1.0  0.04295  0.57117  0.29162  1.0000
  C   C232      1.0  0.15761  0.92327  0.36576  1.0000
  C   C233      1.0  0.15715  0.90616  0.33178  1.0000
  C   C234      1.0  0.13298  0.91107  0.30483  1.0000
  C   C235      1.0  0.10938  0.93367  0.31083  1.0000
  C   C236      1.0  0.11059  0.95161  0.34407  1.0000
  C   C237      1.0  0.13432  0.94620  0.37140  1.0000
  H   H192      1.0  0.17472  0.88837  0.32689  1.0000
  H   H193      1.0  0.13237  0.89700  0.27928  1.0000
  H   H194      1.0  0.21183  0.77319  0.99535  1.0000
  H   H195      1.0  0.13429  0.95956  0.39751  1.0000
  C   C238      1.0  0.22442  0.78784  0.05183  1.0000
  C   C239      1.0  0.23032  0.77777  0.08917  1.0000
  C   C240      1.0  0.22790  0.74591  0.09904  1.0000
  C   C241      1.0  0.21901  0.72387  0.07171  1.0000
  C   C242      1.0  0.21349  0.73386  0.03421  1.0000
  C   C243      1.0  0.21638  0.76570  0.02419  1.0000
  H   H196      1.0  0.23652  0.79477  0.11072  1.0000
  H   H197      1.0  0.23218  0.73851  0.12798  1.0000
  H   H198      1.0  0.20700  0.71690  0.01279  1.0000
  H   H199      1.0  0.01575  0.62401  0.38715  1.0000
  C   C244      1.0  0.27042  0.72897  0.28409  1.0000
  C   C245      1.0  0.27534  0.75052  0.25473  1.0000
  C   C246      1.0  0.28202  0.78209  0.26334  1.0000
  C   C247      1.0  0.28330  0.79238  0.30124  1.0000
  C   C248      1.0  0.27737  0.77102  0.33048  1.0000
  C   C249      1.0  0.27119  0.73942  0.32192  1.0000
  H   H200      1.0  0.27489  0.74269  0.22550  1.0000
  H   H201      1.0  0.10744  0.59942  0.98682  1.0000
  H   H202      1.0  0.27854  0.77870  0.35970  1.0000
  H   H203      1.0  0.26755  0.72283  0.34473  1.0000
  C   C250      1.0  0.14428  0.57450  0.24455  1.0000
  C   C251      1.0  0.12390  0.59989  0.23997  1.0000
  C   C252      1.0  0.09326  0.59866  0.25520  1.0000
  C   C253      1.0  0.08263  0.57227  0.27557  1.0000
  C   C254      1.0  0.10330  0.54724  0.28103  1.0000
  C   C255      1.0  0.13379  0.54831  0.26537  1.0000
  H   H204      1.0  0.13147  0.62011  0.22385  1.0000
  H   H205      1.0  0.07750  0.61813  0.25065  1.0000
  H   H206      1.0  0.23111  0.63690  0.31788  1.0000
  H   H207      1.0  0.14931  0.52852  0.26913  1.0000
  H   H208      1.0  0.09558  0.52678  0.29659  1.0000
  C   C256      1.0  0.28774  0.95056  0.23946  1.0000
  C   C257      1.0  0.06451  0.55320  0.02409  1.0000
  H   H209      1.0  0.31445  0.94082  0.11297  1.0000
  H   H210      1.0  0.24942  0.86392  0.10786  1.0000
  C   C258      1.0  0.10756  0.63091  0.03521  1.0000
  C   C259      1.0  0.03030  0.54460  0.19680  1.0000
  H   H211      1.0  0.09262  0.96890  0.34939  1.0000
  H   H212      1.0  0.20703  0.90832  0.18896  1.0000
  H   H213      1.0  0.29454  0.69664  0.08230  1.0000
  C   C260      1.0  0.07849  0.60064  0.43980  1.0000
  C   C261      1.0  0.14140  0.83648  0.38721  1.0000
  H   H214      1.0  0.08469  0.54271  0.03772  1.0000
  C   C262      1.0  0.29223  0.72829  0.99381  1.0000
  C   C263      1.0  0.32782  0.84972  0.10720  1.0000
  H   H215      1.0  0.08392  0.59283  0.46829  1.0000
  C   C264      1.0  0.03983  0.61838  0.39422  1.0000
  C   C265      1.0  0.28114  0.89417  0.23992  1.0000
  H   H216      1.0  0.28757  0.87095  0.23018  1.0000
  H   H217      1.0  0.05286  0.51060  0.99396  1.0000
  C   C266      1.0  0.25763  0.89706  0.26737  1.0000
  H   H218      1.0  0.10180  0.97816  0.01793  1.0000
  H   H219      1.0  0.05672  0.62603  0.33740  1.0000
  H   H220      1.0  0.29883  0.97162  0.22901  1.0000
  S   S46       1.0  0.25695  0.88694  0.46541  1.0000
  C   C267      1.0  0.14765  0.85307  0.03131  1.0000
  C   C268      1.0  0.25526  0.71396  0.45764  1.0000
  C   C269      1.0  0.21237  0.63986  0.37467  1.0000
  C   C270      1.0  0.26416  0.95333  0.26690  1.0000
  H   H221      1.0  0.24638  0.87622  0.27868  1.0000
  C   C271      1.0  0.18374  0.91842  0.18823  1.0000
  C   C272      1.0  0.17224  0.53111  0.41478  1.0000
  H   H222      1.0  0.01893  0.89665  0.27763  1.0000
  H   H223      1.0  0.15961  0.84179  0.00791  1.0000
  H   H224      1.0  0.17376  0.78485  0.44913  1.0000
  C   C273      1.0  0.25157  0.73742  0.43035  1.0000
  C   C274      1.0  0.07521  0.70323  0.47828  1.0000
  C   C275      1.0  0.15051  0.60072  0.47050  1.0000
  C   C276      1.0  0.20033  0.70043  0.45130  1.0000
  C   C277      1.0  0.19628  0.72445  0.42449  1.0000
  C   C278      1.0  0.22229  0.74254  0.41362  1.0000
  P   P8        1.0  0.15881  0.73060  0.40170  1.0000
  C   C279      1.0  0.15301  0.77211  0.39509  1.0000
  C   C280      1.0  0.16097  0.71055  0.35655  1.0000
  C   C281      1.0  0.17962  0.72312  0.32737  1.0000
  C   C282      1.0  0.18197  0.70773  0.29244  1.0000
  C   C283      1.0  0.16558  0.67984  0.28629  1.0000
  C   C284      1.0  0.14747  0.66688  0.31528  1.0000
  C   C285      1.0  0.14576  0.68170  0.35065  1.0000
  C   C286      1.0  0.16223  0.79316  0.42367  1.0000
  H   H225      1.0  0.23117  0.92864  0.30261  1.0000
  H   H226      1.0  0.14184  0.53202  0.17199  1.0000
  C   C287      1.0  0.13200  0.81571  0.35869  1.0000
  C   C288      1.0  0.13759  0.78356  0.36266  1.0000
  C   C289      1.0  0.12629  0.71885  0.43151  1.0000
  H   H227      1.0  0.18729  0.62433  0.04818  1.0000
  H   H228      1.0  0.11057  0.60977  0.35183  1.0000
  C   C290      1.0  0.29358  0.69773  0.05159  1.0000
  H   H229      1.0  0.09443  0.70879  0.38497  1.0000
  H   H230      1.0  0.22473  0.65442  0.00967  1.0000
  C   C291      1.0  0.27387  0.86551  0.11617  1.0000
  C   C292      1.0  0.03136  0.51664  0.21740  1.0000
  H   H231      1.0  0.32081  0.77204  0.44156  1.0000
  C   C293      1.0  0.02410  0.65096  0.14301  1.0000
  H   H232      1.0  0.22002  0.76084  0.39246  1.0000
  H   H233      1.0  0.19267  0.74466  0.33161  1.0000
  H   H234      1.0  0.19694  0.71718  0.27029  1.0000
  H   H235      1.0  0.16741  0.66779  0.25935  1.0000
  H   H236      1.0  0.13555  0.64484  0.31036  1.0000
  H   H237      1.0  0.13311  0.67024  0.37330  1.0000
  H   H238      1.0  0.30990  0.97005  0.38489  1.0000
  H   H239      1.0  0.08656  0.52083  0.15437  1.0000
  H   H240      1.0  0.00734  0.57060  0.15290  1.0000
  H   H241      1.0  0.12034  0.82464  0.33356  1.0000
  H   H242      1.0  0.12968  0.76776  0.34057  1.0000
  C   C294      1.0  0.04754  0.60880  0.43097  1.0000
  C   C295      1.0  0.07243  0.70086  0.43883  1.0000
  C   C296      1.0  0.20616  0.57936  0.03248  1.0000
  C   C297      1.0  0.28945  0.67027  0.03051  1.0000
  C   C298      1.0  0.05402  0.63573  0.08716  1.0000
  H   H243      1.0  0.25756  0.97621  0.27745  1.0000
  H   H244      1.0  0.02532  0.62227  0.01356  1.0000
  C   C299      1.0  0.26989  0.99423  0.36228  1.0000
  C   C300      1.0  0.16529  0.97928  0.03572  1.0000
  P   P9        1.0  0.07964  0.60856  0.06278  1.0000
  C   C301      1.0  0.09965  0.58401  0.09690  1.0000
  C   C302      1.0  0.29616  0.84730  0.09734  1.0000
  C   C303      1.0  0.04413  0.62994  0.12460  1.0000
  H   H245      1.0  0.05046  0.69322  0.42627  1.0000
  C   C304      1.0  0.22965  0.69540  0.46806  1.0000
  H   H246      1.0  0.13937  0.97345  0.23285  1.0000
  S   S47       1.0  0.31989  0.58055  0.14135  1.0000
  C   C305      1.0  0.08371  0.55888  0.11414  1.0000
  C   C306      1.0  0.09891  0.54009  0.14097  1.0000
  C   C307      1.0  0.13006  0.54625  0.15081  1.0000
  C   C308      1.0  0.14604  0.57113  0.13377  1.0000
  C   C309      1.0  0.13094  0.59007  0.10706  1.0000
  C   C310      1.0  0.05651  0.58470  0.03071  1.0000
  H   H247      1.0  0.99828  0.69421  0.13855  1.0000
  H   H248      1.0  0.01649  0.64629  0.17184  1.0000
  H   H249      1.0  0.19010  0.63721  0.42889  1.0000
  C   C311      1.0  0.20464  0.61202  0.03143  1.0000
  H   H250      1.0  0.19372  0.54471  0.41380  1.0000
  H   H251      1.0  0.16709  0.96561  0.00980  1.0000
  C   C312      1.0  0.04395  0.66320  0.06881  1.0000
  C   C313      1.0  0.17162  0.59178  0.35250  1.0000
  H   H252      1.0  0.03038  0.81423  0.22087  1.0000
  C   C314      1.0  0.17362  0.96544  0.07029  1.0000
  H   H253      1.0  0.05191  0.60945  0.13992  1.0000
  H   H254      1.0  0.18086  0.68583  0.45971  1.0000
  C   C315      1.0  0.00795  0.54862  0.16811  1.0000
  C   C316      1.0  0.16941  0.60420  0.38938  1.0000
  C   C317      1.0  0.31492  0.88831  0.15548  1.0000
  H   H255      1.0  0.05948  0.55391  0.10700  1.0000
  C   C318      1.0  0.22919  0.56370  0.01165  1.0000
  H   H256      1.0  0.04680  0.96538  0.00414  1.0000
  H   H257      1.0  0.17012  0.57599  0.14182  1.0000
  H   H258      1.0  0.14381  0.60945  0.09485  1.0000
  H   H259      1.0  0.15665  0.81516  0.07001  1.0000
  C   C319      1.0  0.03096  0.97758  0.09122  1.0000
  C   C320      1.0  0.17095  0.98242  0.10408  1.0000
  H   H260      1.0  0.22818  0.65858  0.38303  1.0000
  H   H261      1.0  0.05151  0.66847  0.04013  1.0000
  H   H262      1.0  0.19561  0.59380  0.29862  1.0000
  C   C321      1.0  0.19036  0.62798  0.40042  1.0000
  H   H263      1.0  0.26569  0.90063  0.15849  1.0000
  C   C322      1.0  0.15657  0.82525  0.41960  1.0000
  H   H264      1.0  0.15615  0.57304  0.34333  1.0000
  C   C323      1.0  0.22615  0.62908  0.00972  1.0000
  C   C324      1.0  0.24918  0.92659  0.28096  1.0000
  H   H265      1.0  0.18978  0.56624  0.04985  1.0000
  H   H266      1.0  0.09294  0.53861  0.42273  1.0000
  C   C325      1.0  0.09763  0.70925  0.41548  1.0000
  H   H267      1.0  0.04654  0.56335  0.20367  1.0000
  H   H268      1.0  0.28660  0.79850  0.24057  1.0000
  C   C326      1.0  0.02012  0.94744  0.09957  1.0000
  H   H269      1.0  0.17727  0.97168  0.13089  1.0000
  C   C327      1.0  0.08383  0.96170  0.10735  1.0000
  C   C328      1.0  0.07311  0.93154  0.11659  1.0000
  C   C329      1.0  0.04114  0.92439  0.11178  1.0000
  P   P10       1.0  0.10039  0.90200  0.13290  1.0000
  C   C330      1.0  0.07909  0.87356  0.16101  1.0000
  C   C331      1.0  0.11815  0.88269  0.09272  1.0000
  C   C332      1.0  0.12009  0.89775  0.05732  1.0000
  C   C333      1.0  0.13476  0.88289  0.02673  1.0000
  C   C334      1.0  0.03132  0.59784  0.01054  1.0000
  C   C335      1.0  0.14586  0.83798  0.06642  1.0000
  C   C336      1.0  0.13113  0.85266  0.09703  1.0000
  C   C337      1.0  0.07760  0.87639  0.20070  1.0000
  C   C338      1.0  0.06028  0.85495  0.22218  1.0000
  C   C339      1.0  0.04419  0.83055  0.20423  1.0000
  C   C340      1.0  0.04568  0.82740  0.16476  1.0000
  C   C341      1.0  0.06294  0.84887  0.14318  1.0000
  C   C342      1.0  0.13070  0.91919  0.16247  1.0000
  C   C343      1.0  0.16123  0.90673  0.16292  1.0000
  H   H270      1.0  0.13689  0.86134  0.38438  1.0000
  C   C344      1.0  0.28682  0.67153  0.99072  1.0000
  C   C345      1.0  0.14582  0.95529  0.21277  1.0000
  C   C346      1.0  0.12336  0.94378  0.18739  1.0000
  C   C347      1.0  0.28319  0.88612  0.14495  1.0000
  H   H271      1.0  0.27124  0.75212  0.42264  1.0000
  C   C348      1.0  0.12842  0.72222  0.47111  1.0000
  H   H272      1.0  0.10828  0.96773  0.11054  1.0000
  H   H273      1.0  0.03208  0.90134  0.11816  1.0000
  H   H274      1.0  0.11064  0.92100  0.05319  1.0000
  C   C349      1.0  0.11687  0.62075  0.99898  1.0000
  H   H275      1.0  0.13045  0.84081  0.12423  1.0000
  H   H276      1.0  0.08948  0.89523  0.21531  1.0000
  H   H277      1.0  0.05923  0.85758  0.25276  1.0000
  H   H278      1.0  0.14946  0.73163  0.48402  1.0000
  C   C350      1.0  0.06284  0.98459  0.09474  1.0000
  H   H279      1.0  0.06324  0.84649  0.11254  1.0000
  H   H280      1.0  0.16769  0.88763  0.14436  1.0000
  H   H281      1.0  0.13090  0.64713  0.46308  1.0000
  C   C351      1.0  0.01391  0.67799  0.12434  1.0000
  H   H282      1.0  0.09992  0.95333  0.18834  1.0000
  C   C352      1.0  0.14307  0.54605  0.41866  1.0000
  C   C353      1.0  0.11569  0.52781  0.41990  1.0000
  P   P11       1.0  0.14121  0.58823  0.42269  1.0000
  C   C354      1.0  0.10184  0.60124  0.41158  1.0000
  H   H283      1.0  0.27779  0.71069  0.47136  1.0000
  H   H284      1.0  0.28721  0.64821  0.04554  1.0000
  C   C355      1.0  0.19395  0.60341  0.32703  1.0000
  C   C356      1.0  0.21414  0.62760  0.33796  1.0000
  S   S48       1.0  0.31281  0.84812  0.42136  1.0000
  C   C357      1.0  0.08931  0.99216  0.99731  1.0000
  C   C358      1.0  0.09368  0.61041  0.37460  1.0000
  C   C359      1.0  0.06295  0.61948  0.36619  1.0000
  H   H285      1.0  0.29690  0.74806  0.04984  1.0000
  H   H286      1.0  0.02918  0.60671  0.45211  1.0000
  C   C360      1.0  0.12090  0.65830  0.05042  1.0000
  S   S49       1.0  0.22213  0.90507  0.98945  1.0000
  C   C361      1.0  0.29658  0.92089  0.22587  1.0000
  H   H287      1.0  0.28890  0.83170  0.07465  1.0000
  H   H288      1.0  0.01390  0.86078  0.33271  1.0000
  C   C362      1.0  0.14251  0.67571  0.02928  1.0000
  C   C363      1.0  0.17597  0.94257  0.21331  1.0000
  H   H289      1.0  0.03302  0.80860  0.15079  1.0000
  C   C364      1.0  0.29487  0.72673  0.03330  1.0000
  H   H290      1.0  0.15293  0.69668  0.04137  1.0000
  C   C365      1.0  0.02388  0.68413  0.08729  1.0000
  H   H291      1.0  0.01597  0.70514  0.07286  1.0000
  H   H292      1.0  0.16408  0.84160  0.44141  1.0000
  H   H293      1.0  0.18211  0.94149  0.07077  1.0000
  H   H294      1.0  0.13654  0.89465  0.99955  1.0000
  H   H295      1.0  0.04832  0.51387  0.24014  1.0000
  C   C366      1.0  0.04671  0.53492  0.99906  1.0000
  C   C367      1.0  0.15124  0.66579  0.99299  1.0000
  H   H296      1.0  0.32374  0.89563  0.02025  1.0000
  C   C368      1.0  0.30195  0.99000  0.36855  1.0000
  H   H297      1.0  0.23057  0.53837  0.01274  1.0000
  C   C369      1.0  0.14295  0.63128  0.48219  1.0000
  C   C370      1.0  0.05798  0.98474  0.98952  1.0000
  P   P12       1.0  0.32716  0.91677  0.19048  1.0000
  C   C371      1.0  0.24983  0.61361  0.98943  1.0000
  C   C372      1.0  0.25097  0.58071  0.99016  1.0000
  H   H298      1.0  0.32844  0.99004  0.08132  1.0000
  C   C373      1.0  0.32653  0.95870  0.12920  1.0000
  H   H299      1.0  0.06984  0.50983  0.48151  1.0000
  C   C374      1.0  0.99693  0.88461  0.28299  1.0000
  H   H300      1.0  0.01459  0.99564  0.08262  1.0000
  H   H301      1.0  0.01733  0.53425  0.48465  1.0000
  Fe  Fe26      1.0  0.26684  0.61987  0.66902  1.0000
  S   S50       1.0  0.21643  0.61907  0.64851  1.0000
  H   H302      1.0  0.10163  0.50947  0.83407  1.0000
  Fe  Fe27      1.0  0.25591  0.67936  0.71699  1.0000
  S   S51       1.0  0.20560  0.68310  0.69930  1.0000
  S   S52       1.0  0.28188  0.70924  0.76053  1.0000
  Fe  Fe28      1.0  0.20233  0.63090  0.70872  1.0000
  S   S53       1.0  0.16312  0.61471  0.74927  1.0000
  Fe  Fe29      1.0  0.22332  0.67130  0.64067  1.0000
  S   S54       1.0  0.20200  0.69666  0.58965  1.0000
  S   S55       1.0  0.25215  0.62800  0.72979  1.0000
  S   S56       1.0  0.27431  0.67128  0.65772  1.0000
  Fe  Fe30      1.0  0.23590  0.85619  0.89853  1.0000
  S   S57       1.0  0.19292  0.85085  0.93514  1.0000
  S   S58       1.0  0.23130  0.83336  0.84001  1.0000
  Fe  Fe31      1.0  0.26449  0.90665  0.95172  1.0000
  C   C375      1.0  0.26513  0.64572  0.91687  1.0000
  H   H303      1.0  0.10493  0.71708  0.52489  1.0000
  C   C376      1.0  0.11836  0.81218  0.77623  1.0000
  H   H304      1.0  0.26889  0.56808  0.97477  1.0000
  Fe  Fe32      1.0  0.19233  0.90353  0.93644  1.0000
  S   S59       1.0  0.14577  0.93072  0.93310  1.0000
  S   S60       1.0  0.27008  0.85415  0.94784  1.0000
  S   S61       1.0  0.23427  0.90916  0.89864  1.0000
  C   C377      1.0  0.15056  0.77369  0.74368  1.0000
  P   P13       1.0  0.27908  0.63603  0.96399  1.0000
  H   H305      1.0  0.30005  0.74067  0.82948  1.0000
  Fe  Fe33      1.0  0.01418  0.51089  0.81964  1.0000
  S   S62       1.0  0.02276  0.52610  0.87969  1.0000
  S   S63       1.0  0.04338  0.52429  0.76720  1.0000
  C   C378      1.0  0.12512  0.94372  0.89178  1.0000
  C   C379      1.0  0.13788  0.94159  0.85529  1.0000
  C   C380      1.0  0.12117  0.95326  0.82361  1.0000
  C   C381      1.0  0.09125  0.96690  0.82773  1.0000
  C   C382      1.0  0.07835  0.96876  0.86420  1.0000
  C   C383      1.0  0.09526  0.95737  0.89589  1.0000
  H   H306      1.0  0.16089  0.93145  0.85164  1.0000
  H   H307      1.0  0.13154  0.95165  0.79565  1.0000
  H   H308      1.0  0.05542  0.97908  0.86804  1.0000
  H   H309      1.0  0.08506  0.95890  0.92383  1.0000
  C   C384      1.0  0.25705  0.77160  0.52309  1.0000
  C   C385      1.0  0.27260  0.75143  0.54840  1.0000
  C   C386      1.0  0.25600  0.72848  0.56888  1.0000
  C   C387      1.0  0.22358  0.72546  0.56439  1.0000
  C   C388      1.0  0.20796  0.74554  0.53896  1.0000
  C   C389      1.0  0.22460  0.76860  0.51841  1.0000
  H   H310      1.0  0.29772  0.75351  0.55209  1.0000
  H   H311      1.0  0.26832  0.71290  0.58787  1.0000
  H   H312      1.0  0.18287  0.74358  0.53568  1.0000
  S   S64       1.0  0.07149  0.98135  0.78644  1.0000
  C   C390      1.0  0.26551  0.74185  0.78470  1.0000
  C   C391      1.0  0.23959  0.75795  0.77024  1.0000
  C   C392      1.0  0.22906  0.78549  0.78816  1.0000
  C   C393      1.0  0.24354  0.79669  0.82143  1.0000
  C   C394      1.0  0.26875  0.77994  0.83674  1.0000
  C   C395      1.0  0.27993  0.75289  0.81812  1.0000
  H   H313      1.0  0.22828  0.74974  0.74464  1.0000
  H   H314      1.0  0.20988  0.79856  0.77591  1.0000
  H   H315      1.0  0.28035  0.78851  0.86204  1.0000
  C   C396      1.0  0.01872  0.63621  0.57097  1.0000
  C   C397      1.0  0.12992  0.58921  0.75315  1.0000
  C   C398      1.0  0.12043  0.56908  0.72385  1.0000
  C   C399      1.0  0.09376  0.54969  0.72850  1.0000
  C   C400      1.0  0.07651  0.54967  0.76264  1.0000
  C   C401      1.0  0.08610  0.56963  0.79197  1.0000
  C   C402      1.0  0.11253  0.58926  0.78716  1.0000
  H   H316      1.0  0.13373  0.56821  0.69778  1.0000
  H   H317      1.0  0.08665  0.53428  0.70567  1.0000
  H   H318      1.0  0.07312  0.57001  0.81835  1.0000
  H   H319      1.0  0.11958  0.60463  0.81008  1.0000
  H   H320      1.0  0.21565  0.92614  0.74682  1.0000
  C   C403      1.0  0.19789  0.77999  0.62737  1.0000
  C   C404      1.0  0.09472  0.85989  0.91771  1.0000
  H   H321      1.0  0.29474  0.74185  0.63890  1.0000
  C   C405      1.0  0.08436  0.56478  0.54961  1.0000
  H   H322      1.0  0.25280  0.82878  0.59051  1.0000
  C   C406      1.0  0.02122  0.54805  0.97996  1.0000
  H   H323      1.0  0.14228  0.61810  0.66566  1.0000
  C   C407      1.0  0.12007  0.83577  0.86361  1.0000
  C   C408      1.0  0.08134  0.62661  0.60346  1.0000
  C   C409      1.0  0.27693  0.83902  0.71360  1.0000
  H   H324      1.0  0.00690  0.57702  0.52968  1.0000
  C   C410      1.0  0.13459  0.65845  0.63036  1.0000
  C   C411      1.0  0.11556  0.67227  0.60278  1.0000
  C   C412      1.0  0.08901  0.65645  0.58929  1.0000
  C   C413      1.0  0.12751  0.62858  0.64403  1.0000
  H   H325      1.0  0.13716  0.81926  0.85280  1.0000
  C   C414      1.0  0.27565  0.66566  0.85339  1.0000
  C   C415      1.0  0.07791  0.87940  0.89326  1.0000
  C   C416      1.0  0.14309  0.80494  0.75142  1.0000
  H   H326      1.0  0.04536  0.62056  0.67075  1.0000
  H   H327      1.0  0.18719  0.57605  0.55142  1.0000
  H   H328      1.0  0.14679  0.66571  0.52697  1.0000
  C   C417      1.0  0.03216  0.59925  0.66583  1.0000
  C   C418      1.0  0.13853  0.63825  0.97792  1.0000
  H   H329      1.0  0.19829  0.81250  0.58058  1.0000
  H   H330      1.0  0.03391  0.63283  0.51246  1.0000
  H   H331      1.0  0.17244  0.55712  0.48769  1.0000
  H   H332      1.0  0.00977  0.83766  0.71669  1.0000
  H   H333      1.0  0.10326  0.57245  0.56793  1.0000
  H   H334      1.0  0.17408  0.77220  0.62213  1.0000
  H   H335      1.0  0.09538  0.73765  0.79806  1.0000
  H   H336      1.0  0.21243  0.78411  0.49918  1.0000
  H   H337      1.0  0.15489  0.67090  0.64113  1.0000
  H   H338      1.0  0.12147  0.69538  0.59221  1.0000
  H   H339      1.0  0.07439  0.66779  0.56829  1.0000
  C   C419      1.0  0.04088  0.90800  0.74185  1.0000
  H   H340      1.0  0.17005  0.76827  0.72518  1.0000
  C   C420      1.0  0.13340  0.74946  0.76046  1.0000
  P   P14       1.0  0.10941  0.85242  0.78799  1.0000
  H   H341      1.0  0.03605  0.93289  0.74007  1.0000
  H   H342      1.0  0.16820  0.67925  0.97685  1.0000
  H   H343      1.0  0.29188  0.67489  0.83252  1.0000
  H   H344      1.0  0.02321  0.59232  0.72560  1.0000
  C   C421      1.0  0.21316  0.99459  0.89730  1.0000
  C   C422      1.0  0.24624  0.77620  0.66319  1.0000
  C   C423      1.0  0.24396  0.66252  0.84405  1.0000
  C   C424      1.0  0.01927  0.58359  0.69704  1.0000
  P   P15       1.0  0.04572  0.60696  0.58857  1.0000
  H   H345      1.0  0.23584  0.66914  0.81593  1.0000
  C   C425      1.0  0.07447  0.86545  0.76325  1.0000
  H   H346      1.0  0.32231  0.61642  0.59235  1.0000
  H   H347      1.0  0.16855  0.86736  0.82716  1.0000
  C   C426      1.0  0.16762  0.62196  0.54316  1.0000
  C   C427      1.0  0.15172  0.64187  0.51829  1.0000
  H   H348      1.0  0.28541  0.70303  0.94218  1.0000
  C   C428      1.0  0.02610  0.85435  0.72890  1.0000
  C   C429      1.0  0.19456  0.89701  0.78968  1.0000
  H   H349      1.0  0.06942  0.89326  0.83593  1.0000
  C   C430      1.0  0.31413  0.87395  0.63390  1.0000
  H   H350      1.0  0.25773  0.84695  0.69588  1.0000
  H   H351      1.0  0.09201  0.86224  0.94818  1.0000
  H   H352      1.0  0.12458  0.88942  0.71982  1.0000
  H   H353      1.0  0.25928  0.76598  0.68657  1.0000
  H   H354      1.0  0.11300  0.52967  0.52248  1.0000
  C   C431      1.0  0.21525  0.76681  0.65695  1.0000
  C   C432      1.0  0.11561  0.83793  0.90287  1.0000
  C   C433      1.0  0.10859  0.75646  0.78491  1.0000
  H   H355      1.0  0.05749  0.81894  0.74903  1.0000
  C   C434      1.0  0.23323  0.64283  0.90737  1.0000
  H   H356      1.0  0.12888  0.82300  0.92185  1.0000
  H   H357      1.0  0.21638  0.63426  0.92786  1.0000
  H   H358      1.0  0.21437  0.89859  0.80895  1.0000
  H   H359      1.0  0.06219  0.89688  0.90480  1.0000
  H   H360      1.0  0.08401  0.91474  0.77205  1.0000
  C   C435      1.0  0.05442  0.57839  0.55206  1.0000
  H   H361      1.0  0.19821  0.64861  0.86352  1.0000
  C   C436      1.0  0.10108  0.78769  0.79282  1.0000
  H   H362      1.0  0.13953  0.72525  0.75476  1.0000
  H   H363      1.0  0.25740  0.85942  0.76444  1.0000
  H   H364      1.0  0.17483  0.63042  0.57091  1.0000
  H   H365      1.0  0.15702  0.82328  0.73849  1.0000
  H   H366      1.0  0.30295  0.59450  0.90389  1.0000
  H   H367      1.0  0.31225  0.81591  0.56739  1.0000
  C   C437      1.0  0.08217  0.87725  0.85397  1.0000
  H   H368      1.0  0.17058  0.92133  0.70239  1.0000
  C   C438      1.0  0.13781  0.50265  0.79224  1.0000
  C   C439      1.0  0.21157  0.80257  0.60389  1.0000
  C   C440      1.0  0.10321  0.85528  0.83875  1.0000
  C   C441      1.0  0.32521  0.89441  0.57100  1.0000
  H   H369      1.0  0.08199  0.79278  0.81216  1.0000
  C   C442      1.0  0.22278  0.65104  0.87098  1.0000
  C   C443      1.0  0.17468  0.59135  0.53206  1.0000
  C   C444      1.0  0.28625  0.65726  0.88958  1.0000
  H   H370      1.0  0.20481  0.74898  0.67472  1.0000
  C   C445      1.0  0.06809  0.89761  0.76007  1.0000
  C   C446      1.0  0.06582  0.52931  0.50067  1.0000
  C   C447      1.0  0.16993  0.90964  0.72969  1.0000
  C   C448      1.0  0.19531  0.91235  0.75465  1.0000
  C   C449      1.0  0.26044  0.79831  0.63913  1.0000
  C   C450      1.0  0.16833  0.87926  0.80001  1.0000
  C   C451      1.0  0.14244  0.87694  0.77549  1.0000
  C   C452      1.0  0.14373  0.89172  0.73985  1.0000
  H   H371      1.0  0.05546  0.69751  0.49631  1.0000
  H   H372      1.0  0.00749  0.53393  0.96049  1.0000
  C   C453      1.0  0.09002  0.54043  0.52388  1.0000
  C   C454      1.0  0.02824  0.58722  0.62892  1.0000
  C   C455      1.0  0.05327  0.84385  0.74732  1.0000
  H   H373      1.0  0.09591  0.58951  0.64174  1.0000
  C   C456      1.0  0.01841  0.64433  0.53230  1.0000
  C   C457      1.0  0.32151  0.89917  0.61004  1.0000
  C   C458      1.0  0.10116  0.61256  0.63046  1.0000
  H   H374      1.0  0.14555  0.63038  0.94993  1.0000
  C   C459      1.0  0.01984  0.88641  0.72630  1.0000
  C   C460      1.0  0.31387  0.61196  0.96032  1.0000
  H   H375      1.0  0.24718  0.99184  0.94248  1.0000
  C   C461      1.0  0.24277  0.81160  0.60954  1.0000
  S   S65       1.0  0.30286  0.94319  0.96486  1.0000
  S   S66       1.0  0.30327  0.58085  0.66023  1.0000
  C   C462      1.0  0.16626  0.58074  0.49583  1.0000
  H   H376      1.0  0.31088  0.66006  0.89642  1.0000
  C   C463      1.0  0.03041  0.56738  0.52808  1.0000
  H   H377      1.0  0.31917  0.65093  0.75913  1.0000
  C   C464      1.0  0.10310  0.71418  0.49439  1.0000
  H   H378      1.0  0.14966  0.52450  0.79879  1.0000
  C   C465      1.0  0.03616  0.54298  0.50255  1.0000
  H   H379      1.0  0.22921  0.98587  0.87594  1.0000
  C   C466      1.0  0.27673  0.84634  0.75229  1.0000
  S   S67       1.0  0.27956  0.79975  0.49806  1.0000
  H   H380      1.0  0.32431  0.86068  0.52547  1.0000
  P   P16       1.0  0.30029  0.81069  0.64839  1.0000
  C   C467      1.0  0.99798  0.66747  0.51896  1.0000
  H   H381      1.0  0.31127  0.87824  0.66397  1.0000
  C   C468      1.0  0.99731  0.54440  0.65510  1.0000
  C   C469      1.0  0.32835  0.78000  0.63858  1.0000
  C   C470      1.0  0.32561  0.81055  0.72201  1.0000
  C   C471      1.0  0.28823  0.70088  0.97255  1.0000
  H   H382      1.0  0.99865  0.89456  0.71235  1.0000
  C   C472      1.0  0.30143  0.82113  0.69811  1.0000
  H   H383      1.0  0.00650  0.55010  0.59586  1.0000
  Fe  Fe34      1.0  0.22666  0.85268  0.98428  1.0000
  C   C473      1.0  0.00185  0.55622  0.69168  1.0000
  C   C474      1.0  0.01040  0.55980  0.62382  1.0000
  C   C475      1.0  0.31063  0.84370  0.61875  1.0000
  C   C476      1.0  0.31919  0.59388  0.92753  1.0000
  C   C477      1.0  0.31898  0.74857  0.63535  1.0000
  C   C478      1.0  0.30092  0.83586  0.77583  1.0000
  C   C479      1.0  0.31492  0.83906  0.57961  1.0000
  H   H384      1.0  0.99867  0.64654  0.62615  1.0000
  C   C480      1.0  0.99874  0.65208  0.59616  1.0000
  H   H385      1.0  0.30026  0.84103  0.80600  1.0000
  C   C481      1.0  0.32188  0.86435  0.55581  1.0000
  C   C482      1.0  0.32529  0.81794  0.76074  1.0000
  H   H386      1.0  0.99694  0.67298  0.48892  1.0000
  H   H387      1.0  0.23238  0.67763  0.48982  1.0000
  H   H388      1.0  0.32425  0.92249  0.62174  1.0000
  H   H389      1.0  0.29242  0.75092  0.97981  1.0000
  C   C483      1.0  0.01373  0.57953  0.98540  1.0000
  Fe  Fe35      1.0  0.36198  0.28725  0.32194  1.0000
  S   S68       1.0  0.37839  0.24964  0.36169  1.0000
  S   S69       1.0  0.37795  0.33884  0.32439  1.0000
  H   H390      1.0  0.38865  0.11516  0.32777  1.0000
  H   H391      1.0  0.35371  0.17080  0.18848  1.0000
  H   H392      1.0  0.58213  0.02779  0.14199  1.0000
  Fe  Fe36      1.0  0.38067  0.21759  0.31048  1.0000
  S   S70       1.0  0.42258  0.18496  0.29969  1.0000
  H   H393      1.0  0.48407  0.45901  0.30739  1.0000
  S   S71       1.0  0.36820  0.25641  0.26996  1.0000
  Fe  Fe37      1.0  0.50838  0.02190  0.10167  1.0000
  S   S72       1.0  0.51232  0.02649  0.16523  1.0000
  S   S73       1.0  0.53800  0.05735  0.06773  1.0000
  Fe  Fe38      1.0  0.45954  0.02931  0.16552  1.0000
  S   S74       1.0  0.42421  0.06403  0.19141  1.0000
  S   S75       1.0  0.45553  0.02704  0.10183  1.0000
  C   C484      1.0  0.36048  0.22944  0.12312  1.0000
  C   C485      1.0  0.62125  0.14115  0.22839  1.0000
  S   S76       1.0  0.56039  0.45371  0.04577  1.0000
  C   C486      1.0  0.56654  0.48647  0.34034  1.0000
  S   S77       1.0  0.44443  0.41398  0.46128  1.0000
  C   C487      1.0  0.38054  0.30019  0.06882  1.0000
  C   C488      1.0  0.66034  0.04384  0.14705  1.0000
  C   C489      1.0  0.43385  0.02190  0.44601  1.0000
  C   C490      1.0  0.61001  0.47891  0.08810  1.0000
  C   C491      1.0  0.59560  0.45209  0.07322  1.0000
  C   C492      1.0  0.60870  0.42264  0.08172  1.0000
  H   H394      1.0  0.40401  0.24195  0.09507  1.0000
  C   C493      1.0  0.63490  0.43976  0.23872  1.0000
  C   C494      1.0  0.35153  0.26885  0.02327  1.0000
  H   H395      1.0  0.59781  0.40169  0.07043  1.0000
  C   C495      1.0  0.34360  0.09923  0.34907  1.0000
  P   P17       1.0  0.34096  0.06666  0.31635  1.0000
  C   C496      1.0  0.57715  0.48844  0.22019  1.0000
  C   C497      1.0  0.58901  0.02904  0.03206  1.0000
  C   C498      1.0  0.57500  0.05686  0.04422  1.0000
  C   C499      1.0  0.58981  0.08550  0.03543  1.0000
  H   H396      1.0  0.63781  0.39030  0.33111  1.0000
  H   H397      1.0  0.60501  0.43751  0.32853  1.0000
  H   H398      1.0  0.57281  0.43855  0.20950  1.0000
  C   C500      1.0  0.35121  0.00988  0.13046  1.0000
  C   C501      1.0  0.34706  0.15187  0.39675  1.0000
  C   C502      1.0  0.42294  0.15161  0.26912  1.0000
  C   C503      1.0  0.45097  0.13470  0.26392  1.0000
  C   C504      1.0  0.45203  0.10804  0.24008  1.0000
  C   C505      1.0  0.42492  0.09780  0.22133  1.0000
  C   C506      1.0  0.39688  0.11457  0.22682  1.0000
  C   C507      1.0  0.39590  0.14135  0.25035  1.0000
  H   H399      1.0  0.47203  0.14230  0.27842  1.0000
  H   H400      1.0  0.47375  0.09536  0.23638  1.0000
  H   H401      1.0  0.37581  0.10693  0.21240  1.0000
  H   H402      1.0  0.37427  0.15415  0.25397  1.0000
  C   C508      1.0  0.39591  0.35949  0.36308  1.0000
  C   C509      1.0  0.40296  0.39162  0.35902  1.0000
  C   C510      1.0  0.41756  0.40877  0.38863  1.0000
  C   C511      1.0  0.42540  0.39398  0.42287  1.0000
  C   C512      1.0  0.41795  0.36197  0.42708  1.0000
  C   C513      1.0  0.40333  0.34486  0.39754  1.0000
  H   H403      1.0  0.39735  0.40328  0.33261  1.0000
  H   H404      1.0  0.42299  0.43332  0.38481  1.0000
  H   H405      1.0  0.42395  0.35017  0.45326  1.0000
  H   H406      1.0  0.39806  0.32026  0.40132  1.0000
  C   C514      1.0  0.63249  0.02646  0.14803  1.0000
  C   C515      1.0  0.61832  0.08637  0.01504  1.0000
  H   H407      1.0  0.54710  0.48583  0.39685  1.0000
  C   C516      1.0  0.39966  0.04869  0.34407  1.0000
  C   C517      1.0  0.53112  0.47092  0.28984  1.0000
  H   H408      1.0  0.49441  0.46860  0.37577  1.0000
  C   C518      1.0  0.51286  0.47220  0.35501  1.0000
  H   H409      1.0  0.43539  0.20161  0.12773  1.0000
  H   H410      1.0  0.47829  0.15008  0.47436  1.0000
  C   C519      1.0  0.35774  0.27722  0.06120  1.0000
  H   H411      1.0  0.34835  0.00797  0.36017  1.0000
  C   C520      1.0  0.54258  0.48193  0.36689  1.0000
  Fe  Fe39      1.0  0.46508  0.46074  0.48343  1.0000
  C   C521      1.0  0.39064  0.03770  0.27749  1.0000
  P   P18       1.0  0.33686  0.25898  0.10009  1.0000
  C   C522      1.0  0.61829  0.43106  0.30364  1.0000
  C   C523      1.0  0.61157  0.17245  0.22849  1.0000
  C   C524      1.0  0.37163  0.14524  0.37183  1.0000
  H   H412      1.0  0.34814  0.17259  0.41451  1.0000
  H   H413      1.0  0.32999  0.30793  0.22746  1.0000
  H   H414      1.0  0.33415  0.25129  0.01619  1.0000
  C   C525      1.0  0.36981  0.11924  0.34781  1.0000
  C   C526      1.0  0.63247  0.25272  0.20832  1.0000
  H   H415      1.0  0.42944  0.01692  0.24758  1.0000
  H   H416      1.0  0.46367  0.05264  0.47877  1.0000
  C   C527      1.0  0.41056  0.20373  0.13370  1.0000
  C   C528      1.0  0.65955  0.07640  0.14116  1.0000
  H   H417      1.0  0.35823  0.03117  0.11595  1.0000
  C   C529      1.0  0.62824  0.19492  0.24962  1.0000
  H   H418      1.0  0.48866  0.47368  0.20197  1.0000
  Fe  Fe40      1.0  0.53273  0.49245  0.01502  1.0000
  H   H419      1.0  0.61519  0.27260  0.11672  1.0000
  H   H420      1.0  0.62898  0.11595  0.12951  1.0000
  C   C530      1.0  0.50708  0.46685  0.31646  1.0000
  H   H421      1.0  0.60783  0.12372  0.21292  1.0000
  C   C531      1.0  0.46246  0.03165  0.46146  1.0000
  P   P19       1.0  0.61545  0.23519  0.25018  1.0000
  C   C532      1.0  0.57317  0.23814  0.25207  1.0000
  C   C533      1.0  0.62869  0.25439  0.29300  1.0000
  H   H422      1.0  0.64044  0.45229  0.00359  1.0000
  C   C534      1.0  0.66069  0.27728  0.14265  1.0000
  C   C535      1.0  0.39650  0.31489  0.03899  1.0000
  C   C536      1.0  0.55509  0.21400  0.26825  1.0000
  C   C537      1.0  0.52245  0.21689  0.27081  1.0000
  C   C538      1.0  0.50770  0.24413  0.25809  1.0000
  C   C539      1.0  0.52559  0.26865  0.24305  1.0000
  C   C540      1.0  0.55823  0.26581  0.24033  1.0000
  C   C541      1.0  0.63692  0.40411  0.30530  1.0000
  C   C542      1.0  0.56107  0.48076  0.30157  1.0000
  C   C543      1.0  0.63731  0.25325  0.36128  1.0000
  C   C544      1.0  0.55770  0.46545  0.16147  1.0000
  C   C545      1.0  0.63660  0.47616  0.11187  1.0000
  H   H423      1.0  0.57750  0.00695  0.03776  1.0000
  S   S78       1.0  0.33107  0.20116  0.31823  1.0000
  S   S79       1.0  0.47962  0.48980  0.01460  1.0000
  H   H424      1.0  0.63472  0.45329  0.21265  1.0000
  H   H425      1.0  0.63965  0.29877  0.26591  1.0000
  C   C546      1.0  0.61702  0.44912  0.27024  1.0000
  H   H426      1.0  0.57904  0.10721  0.04437  1.0000
  H   H427      1.0  0.52633  0.46586  0.26031  1.0000
  H   H428      1.0  0.37316  0.02295  0.18305  1.0000
  H   H429      1.0  0.56607  0.19310  0.27943  1.0000
  H   H430      1.0  0.50846  0.19818  0.28310  1.0000
  H   H431      1.0  0.48240  0.24634  0.26047  1.0000
  H   H432      1.0  0.51414  0.29003  0.23395  1.0000
  H   H433      1.0  0.57182  0.28533  0.22951  1.0000
  H   H434      1.0  0.59042  0.24973  0.17379  1.0000
  C   C547      1.0  0.65326  0.41268  0.24044  1.0000
  H   H435      1.0  0.47432  0.48067  0.13423  1.0000
  H   H436      1.0  0.58035  0.08481  0.13033  1.0000
  C   C548      1.0  0.36451  0.18619  0.16781  1.0000
  C   C549      1.0  0.65613  0.18614  0.26801  1.0000
  C   C550      1.0  0.65436  0.39489  0.27367  1.0000
  H   H437      1.0  0.62734  0.00829  0.00094  1.0000
  C   C551      1.0  0.44105  0.02612  0.30590  1.0000
  C   C552      1.0  0.42100  0.02560  0.27461  1.0000
  H   H438      1.0  0.55278  0.44502  0.14412  1.0000
  C   C553      1.0  0.61484  0.25662  0.17491  1.0000
  H   H439      1.0  0.46497  0.01812  0.30280  1.0000
  C   C554      1.0  0.34648  0.20889  0.14932  1.0000
  C   C555      1.0  0.64956  0.44668  0.12055  1.0000
  H   H440      1.0  0.51163  0.02138  0.46766  1.0000
  H   H441      1.0  0.62935  0.10859  0.00861  1.0000
  H   H442      1.0  0.39178  0.05741  0.37132  1.0000
  P   P20       1.0  0.59282  0.48396  0.26770  1.0000
  H   H443      1.0  0.37645  0.03858  0.25217  1.0000
  H   H444      1.0  0.59084  0.17902  0.21256  1.0000
  C   C556      1.0  0.64844  0.30049  0.32576  1.0000
  C   C557      1.0  0.63559  0.41991  0.10497  1.0000
  H   H445      1.0  0.63313  0.00142  0.15305  1.0000
  H   H446      1.0  0.65521  0.10799  0.24907  1.0000
  C   C558      1.0  0.35974  0.00517  0.16833  1.0000
  C   C559      1.0  0.60372  0.04129  0.14214  1.0000
  C   C560      1.0  0.60272  0.07357  0.13579  1.0000
  C   C561      1.0  0.33217  0.28630  0.17238  1.0000
  H   H447      1.0  0.39171  0.16083  0.37021  1.0000
  C   C562      1.0  0.62744  0.23845  0.32789  1.0000
  C   C563      1.0  0.55304  0.49534  0.14638  1.0000
  H   H448      1.0  0.33152  0.39636  0.29815  1.0000
  H   H449      1.0  0.64519  0.39705  0.11131  1.0000
  C   C564      1.0  0.62888  0.26922  0.14233  1.0000
  C   C565      1.0  0.64809  0.13230  0.24851  1.0000
  H   H450      1.0  0.41053  0.16605  0.17446  1.0000
  C   C566      1.0  0.39264  0.22661  0.11528  1.0000
  C   C567      1.0  0.63047  0.09112  0.13532  1.0000
  C   C568      1.0  0.39654  0.18360  0.16002  1.0000
  H   H451      1.0  0.61909  0.21450  0.32929  1.0000
  C   C569      1.0  0.56939  0.46195  0.19836  1.0000
  H   H452      1.0  0.38577  0.30691  0.09783  1.0000
  H   H453      1.0  0.41276  0.03527  0.45144  1.0000
  C   C570      1.0  0.63210  0.05851  0.00254  1.0000
  H   H454      1.0  0.44603  0.03809  0.36493  1.0000
  C   C571      1.0  0.43034  0.03746  0.34073  1.0000
  H   H455      1.0  0.41381  0.33285  0.04499  1.0000
  H   H456      1.0  0.65598  0.29555  0.38598  1.0000
  C   C572      1.0  0.37972  0.04959  0.31220  1.0000
  C   C573      1.0  0.63881  0.28571  0.29226  1.0000
  C   C574      1.0  0.61720  0.02992  0.01107  1.0000
  H   H457      1.0  0.34164  0.26487  0.18398  1.0000
  H   H458      1.0  0.63699  0.24062  0.38798  1.0000
  H   H459      1.0  0.59507  0.10913  0.48011  1.0000
  H   H460      1.0  0.58947  0.49382  0.35027  1.0000
  H   H461      1.0  0.65118  0.11672  0.46310  1.0000
  C   C575      1.0  0.38993  0.30666  0.00137  1.0000
  C   C576      1.0  0.64475  0.09995  0.48479  1.0000
  H   H462      1.0  0.65722  0.32432  0.32480  1.0000
  C   C577      1.0  0.48952  0.01400  0.45518  1.0000
  C   C578      1.0  0.64787  0.28424  0.36021  1.0000
  C   C579      1.0  0.36753  0.28361  0.99356  1.0000
  Fe  Fe41      1.0  0.40408  0.30147  0.80682  1.0000
  S   S80       1.0  0.41001  0.25622  0.83848  1.0000
  S   S81       1.0  0.44239  0.33852  0.81871  1.0000
  H   H463      1.0  0.34799  0.16813  0.61284  1.0000
  S   S82       1.0  0.35608  0.22391  0.78540  1.0000
  Fe  Fe42      1.0  0.35698  0.25386  0.83842  1.0000
  Fe  Fe43      1.0  0.40844  0.23098  0.78212  1.0000
  S   S83       1.0  0.44863  0.20052  0.75872  1.0000
  C   C580      1.0  0.35297  0.33791  0.55180  1.0000
  S   S84       1.0  0.40506  0.27638  0.75060  1.0000
  Fe  Fe44      1.0  0.53709  0.03652  0.57448  1.0000
  S   S85       1.0  0.54104  0.04181  0.63795  1.0000
  S   S86       1.0  0.56309  0.06928  0.53335  1.0000
  Fe  Fe45      1.0  0.48832  0.03915  0.63858  1.0000
  S   S87       1.0  0.45312  0.06769  0.67378  1.0000
  S   S88       1.0  0.48385  0.03697  0.57473  1.0000
  S   S89       1.0  0.64866  0.40729  0.69627  1.0000
  H   H464      1.0  0.34299  0.21002  0.49603  1.0000
  S   S90       1.0  0.52858  0.46463  0.60842  1.0000
  C   C581      1.0  0.53453  0.01362  0.82901  1.0000
  S   S91       1.0  0.44953  0.46705  0.91303  1.0000
  S   S92       1.0  0.45395  0.47254  0.54466  1.0000
  H   H465      1.0  0.48539  0.39270  0.52182  1.0000
  C   C582      1.0  0.58916  0.43080  0.68822  1.0000
  C   C583      1.0  0.56303  0.44331  0.66909  1.0000
  C   C584      1.0  0.56295  0.44727  0.62952  1.0000
  C   C585      1.0  0.58972  0.43751  0.60920  1.0000
  C   C586      1.0  0.61616  0.42454  0.62859  1.0000
  H   H466      1.0  0.33438  0.33543  0.70113  1.0000
  H   H467      1.0  0.46830  0.35582  0.74352  1.0000
  H   H468      1.0  0.59021  0.44024  0.57866  1.0000
  H   H469      1.0  0.58381  0.05619  0.93898  1.0000
  H   H470      1.0  0.42570  0.15470  0.50260  1.0000
  C   C587      1.0  0.38046  0.03769  0.62897  1.0000
  C   C588      1.0  0.62722  0.05642  0.54088  1.0000
  C   C589      1.0  0.60380  0.07364  0.52239  1.0000
  H   H471      1.0  0.57438  0.04104  0.84417  1.0000
  H   H472      1.0  0.41395  0.07146  0.55166  1.0000
  H   H473      1.0  0.65124  0.11543  0.71141  1.0000
  H   H474      1.0  0.62075  0.03981  0.56270  1.0000
  H   H475      1.0  0.64165  0.29072  0.63797  1.0000
  H   H476      1.0  0.37709  0.40075  0.48909  1.0000
  C   C590      1.0  0.44908  0.16388  0.73433  1.0000
  C   C591      1.0  0.47725  0.15357  0.71759  1.0000
  C   C592      1.0  0.47885  0.12462  0.69819  1.0000
  C   C593      1.0  0.45235  0.10528  0.69595  1.0000
  C   C594      1.0  0.42429  0.11556  0.71289  1.0000
  C   C595      1.0  0.42253  0.14474  0.73167  1.0000
  H   H477      1.0  0.49798  0.16811  0.71950  1.0000
  H   H478      1.0  0.50065  0.11704  0.68554  1.0000
  H   H479      1.0  0.40372  0.10074  0.71169  1.0000
  H   H480      1.0  0.40071  0.15224  0.74437  1.0000
  C   C596      1.0  0.44379  0.37285  0.84770  1.0000
  C   C597      1.0  0.47319  0.38532  0.85829  1.0000
  C   C598      1.0  0.47552  0.41343  0.87945  1.0000
  C   C599      1.0  0.44837  0.42986  0.88964  1.0000
  C   C600      1.0  0.41904  0.41741  0.87888  1.0000
  C   C601      1.0  0.41670  0.38897  0.85849  1.0000
  H   H481      1.0  0.49430  0.37316  0.84995  1.0000
  H   H482      1.0  0.49827  0.42273  0.88712  1.0000
  H   H483      1.0  0.39788  0.42990  0.88637  1.0000
  H   H484      1.0  0.39393  0.37993  0.85041  1.0000
  C   C602      1.0  0.49870  0.12815  0.52356  1.0000
  C   C603      1.0  0.34673  0.32872  0.58936  1.0000
  H   H485      1.0  0.37678  0.01480  0.64153  1.0000
  C   C604      1.0  0.39940  0.30494  0.55192  1.0000
  C   C605      1.0  0.50477  0.06394  0.94761  1.0000
  C   C606      1.0  0.55226  0.40071  0.81830  1.0000
  C   C607      1.0  0.53231  0.41090  0.78939  1.0000
  C   C608      1.0  0.52804  0.39250  0.75700  1.0000
  C   C609      1.0  0.54330  0.36370  0.75375  1.0000
  C   C610      1.0  0.56433  0.35382  0.78200  1.0000
  C   C611      1.0  0.56858  0.37249  0.81443  1.0000
  P   P21       1.0  0.58126  0.31514  0.77951  1.0000
  C   C612      1.0  0.54976  0.28845  0.79144  1.0000
  C   C613      1.0  0.59953  0.30750  0.73402  1.0000
  C   C614      1.0  0.61380  0.27835  0.72744  1.0000
  H   H486      1.0  0.35902  0.06254  0.67532  1.0000
  C   C615      1.0  0.62959  0.29519  0.66456  1.0000
  C   C616      1.0  0.61684  0.32475  0.67156  1.0000
  C   C617      1.0  0.60223  0.33106  0.70626  1.0000
  C   C618      1.0  0.54405  0.26109  0.77034  1.0000
  C   C619      1.0  0.52000  0.24056  0.78109  1.0000
  C   C620      1.0  0.50113  0.24744  0.81240  1.0000
  C   C621      1.0  0.50611  0.27497  0.83292  1.0000
  C   C622      1.0  0.53038  0.29533  0.82265  1.0000
  C   C623      1.0  0.61260  0.31119  0.81368  1.0000
  Fe  Fe46      1.0  0.50594  0.48172  0.55220  1.0000
  C   C624      1.0  0.63826  0.41994  0.81369  1.0000
  H   H487      1.0  0.51249  0.40027  0.73466  1.0000
  H   H488      1.0  0.53861  0.34910  0.72921  1.0000
  H   H489      1.0  0.58387  0.36495  0.83709  1.0000
  H   H490      1.0  0.63564  0.26737  0.88993  1.0000
  H   H491      1.0  0.61900  0.21212  0.84405  1.0000
  C   C625      1.0  0.46691  0.46024  0.75479  1.0000
  H   H492      1.0  0.61929  0.34326  0.65061  1.0000
  H   H493      1.0  0.59418  0.35469  0.71137  1.0000
  C   C626      1.0  0.47418  0.14175  0.50301  1.0000
  H   H494      1.0  0.51973  0.43276  0.79246  1.0000
  H   H495      1.0  0.48211  0.23181  0.82021  1.0000
  H   H496      1.0  0.49063  0.28091  0.85627  1.0000
  H   H497      1.0  0.53362  0.31668  0.83880  1.0000
  C   C627      1.0  0.34890  0.12356  0.52971  1.0000
  H   H498      1.0  0.38571  0.33403  0.50501  1.0000
  H   H499      1.0  0.51537  0.21958  0.76465  1.0000
  C   C628      1.0  0.60993  0.11119  0.62912  1.0000
  S   S93       1.0  0.51724  0.46748  0.49220  1.0000
  C   C629      1.0  0.39225  0.29483  0.58869  1.0000
  H   H500      1.0  0.42524  0.39234  0.75261  1.0000
  H   H501      1.0  0.52186  0.39549  0.57660  1.0000
  C   C630      1.0  0.63984  0.32934  0.80940  1.0000
  H   H502      1.0  0.40765  0.38074  0.59744  1.0000
  Fe  Fe47      1.0  0.35292  0.27034  0.75527  1.0000
  C   C631      1.0  0.36845  0.46390  0.54669  1.0000
  C   C632      1.0  0.46161  0.15625  0.84182  1.0000
  H   H503      1.0  0.57841  0.43666  0.96714  1.0000
  H   H504      1.0  0.58686  0.10480  0.61850  1.0000
  H   H505      1.0  0.34518  0.20954  0.66155  1.0000
  C   C633      1.0  0.58504  0.01003  0.79689  1.0000
  H   H506      1.0  0.42847  0.38523  0.53260  1.0000
  H   H507      1.0  0.60887  0.18708  0.90625  1.0000
  H   H508      1.0  0.63965  0.13456  0.87714  1.0000
  C   C634      1.0  0.54200  0.37113  0.93479  1.0000
  H   H509      1.0  0.39279  0.42753  0.65190  1.0000
  S   S94       1.0  0.33351  0.24821  0.89644  1.0000
  H   H510      1.0  0.48542  0.05537  0.96473  1.0000
  H   H511      1.0  0.40696  0.27766  0.60272  1.0000
  H   H512      1.0  0.56451  0.15036  0.91402  1.0000
  C   C635      1.0  0.63050  0.08738  0.79995  1.0000
  H   H513      1.0  0.52177  0.12571  0.51089  1.0000
  C   C636      1.0  0.62486  0.03303  0.67508  1.0000
  H   H514      1.0  0.40887  0.19731  0.89465  1.0000
  C   C637      1.0  0.47747  0.46090  0.71724  1.0000
  C   C638      1.0  0.65650  0.03788  0.66682  1.0000
  C   C639      1.0  0.63357  0.11491  0.82122  1.0000
  H   H515      1.0  0.55754  0.25565  0.74529  1.0000
  C   C640      1.0  0.60102  0.40049  0.93361  1.0000
  H   H516      1.0  0.46062  0.05870  0.76763  1.0000
  C   C641      1.0  0.56724  0.35670  0.91650  1.0000
  C   C642      1.0  0.62837  0.27210  0.69268  1.0000
  S   S95       1.0  0.35101  0.30024  0.80829  1.0000
  H   H517      1.0  0.36072  0.29925  0.63609  1.0000
  H   H518      1.0  0.39195  0.33359  0.69758  1.0000
  C   C643      1.0  0.61614  0.42146  0.66850  1.0000
  C   C644      1.0  0.45183  0.17729  0.91610  1.0000
  H   H519      1.0  0.61406  0.26058  0.74940  1.0000
  C   C645      1.0  0.63648  0.28503  0.86782  1.0000
  C   C646      1.0  0.39595  0.04032  0.59419  1.0000
  H   H520      1.0  0.47696  0.43872  0.66291  1.0000
  C   C647      1.0  0.42433  0.20068  0.65801  1.0000
  H   H521      1.0  0.46530  0.14913  0.81268  1.0000
  C   C648      1.0  0.36953  0.17708  0.62511  1.0000
  C   C649      1.0  0.39877  0.16523  0.61364  1.0000
  C   C650      1.0  0.42620  0.17698  0.63066  1.0000
  P   P22       1.0  0.40029  0.13516  0.57749  1.0000
  H   H522      1.0  0.40418  0.01940  0.57990  1.0000
  C   C651      1.0  0.39197  0.09710  0.59763  1.0000
  C   C652      1.0  0.37619  0.09424  0.63245  1.0000
  C   C653      1.0  0.43470  0.17344  0.85077  1.0000
  H   H523      1.0  0.50188  0.39000  0.64183  1.0000
  H   H524      1.0  0.59027  0.02580  0.71800  1.0000
  H   H525      1.0  0.44012  0.43471  0.79656  1.0000
  C   C654      1.0  0.36888  0.17679  0.53003  1.0000
  S   S96       1.0  0.53682  0.49492  0.95113  1.0000
  C   C655      1.0  0.65912  0.06074  0.53103  1.0000
  C   C656      1.0  0.54634  0.39987  0.95308  1.0000
  C   C657      1.0  0.37044  0.06461  0.64798  1.0000
  H   H526      1.0  0.63934  0.24960  0.68783  1.0000
  C   C658      1.0  0.53517  0.05343  0.95497  1.0000
  H   H527      1.0  0.55447  0.41443  0.84404  1.0000
  C   C659      1.0  0.49938  0.08566  0.91859  1.0000
  C   C660      1.0  0.61105  0.28896  0.84312  1.0000
  C   C661      1.0  0.47861  0.15983  0.90734  1.0000
  H   H528      1.0  0.44902  0.16792  0.62324  1.0000
  H   H529      1.0  0.47322  0.47892  0.77422  1.0000
  H   H530      1.0  0.44334  0.32121  0.63227  1.0000
  H   H531      1.0  0.36894  0.11472  0.64818  1.0000
  C   C662      1.0  0.63098  0.05810  0.81815  1.0000
  C   C663      1.0  0.62943  0.42310  0.85172  1.0000
  H   H532      1.0  0.55827  0.07317  0.74434  1.0000
  H   H533      1.0  0.45985  0.11048  0.60505  1.0000
  H   H534      1.0  0.44546  0.20938  0.67154  1.0000
  H   H535      1.0  0.63669  0.41752  0.61273  1.0000
  C   C664      1.0  0.46365  0.11964  0.57666  1.0000
  C   C665      1.0  0.59666  0.37132  0.91585  1.0000
  C   C666      1.0  0.40160  0.06988  0.57845  1.0000
  H   H536      1.0  0.47556  0.09322  0.91309  1.0000
  C   C667      1.0  0.44434  0.14440  0.51927  1.0000
  C   C668      1.0  0.61656  0.10970  0.66798  1.0000
  H   H537      1.0  0.61597  0.36001  0.90128  1.0000
  H   H538      1.0  0.48609  0.30358  0.76136  1.0000
  H   H539      1.0  0.51907  0.36009  0.93496  1.0000
  H   H540      1.0  0.51245  0.10641  0.57611  1.0000
  H   H541      1.0  0.62767  0.08903  0.76948  1.0000
  C   C669      1.0  0.53796  0.07754  0.76195  1.0000
  C   C670      1.0  0.54051  0.09642  0.79430  1.0000
  C   C671      1.0  0.51402  0.10256  0.81683  1.0000
  C   C672      1.0  0.48544  0.08791  0.80778  1.0000
  P   P23       1.0  0.51775  0.12556  0.85974  1.0000
  C   C673      1.0  0.52456  0.09747  0.89718  1.0000
  C   C674      1.0  0.54934  0.15367  0.85531  1.0000
  C   C675      1.0  0.56858  0.16100  0.88652  1.0000
  C   C676      1.0  0.63699  0.08433  0.87891  1.0000
  C   C677      1.0  0.59915  0.19639  0.84734  1.0000
  C   C678      1.0  0.57928  0.19026  0.81661  1.0000
  C   C679      1.0  0.55423  0.16927  0.82066  1.0000
  H   H542      1.0  0.36233  0.27729  0.96434  1.0000
  H   H543      1.0  0.49550  0.15492  0.92957  1.0000
  C   C680      1.0  0.44820  0.43542  0.76734  1.0000
  C   C681      1.0  0.55487  0.08606  0.90399  1.0000
  C   C682      1.0  0.48335  0.14859  0.87027  1.0000
  C   C683      1.0  0.42974  0.18389  0.88788  1.0000
  H   H544      1.0  0.63896  0.36229  0.97648  1.0000
  H   H545      1.0  0.56393  0.33426  0.90269  1.0000
  C   C684      1.0  0.63420  0.05678  0.85785  1.0000
  C   C685      1.0  0.37947  0.44523  0.51703  1.0000
  C   C686      1.0  0.56577  0.02319  0.82515  1.0000
  H   H546      1.0  0.41777  0.17890  0.82875  1.0000
  H   H547      1.0  0.63422  0.03450  0.87264  1.0000
  H   H548      1.0  0.56318  0.10602  0.80179  1.0000
  H   H549      1.0  0.46497  0.09110  0.82554  1.0000
  H   H550      1.0  0.62797  0.12212  0.57357  1.0000
  H   H551      1.0  0.44809  0.18565  0.94481  1.0000
  H   H552      1.0  0.59070  0.27410  0.84669  1.0000
  H   H553      1.0  0.58335  0.20176  0.78964  1.0000
  H   H554      1.0  0.53876  0.16506  0.79673  1.0000
  C   C687      1.0  0.43887  0.13339  0.55631  1.0000
  H   H555      1.0  0.46233  0.26872  0.65059  1.0000
  H   H556      1.0  0.57432  0.09416  0.88700  1.0000
  H   H557      1.0  0.41994  0.29594  0.53747  1.0000
  C   C688      1.0  0.37989  0.32648  0.53355  1.0000
  C   C689      1.0  0.39516  0.21237  0.66909  1.0000
  H   H558      1.0  0.60583  0.43051  0.85835  1.0000
  P   P24       1.0  0.63834  0.42038  0.92997  1.0000
  C   C690      1.0  0.36612  0.30695  0.60749  1.0000
  H   H559      1.0  0.54280  0.45048  0.68535  1.0000
  C   C691      1.0  0.57572  0.41445  0.95264  1.0000
  C   C692      1.0  0.43993  0.41132  0.74232  1.0000
  C   C693      1.0  0.45072  0.41157  0.70458  1.0000
  C   C694      1.0  0.46912  0.43694  0.69204  1.0000
  P   P25       1.0  0.43897  0.38041  0.67266  1.0000
  C   C695      1.0  0.45307  0.38627  0.62483  1.0000
  C   C696      1.0  0.45428  0.34261  0.68642  1.0000
  C   C697      1.0  0.46702  0.33738  0.72261  1.0000
  C   C698      1.0  0.47769  0.30760  0.73278  1.0000
  C   C699      1.0  0.47603  0.28285  0.70689  1.0000
  C   C700      1.0  0.46382  0.28794  0.67059  1.0000
  C   C701      1.0  0.45297  0.31768  0.66039  1.0000
  C   C702      1.0  0.43255  0.38440  0.59362  1.0000
  C   C703      1.0  0.44427  0.38654  0.55664  1.0000
  C   C704      1.0  0.47641  0.39054  0.55050  1.0000
  C   C705      1.0  0.49696  0.39195  0.58133  1.0000
  C   C706      1.0  0.48544  0.38933  0.61833  1.0000
  C   C707      1.0  0.39666  0.38028  0.67372  1.0000
  C   C708      1.0  0.37993  0.35441  0.68780  1.0000
  H   H560      1.0  0.49191  0.48020  0.70731  1.0000
  H   H561      1.0  0.48335  0.25956  0.71533  1.0000
  C   C709      1.0  0.36765  0.41499  0.51187  1.0000
  C   C710      1.0  0.38021  0.40718  0.66233  1.0000
  H   H562      1.0  0.62381  0.47841  0.88654  1.0000
  C   C711      1.0  0.49346  0.11726  0.56041  1.0000
  C   C712      1.0  0.63362  0.46104  0.94335  1.0000
  H   H563      1.0  0.34983  0.09942  0.53903  1.0000
  C   C713      1.0  0.56023  0.06434  0.93304  1.0000
  C   C714      1.0  0.59351  0.18211  0.88240  1.0000
  H   H564      1.0  0.64187  0.34601  0.78626  1.0000
  H   H565      1.0  0.63386  0.13759  0.80732  1.0000
  C   C715      1.0  0.37102  0.14559  0.54255  1.0000
  C   C716      1.0  0.36779  0.20056  0.65267  1.0000
  H   H566      1.0  0.38559  0.19421  0.53970  1.0000
  H   H567      1.0  0.58850  0.42858  0.71882  1.0000
  C   C717      1.0  0.63681  0.11333  0.86064  1.0000
  C   C718      1.0  0.34719  0.35536  0.68997  1.0000
  H   H568      1.0  0.50697  0.04961  0.72713  1.0000
  H   H569      1.0  0.39368  0.23023  0.69083  1.0000
  P   P26       1.0  0.62555  0.02246  0.79130  1.0000
  H   H570      1.0  0.59848  0.10218  0.68758  1.0000
  C   C719      1.0  0.61500  0.02927  0.71271  1.0000
  C   C720      1.0  0.34363  0.40362  0.53540  1.0000
  C   C721      1.0  0.34473  0.18589  0.50552  1.0000
  Fe  Fe48      1.0  0.48394  0.49470  0.95097  1.0000
  C   C722      1.0  0.34746  0.40803  0.66462  1.0000
  H   H571      1.0  0.60795  0.03179  0.65214  1.0000
  C   C723      1.0  0.65087  0.41681  0.88105  1.0000
  C   C724      1.0  0.50916  0.06402  0.75240  1.0000
  C   C725      1.0  0.48297  0.06910  0.77538  1.0000
  H   H572      1.0  0.52692  0.41101  0.96771  1.0000
  H   H573      1.0  0.62161  0.42467  0.79106  1.0000
  H   H574      1.0  0.37762  0.48745  0.55034  1.0000
  H   H575      1.0  0.63948  0.08330  0.90951  1.0000
  C   C726      1.0  0.63313  0.12082  0.60373  1.0000
  C   C727      1.0  0.63701  0.02931  0.74244  1.0000
  C   C728      1.0  0.33368  0.42191  0.56629  1.0000
  H   H576      1.0  0.51979  0.02408  0.85063  1.0000
  C   C729      1.0  0.63605  0.46969  0.98178  1.0000
  H   H577      1.0  0.40206  0.31821  0.97819  1.0000
  H   H578      1.0  0.39730  0.45417  0.49792  1.0000
  C   C730      1.0  0.61287  0.09554  0.49451  1.0000
  C   C731      1.0  0.64659  0.11727  0.68139  1.0000
  C   C732      1.0  0.34584  0.45212  0.57164  1.0000
  C   C733      1.0  0.62637  0.48410  0.91621  1.0000
  C   C734      1.0  0.66081  0.37472  0.98059  1.0000
  H   H579      1.0  0.53922  0.03691  0.97785  1.0000
  H   H580      1.0  0.33761  0.46661  0.59486  1.0000
  H   H581      1.0  0.41892  0.48512  0.68223  1.0000
  C   C735      1.0  0.33094  0.38206  0.67827  1.0000
  H   H582      1.0  0.33491  0.42896  0.65627  1.0000
  C   C736      1.0  0.50887  0.55436  0.33610  1.0000
  H   H583      1.0  0.61217  0.97537  0.09062  1.0000
  Fe  Fe49      1.0  0.59735  0.77790  0.30439  1.0000
  S   S97       1.0  0.58857  0.73214  0.27461  1.0000
  S   S98       1.0  0.55998  0.81581  0.29131  1.0000
  Fe  Fe50      1.0  0.59275  0.70792  0.33122  1.0000
  S   S99       1.0  0.55322  0.67498  0.35139  1.0000
  H   H584      1.0  0.59617  0.82705  0.45569  1.0000
  S   S100      1.0  0.59869  0.75381  0.36178  1.0000
  C   C737      1.0  0.35956  0.74773  0.41561  1.0000
  Fe  Fe51      1.0  0.45284  0.97473  0.10865  1.0000
  C   C738      1.0  0.33444  0.98674  0.11100  1.0000
  S   S101      1.0  0.41607  0.93962  0.08615  1.0000
  Fe  Fe52      1.0  0.50720  0.97351  0.16664  1.0000
  S   S102      1.0  0.54516  0.94459  0.19800  1.0000
  S   S103      1.0  0.50561  0.96902  0.10277  1.0000
  Fe  Fe53      1.0  0.47970  0.54264  0.01670  1.0000
  H   H585      1.0  0.38772  0.66198  0.33692  1.0000
  S   S104      1.0  0.45059  0.57868  0.05053  1.0000
  H   H586      1.0  0.57669  0.53929  0.22150  1.0000
  S   S105      1.0  0.54516  0.54316  0.43824  1.0000
  S   S106      1.0  0.53255  0.54477  0.02234  1.0000
  C   C739      1.0  0.55265  0.63970  0.37868  1.0000
  C   C740      1.0  0.52461  0.63064  0.39682  1.0000
  C   C741      1.0  0.52231  0.60191  0.41664  1.0000
  C   C742      1.0  0.54781  0.58134  0.41764  1.0000
  C   C743      1.0  0.57592  0.59049  0.39969  1.0000
  C   C744      1.0  0.57851  0.61964  0.38085  1.0000
  H   H587      1.0  0.50457  0.64605  0.39551  1.0000
  H   H588      1.0  0.50067  0.59532  0.43047  1.0000
  H   H589      1.0  0.59585  0.57485  0.40033  1.0000
  H   H590      1.0  0.60028  0.62635  0.36740  1.0000
  C   C745      1.0  0.54844  0.90675  0.21990  1.0000
  C   C746      1.0  0.57853  0.89446  0.22738  1.0000
  C   C747      1.0  0.58255  0.86602  0.24752  1.0000
  C   C748      1.0  0.55646  0.84953  0.26113  1.0000
  C   C749      1.0  0.52634  0.86148  0.25299  1.0000
  C   C750      1.0  0.52231  0.88967  0.23235  1.0000
  H   H591      1.0  0.59899  0.90736  0.21810  1.0000
  H   H592      1.0  0.60589  0.85747  0.25363  1.0000
  H   H593      1.0  0.50592  0.84918  0.26351  1.0000
  H   H594      1.0  0.49904  0.89878  0.22729  1.0000
  Fe  Fe54      1.0  0.65060  0.74721  0.35212  1.0000
  H   H595      1.0  0.34443  0.73474  0.39649  1.0000
  C   C751      1.0  0.36405  0.91575  0.04903  1.0000
  C   C752      1.0  0.38428  0.94172  0.05291  1.0000
  C   C753      1.0  0.37879  0.96806  0.03013  1.0000
  H   H596      1.0  0.61662  0.91607  0.99256  1.0000
  C   C754      1.0  0.41743  0.65984  0.22235  1.0000
  H   H597      1.0  0.36811  0.89519  0.06621  1.0000
  H   H598      1.0  0.46302  0.53361  0.10924  1.0000
  C   C755      1.0  0.42433  0.94910  0.32243  1.0000
  C   C756      1.0  0.35559  0.58097  0.11468  1.0000
  C   C757      1.0  0.37205  0.60860  0.10661  1.0000
  C   C758      1.0  0.40109  0.60736  0.08727  1.0000
  C   C759      1.0  0.41386  0.57864  0.07499  1.0000
  C   C760      1.0  0.39715  0.55109  0.08247  1.0000
  C   C761      1.0  0.36844  0.55228  0.10248  1.0000
  H   H599      1.0  0.41377  0.62885  0.08174  1.0000
  H   H600      1.0  0.40644  0.52880  0.07320  1.0000
  C   C762      1.0  0.39530  0.67088  0.43663  1.0000
  C   C763      1.0  0.48092  0.55072  0.35625  1.0000
  C   C764      1.0  0.47977  0.57314  0.28126  1.0000
  C   C765      1.0  0.57161  0.51844  0.20512  1.0000
  C   C766      1.0  0.50439  0.73494  0.38080  1.0000
  C   C767      1.0  0.47480  0.72333  0.39064  1.0000
  C   C768      1.0  0.33365  0.94204  0.99959  1.0000
  C   C769      1.0  0.63199  0.50091  0.99266  1.0000
  H   H601      1.0  0.46508  0.57960  0.15135  1.0000
  C   C770      1.0  0.44425  0.85215  0.43256  1.0000
  C   C771      1.0  0.52528  0.63039  0.25351  1.0000
  H   H602      1.0  0.64708  0.49705  0.12383  1.0000
  H   H603      1.0  0.49335  0.98737  0.34784  1.0000
  H   H604      1.0  0.37629  0.58693  0.01278  1.0000
  C   C772      1.0  0.62827  0.93202  0.01192  1.0000
  C   C773      1.0  0.62233  0.57137  0.30060  1.0000
  C   C774      1.0  0.36232  0.88519  0.24603  1.0000
  C   C775      1.0  0.43471  0.65627  0.39036  1.0000
  C   C776      1.0  0.41392  0.67870  0.40507  1.0000
  H   H605      1.0  0.35946  0.97358  0.21571  1.0000
  P   P27       1.0  0.40990  0.71637  0.38196  1.0000
  C   C777      1.0  0.44827  0.73122  0.36890  1.0000
  C   C778      1.0  0.48160  0.76288  0.32784  1.0000
  C   C779      1.0  0.45195  0.75125  0.33747  1.0000
  C   C780      1.0  0.38532  0.71275  0.34022  1.0000
  C   C781      1.0  0.37858  0.68322  0.32447  1.0000
  S   S107      1.0  0.66064  0.71435  0.21234  1.0000
  C   C782      1.0  0.34696  0.70767  0.27559  1.0000
  C   C783      1.0  0.35348  0.73709  0.29108  1.0000
  C   C784      1.0  0.37229  0.73965  0.32345  1.0000
  C   C785      1.0  0.41099  0.76043  0.44079  1.0000
  C   C786      1.0  0.53071  0.96281  0.32004  1.0000
  Fe  Fe55      1.0  0.64110  0.72863  0.27001  1.0000
  H   H606      1.0  0.44890  0.66154  0.36562  1.0000
  H   H607      1.0  0.40960  0.98689  0.41377  1.0000
  H   H608      1.0  0.48450  0.77821  0.30351  1.0000
  H   H609      1.0  0.43219  0.75800  0.32017  1.0000
  H   H610      1.0  0.57996  0.54456  0.30434  1.0000
  S   S108      1.0  0.65020  0.77545  0.29754  1.0000
  C   C787      1.0  0.35192  0.97718  0.18667  1.0000
  C   C788      1.0  0.33724  0.87028  0.13598  1.0000
  H   H611      1.0  0.37647  0.76265  0.33546  1.0000
  C   C789      1.0  0.39370  0.93228  0.37663  1.0000
  C   C790      1.0  0.62572  0.96501  0.06783  1.0000
  C   C791      1.0  0.34596  0.76863  0.44131  1.0000
  C   C792      1.0  0.35926  0.68076  0.29246  1.0000
  H   H612      1.0  0.52492  0.72817  0.39706  1.0000
  C   C793      1.0  0.41658  0.59489  0.21211  1.0000
  H   H613      1.0  0.36879  0.99043  0.47902  1.0000
  H   H614      1.0  0.37857  0.68739  0.44810  1.0000
  C   C794      1.0  0.43217  0.99431  0.42459  1.0000
  C   C795      1.0  0.65105  0.76398  0.07046  1.0000
  C   C796      1.0  0.63197  0.79019  0.07740  1.0000
  C   C797      1.0  0.61633  0.80448  0.04681  1.0000
  P   P28       1.0  0.62672  0.80416  0.12548  1.0000
  C   C798      1.0  0.59893  0.77940  0.15026  1.0000
  C   C799      1.0  0.47067  0.88210  0.48144  1.0000
  C   C800      1.0  0.61709  0.51784  0.27764  1.0000
  S   S109      1.0  0.45455  0.97680  0.17278  1.0000
  H   H615      1.0  0.38384  0.63543  0.47821  1.0000
  H   H616      1.0  0.34719  0.94108  0.29876  1.0000
  C   C801      1.0  0.48368  0.49691  0.19117  1.0000
  C   C802      1.0  0.59438  0.74805  0.13930  1.0000
  C   C803      1.0  0.57196  0.72947  0.15762  1.0000
  C   C804      1.0  0.55389  0.74200  0.18696  1.0000
  C   C805      1.0  0.55854  0.77300  0.19839  1.0000
  C   C806      1.0  0.58119  0.79153  0.18048  1.0000
  C   C807      1.0  0.61203  0.84391  0.12478  1.0000
  C   C808      1.0  0.63251  0.86947  0.12924  1.0000
  C   C809      1.0  0.62076  0.90004  0.13015  1.0000
  C   C810      1.0  0.58856  0.90532  0.12646  1.0000
  C   C811      1.0  0.56809  0.88009  0.12145  1.0000
  C   C812      1.0  0.57974  0.84950  0.12036  1.0000
  H   H617      1.0  0.43618  0.75742  0.44127  1.0000
  C   C813      1.0  0.55979  0.52181  0.16826  1.0000
  H   H618      1.0  0.60020  0.50173  0.08210  1.0000
  H   H619      1.0  0.60809  0.80398  0.98623  1.0000
  H   H620      1.0  0.60122  0.82447  0.05124  1.0000
  H   H621      1.0  0.39403  0.98824  0.03261  1.0000
  H   H622      1.0  0.35337  0.65793  0.28098  1.0000
  H   H623      1.0  0.39187  0.92572  0.40629  1.0000
  C   C814      1.0  0.36468  0.78532  0.46681  1.0000
  C   C815      1.0  0.35375  0.96813  0.00366  1.0000
  H   H624      1.0  0.60807  0.73770  0.11680  1.0000
  H   H625      1.0  0.56871  0.70530  0.14914  1.0000
  H   H626      1.0  0.53668  0.72756  0.20136  1.0000
  H   H627      1.0  0.54492  0.78259  0.22161  1.0000
  H   H628      1.0  0.58473  0.81533  0.19029  1.0000
  H   H629      1.0  0.33166  0.70567  0.25107  1.0000
  H   H630      1.0  0.63653  0.91963  0.13441  1.0000
  H   H631      1.0  0.57931  0.92892  0.12816  1.0000
  H   H632      1.0  0.54306  0.88430  0.11929  1.0000
  H   H633      1.0  0.56346  0.83021  0.11670  1.0000
  C   C816      1.0  0.56711  0.64849  0.21241  1.0000
  H   H634      1.0  0.53098  0.54877  0.34972  1.0000
  H   H635      1.0  0.34337  0.75791  0.27844  1.0000
  C   C817      1.0  0.46987  0.90869  0.45828  1.0000
  C   C818      1.0  0.39228  0.74374  0.41483  1.0000
  H   H636      1.0  0.44082  0.87477  0.25928  1.0000
  C   C819      1.0  0.45928  0.97647  0.41800  1.0000
  Fe  Fe56      1.0  0.50894  0.51849  0.47660  1.0000
  H   H637      1.0  0.56047  0.66403  0.27004  1.0000
  C   C820      1.0  0.41915  0.88267  0.24634  1.0000
  C   C821      1.0  0.65357  0.57205  0.28863  1.0000
  C   C822      1.0  0.45232  0.55803  0.33896  1.0000
  C   C823      1.0  0.42004  0.90031  0.21293  1.0000
  H   H638      1.0  0.38948  0.86118  0.28858  1.0000
  H   H639      1.0  0.61206  0.59186  0.31379  1.0000
  C   C824      1.0  0.33886  0.91591  0.02283  1.0000
  H   H640      1.0  0.58769  0.66306  0.20788  1.0000
  H   H641      1.0  0.36273  0.63085  0.11595  1.0000
  H   H642      1.0  0.36914  0.65853  0.20385  1.0000
  C   C825      1.0  0.39712  0.94947  0.30015  1.0000
  C   C826      1.0  0.39006  0.64497  0.20985  1.0000
  H   H643      1.0  0.41766  0.68502  0.22632  1.0000
  C   C827      1.0  0.61116  0.94478  0.04203  1.0000
  H   H644      1.0  0.49187  0.51924  0.24464  1.0000
  H   H645      1.0  0.62769  0.77922  0.44332  1.0000
  H   H646      1.0  0.35603  0.53072  0.10856  1.0000
  H   H647      1.0  0.51372  0.63151  0.28090  1.0000
  H   H648      1.0  0.41560  0.56976  0.20801  1.0000
  C   C828      1.0  0.48557  0.52293  0.21524  1.0000
  H   H649      1.0  0.63367  0.50740  0.02231  1.0000
  C   C829      1.0  0.45169  0.56922  0.30157  1.0000
  C   C830      1.0  0.44360  0.87867  0.40922  1.0000
  C   C831      1.0  0.45617  0.90725  0.42204  1.0000
  H   H650      1.0  0.47959  0.93030  0.46924  1.0000
  P   P29       1.0  0.45758  0.94065  0.39051  1.0000
  C   C832      1.0  0.49235  0.93795  0.36136  1.0000
  C   C833      1.0  0.42279  0.94072  0.36099  1.0000
  H   H651      1.0  0.40017  0.65484  0.00861  1.0000
  H   H652      1.0  0.43433  0.83029  0.42253  1.0000
  H   H653      1.0  0.45345  0.60967  0.39599  1.0000
  C   C834      1.0  0.36302  0.90332  0.21270  1.0000
  C   C835      1.0  0.43732  0.62679  0.40746  1.0000
  C   C836      1.0  0.50440  0.96486  0.34361  1.0000
  C   C837      1.0  0.39717  0.78113  0.46669  1.0000
  C   C838      1.0  0.54555  0.93401  0.31466  1.0000
  C   C839      1.0  0.53408  0.90723  0.33278  1.0000
  C   C840      1.0  0.50743  0.90907  0.35577  1.0000
  C   C841      1.0  0.36825  0.94110  0.31603  1.0000
  H   H654      1.0  0.65000  0.95097  0.48223  1.0000
  H   H655      1.0  0.47282  0.70810  0.41512  1.0000
  C   C842      1.0  0.38959  0.61251  0.20505  1.0000
  H   H656      1.0  0.33074  0.62180  0.01731  1.0000
  H   H657      1.0  0.54432  0.49790  0.11756  1.0000
  H   H658      1.0  0.48160  0.54229  0.38533  1.0000
  H   H659      1.0  0.34439  0.92534  0.36651  1.0000
  H   H660      1.0  0.43352  0.87678  0.38106  1.0000
  H   H661      1.0  0.65748  0.86595  0.13260  1.0000
  H   H662      1.0  0.58649  0.93913  0.04530  1.0000
  C   C843      1.0  0.39215  0.91053  0.19609  1.0000
  H   H663      1.0  0.64439  0.79690  0.20590  1.0000
  S   S110      1.0  0.64451  0.70015  0.32366  1.0000
  C   C844      1.0  0.65448  0.75236  0.03356  1.0000
  H   H664      1.0  0.42144  0.59663  0.45283  1.0000
  C   C845      1.0  0.55181  0.64904  0.24745  1.0000
  H   H665      1.0  0.56582  0.93236  0.29618  1.0000
  H   H666      1.0  0.54568  0.88489  0.32862  1.0000
  H   H667      1.0  0.49886  0.88785  0.36896  1.0000
  C   C846      1.0  0.48800  0.98660  0.43343  1.0000
  H   H668      1.0  0.50916  0.97302  0.42925  1.0000
  H   H669      1.0  0.36199  0.87246  0.14230  1.0000
  C   C847      1.0  0.55575  0.62932  0.18326  1.0000
  C   C848      1.0  0.51397  0.61061  0.22457  1.0000
  C   C849      1.0  0.52923  0.61055  0.18920  1.0000
  P   P30       1.0  0.47937  0.58679  0.23263  1.0000
  C   C850      1.0  0.62002  0.79291  0.00989  1.0000
  C   C851      1.0  0.44441  0.60968  0.22402  1.0000
  C   C852      1.0  0.44453  0.64229  0.22948  1.0000
  H   H670      1.0  0.44234  0.90590  0.19973  1.0000
  H   H671      1.0  0.36831  0.60097  0.19544  1.0000
  C   C853      1.0  0.65752  0.97230  0.06377  1.0000
  H   H672      1.0  0.39344  0.92373  0.16976  1.0000
  H   H673      1.0  0.44641  0.95532  0.30934  1.0000
  C   C854      1.0  0.50835  0.56531  0.29871  1.0000
  C   C855      1.0  0.47899  0.55311  0.20132  1.0000
  S   S111      1.0  0.45777  0.51040  0.46330  1.0000
  C   C856      1.0  0.47558  0.50078  0.15300  1.0000
  C   C857      1.0  0.63897  0.76681  0.00330  1.0000
  H   H674      1.0  0.42930  0.57462  0.28863  1.0000
  C   C858      1.0  0.47073  0.55671  0.16288  1.0000
  H   H675      1.0  0.56746  0.62911  0.15593  1.0000
  H   H676      1.0  0.52079  0.59620  0.16604  1.0000
  H   H677      1.0  0.46546  0.65430  0.23902  1.0000
  H   H678      1.0  0.55599  0.54492  0.15643  1.0000
  C   C859      1.0  0.39029  0.87502  0.26278  1.0000
  H   H679      1.0  0.43063  0.55501  0.35460  1.0000
  S   S112      1.0  0.33288  0.93872  0.44992  1.0000
  C   C860      1.0  0.45780  0.85387  0.46867  1.0000
  H   H680      1.0  0.53023  0.56771  0.28345  1.0000
  C   C861      1.0  0.63329  0.79429  0.46721  1.0000
  H   H681      1.0  0.39852  0.95588  0.27042  1.0000
  C   C862      1.0  0.60417  0.54441  0.29521  1.0000
  H   H682      1.0  0.53078  0.76340  0.34153  1.0000
  C   C863      1.0  0.50780  0.75464  0.34940  1.0000
  H   H683      1.0  0.34515  0.83614  0.09193  1.0000
  C   C864      1.0  0.36664  0.93226  0.35417  1.0000
  C   C865      1.0  0.41923  0.61942  0.43934  1.0000
  C   C866      1.0  0.66010  0.93968  0.00723  1.0000
  C   C867      1.0  0.36614  0.94003  0.48072  1.0000
  H   H684      1.0  0.34038  0.87870  0.25933  1.0000
  C   C868      1.0  0.46929  0.53066  0.13887  1.0000
  C   C869      1.0  0.39812  0.64140  0.45377  1.0000
  H   H685      1.0  0.53959  0.98347  0.30570  1.0000
  C   C870      1.0  0.61571  0.82132  0.47411  1.0000
  C   C871      1.0  0.33526  0.95368  0.16723  1.0000
  C   C872      1.0  0.64847  0.51879  0.26546  1.0000
  C   C873      1.0  0.33456  0.60908  0.99119  1.0000
  H   H686      1.0  0.66057  0.86098  0.99637  1.0000
  H   H687      1.0  0.35007  0.98849  0.98594  1.0000
  H   H688      1.0  0.65893  0.49896  0.25113  1.0000
  H   H689      1.0  0.44729  0.62478  0.98986  1.0000
  C   C874      1.0  0.36043  0.58908  0.98890  1.0000
  H   H690      1.0  0.64174  0.75785  0.97463  1.0000
  H   H691      1.0  0.39296  0.68950  0.82778  1.0000
  Fe  Fe57      1.0  0.61132  0.80610  0.79426  1.0000
  S   S113      1.0  0.61805  0.76432  0.75663  1.0000
  S   S114      1.0  0.57372  0.84222  0.77872  1.0000
  Fe  Fe58      1.0  0.61765  0.73425  0.80953  1.0000
  S   S115      1.0  0.58514  0.69106  0.81104  1.0000
  H   H692      1.0  0.34001  0.59758  0.76953  1.0000
  S   S116      1.0  0.60706  0.77576  0.84647  1.0000
  H   H693      1.0  0.51525  0.70913  0.86965  1.0000
  C   C875      1.0  0.44771  0.51734  0.65052  1.0000
  C   C876      1.0  0.62207  0.51526  0.92734  1.0000
  S   S117      1.0  0.45677  0.94546  0.55322  1.0000
  H   H694      1.0  0.59879  0.93731  0.87448  1.0000
  S   S118      1.0  0.57919  0.96335  0.67174  1.0000
  H   H695      1.0  0.48065  0.88378  0.50973  1.0000
  Fe  Fe59      1.0  0.44950  0.52252  0.52515  1.0000
  H   H696      1.0  0.41159  0.79394  0.48674  1.0000
  S   S119      1.0  0.41076  0.55904  0.53555  1.0000
  H   H697      1.0  0.66226  0.89573  0.49684  1.0000
  S   S120      1.0  0.57064  0.58207  0.93559  1.0000
  S   S121      1.0  0.50048  0.53307  0.53725  1.0000
  C   C877      1.0  0.58053  0.66202  0.84726  1.0000
  C   C878      1.0  0.55449  0.64159  0.84603  1.0000
  C   C879      1.0  0.55044  0.61770  0.87344  1.0000
  C   C880      1.0  0.57288  0.61337  0.90201  1.0000
  C   C881      1.0  0.59893  0.63371  0.90316  1.0000
  C   C882      1.0  0.60260  0.65805  0.87630  1.0000
  H   H698      1.0  0.53725  0.64432  0.82381  1.0000
  H   H699      1.0  0.53036  0.60227  0.87214  1.0000
  H   H700      1.0  0.61651  0.63058  0.92501  1.0000
  H   H701      1.0  0.62284  0.67333  0.87764  1.0000
  C   C883      1.0  0.57711  0.92863  0.69969  1.0000
  C   C884      1.0  0.60439  0.91821  0.71826  1.0000
  C   C885      1.0  0.60409  0.89116  0.74134  1.0000
  C   C886      1.0  0.57609  0.87470  0.74711  1.0000
  C   C887      1.0  0.54861  0.88555  0.72921  1.0000
  C   C888      1.0  0.54915  0.91208  0.70521  1.0000
  H   H702      1.0  0.62578  0.93159  0.71527  1.0000
  H   H703      1.0  0.62525  0.88355  0.75554  1.0000
  H   H704      1.0  0.52672  0.87327  0.73388  1.0000
  H   H705      1.0  0.52784  0.91998  0.69154  1.0000
  C   C889      1.0  0.39306  0.63892  0.82255  1.0000
  C   C890      1.0  0.33739  0.59619  0.59501  1.0000
  C   C891      1.0  0.40721  0.91517  0.51825  1.0000
  C   C892      1.0  0.42100  0.94439  0.52673  1.0000
  H   H706      1.0  0.35383  0.80145  0.48669  1.0000
  C   C893      1.0  0.49947  0.69796  0.84959  1.0000
  C   C894      1.0  0.63711  0.84503  0.60757  1.0000
  H   H707      1.0  0.41776  0.89403  0.52927  1.0000
  C   C895      1.0  0.48300  0.62251  0.53702  1.0000
  H   H708      1.0  0.34574  0.69679  0.78799  1.0000
  H   H709      1.0  0.52962  0.61006  0.55492  1.0000
  H   H710      1.0  0.63989  0.78988  0.67765  1.0000
  C   C896      1.0  0.36140  0.59087  0.56814  1.0000
  C   C897      1.0  0.38129  0.56463  0.57087  1.0000
  C   C898      1.0  0.37698  0.54384  0.60116  1.0000
  C   C899      1.0  0.35295  0.54911  0.62802  1.0000
  H   H711      1.0  0.36447  0.60714  0.54489  1.0000
  H   H712      1.0  0.39209  0.52367  0.60384  1.0000
  C   C900      1.0  0.43734  0.53940  0.86413  1.0000
  C   C901      1.0  0.41819  0.64071  0.90154  1.0000
  C   C902      1.0  0.47649  0.67705  0.86239  1.0000
  H   H713      1.0  0.66120  0.91319  0.81220  1.0000
  H   H714      1.0  0.34446  0.79623  0.71115  1.0000
  C   C903      1.0  0.59103  0.84779  0.64814  1.0000
  H   H715      1.0  0.40370  0.57438  0.87953  1.0000
  H   H716      1.0  0.45688  0.49952  0.63157  1.0000
  H   H717      1.0  0.45913  0.61583  0.92235  1.0000
  H   H718      1.0  0.40662  0.77053  0.62186  1.0000
  H   H719      1.0  0.34991  0.53287  0.65131  1.0000
  C   C904      1.0  0.64522  0.96063  0.80421  1.0000
  C   C905      1.0  0.40667  0.97150  0.51276  1.0000
  C   C906      1.0  0.46632  0.53332  0.84723  1.0000
  C   C907      1.0  0.61561  0.92100  0.88636  1.0000
  H   H720      1.0  0.59768  0.87641  0.59890  1.0000
  C   C908      1.0  0.46067  0.66741  0.79725  1.0000
  C   C909      1.0  0.45664  0.66190  0.83630  1.0000
  P   P31       1.0  0.65941  0.85909  0.56731  1.0000
  C   C910      1.0  0.48347  0.55781  0.83089  1.0000
  C   C911      1.0  0.37944  0.96929  0.48996  1.0000
  H   H721      1.0  0.56882  0.85856  0.65540  1.0000
  C   C912      1.0  0.36591  0.57171  0.95600  1.0000
  H   H722      1.0  0.40445  0.70664  0.71818  1.0000
  Fe  Fe60      1.0  0.53354  0.54756  0.95826  1.0000
  H   H723      1.0  0.48557  0.60712  0.81950  1.0000
  H   H724      1.0  0.47470  0.67265  0.89256  1.0000
  H   H725      1.0  0.62101  0.54774  0.97412  1.0000
  H   H726      1.0  0.37524  0.66670  0.89153  1.0000
  H   H727      1.0  0.61591  0.53299  0.90654  1.0000
  C   C913      1.0  0.48369  0.68835  0.78461  1.0000
  H   H728      1.0  0.39870  0.52583  0.72599  1.0000
  P   P32       1.0  0.42752  0.63398  0.85203  1.0000
  S   S122      1.0  0.53916  0.98387  0.57533  1.0000
  C   C914      1.0  0.33984  0.64759  0.77667  1.0000
  C   C915      1.0  0.39134  0.65753  0.91241  1.0000
  H   H729      1.0  0.58662  0.97638  0.75124  1.0000
  C   C916      1.0  0.37808  0.61308  0.80555  1.0000
  H   H730      1.0  0.49793  0.98348  0.80758  1.0000
  H   H731      1.0  0.45020  0.67459  0.70089  1.0000
  H   H732      1.0  0.58996  0.81572  0.69542  1.0000
  H   H733      1.0  0.38955  0.71505  0.61584  1.0000
  C   C917      1.0  0.38150  0.66918  0.81553  1.0000
  H   H734      1.0  0.62811  0.96764  0.59964  1.0000
  H   H735      1.0  0.56097  0.64446  0.75635  1.0000
  Fe  Fe61      1.0  0.54028  0.98870  0.63901  1.0000
  C   C918      1.0  0.45686  0.54858  0.64584  1.0000
  H   H736      1.0  0.36793  0.81183  0.63606  1.0000
  C   C919      1.0  0.41510  0.53218  0.70379  1.0000
  H   H737      1.0  0.38600  0.55618  0.95461  1.0000
  C   C920      1.0  0.35486  0.67343  0.79294  1.0000
  C   C921      1.0  0.52219  0.99081  0.80479  1.0000
  C   C922      1.0  0.44260  0.59460  0.84869  1.0000
  H   H738      1.0  0.38672  0.58954  0.80953  1.0000
  H   H739      1.0  0.50173  0.66378  0.66065  1.0000
  H   H740      1.0  0.54724  0.67744  0.70110  1.0000
  C   C923      1.0  0.42571  0.56992  0.86528  1.0000
  C   C924      1.0  0.42452  0.56339  0.69949  1.0000
  C   C925      1.0  0.63856  0.86923  0.88781  1.0000
  H   H741      1.0  0.63473  0.95448  0.92574  1.0000
  C   C926      1.0  0.60285  0.82356  0.67059  1.0000
  C   C927      1.0  0.40520  0.65109  0.97877  1.0000
  S   S123      1.0  0.48090  0.54782  0.95292  1.0000
  C   C928      1.0  0.62493  0.52366  0.96551  1.0000
  C   C929      1.0  0.50301  0.70366  0.81077  1.0000
  C   C930      1.0  0.64783  0.94241  0.51111  1.0000
  C   C931      1.0  0.34517  0.57398  0.92538  1.0000
  H   H742      1.0  0.52919  0.59760  0.77164  1.0000
  C   C932      1.0  0.63112  0.80922  0.66078  1.0000
  C   C933      1.0  0.43824  0.62889  0.92984  1.0000
  H   H743      1.0  0.44624  0.65532  0.77658  1.0000
  C   C934      1.0  0.33290  0.57523  0.62511  1.0000
  H   H744      1.0  0.36424  0.67571  0.95923  1.0000
  H   H745      1.0  0.42427  0.52051  0.87732  1.0000
  C   C935      1.0  0.47162  0.58838  0.83147  1.0000
  C   C936      1.0  0.37256  0.73317  0.62218  1.0000
  H   H746      1.0  0.34889  0.55984  0.90025  1.0000
  H   H747      1.0  0.38838  0.60547  0.65157  1.0000
  H   H748      1.0  0.47570  0.50971  0.84772  1.0000
  C   C937      1.0  0.65748  0.90938  0.93123  1.0000
  C   C938      1.0  0.64294  0.92074  0.58580  1.0000
  H   H749      1.0  0.48700  0.69245  0.75456  1.0000
  H   H750      1.0  0.41962  0.62845  0.59474  1.0000
  H   H751      1.0  0.34365  0.80935  0.77929  1.0000
  C   C939      1.0  0.43173  0.63407  0.96821  1.0000
  H   H752      1.0  0.48321  0.58362  0.73224  1.0000
  C   C940      1.0  0.38496  0.66275  0.95090  1.0000
  C   C941      1.0  0.54113  0.97744  0.77686  1.0000
  H   H753      1.0  0.50632  0.55320  0.81868  1.0000
  C   C942      1.0  0.60776  0.85813  0.61637  1.0000
  C   C943      1.0  0.65814  0.78650  0.49127  1.0000
  H   H754      1.0  0.41697  0.99409  0.51887  1.0000
  H   H755      1.0  0.41536  0.58088  0.71879  1.0000
  H   H756      1.0  0.47286  0.55429  0.62300  1.0000
  H   H757      1.0  0.51560  0.60564  0.62260  1.0000
  H   H758      1.0  0.35064  0.68844  0.70266  1.0000
  H   H759      1.0  0.43416  0.63239  0.52745  1.0000
  C   C944      1.0  0.34098  0.72532  0.62693  1.0000
  C   C945      1.0  0.50583  0.61499  0.56398  1.0000
  C   C946      1.0  0.45210  0.62781  0.54848  1.0000
  C   C947      1.0  0.44394  0.62553  0.58687  1.0000
  C   C948      1.0  0.46680  0.61833  0.61424  1.0000
  C   C949      1.0  0.49777  0.61266  0.60239  1.0000
  P   P33       1.0  0.45593  0.61257  0.66341  1.0000
  C   C950      1.0  0.48895  0.62269  0.69340  1.0000
  C   C951      1.0  0.42282  0.63732  0.67516  1.0000
  C   C952      1.0  0.42705  0.66617  0.69375  1.0000
  C   C953      1.0  0.40111  0.68453  0.70358  1.0000
  C   C954      1.0  0.37079  0.67434  0.69478  1.0000
  C   C955      1.0  0.36639  0.64586  0.67599  1.0000
  C   C956      1.0  0.39225  0.62749  0.66612  1.0000
  C   C957      1.0  0.49679  0.60421  0.72505  1.0000
  C   C958      1.0  0.52276  0.61203  0.74755  1.0000
  C   C959      1.0  0.54084  0.63841  0.73888  1.0000
  C   C960      1.0  0.53307  0.65701  0.70765  1.0000
  C   C961      1.0  0.50729  0.64919  0.68492  1.0000
  C   C962      1.0  0.44509  0.57193  0.67007  1.0000
  C   C963      1.0  0.65131  0.89977  0.55674  1.0000
  H   H760      1.0  0.52137  0.71937  0.80101  1.0000
  C   C964      1.0  0.65458  0.91109  0.51948  1.0000
  H   H761      1.0  0.53159  0.95975  0.75797  1.0000
  H   H762      1.0  0.65721  0.89442  0.68170  1.0000
  C   C965      1.0  0.61680  0.89026  0.87268  1.0000
  C   C966      1.0  0.38017  0.91292  0.49516  1.0000
  C   C967      1.0  0.35157  0.61748  0.78270  1.0000
  H   H763      1.0  0.63936  0.84530  0.87743  1.0000
  H   H764      1.0  0.63236  0.98685  0.53317  1.0000
  H   H765      1.0  0.37040  0.89022  0.48829  1.0000
  H   H766      1.0  0.60088  0.88265  0.85035  1.0000
  H   H767      1.0  0.64146  0.91307  0.61505  1.0000
  C   C968      1.0  0.42649  0.50922  0.67913  1.0000
  C   C969      1.0  0.64922  0.83390  0.52795  1.0000
  C   C970      1.0  0.63578  0.95193  0.57726  1.0000
  C   C971      1.0  0.38215  0.76437  0.62561  1.0000
  C   C972      1.0  0.36015  0.78772  0.63365  1.0000
  Fe  Fe62      1.0  0.48624  0.98456  0.58102  1.0000
  C   C973      1.0  0.62338  0.84089  0.50467  1.0000
  S   S124      1.0  0.48785  0.98638  0.64511  1.0000
  H   H768      1.0  0.33053  0.91402  0.55246  1.0000
  C   C974      1.0  0.64821  0.81981  0.62939  1.0000
  H   H769      1.0  0.33350  0.70116  0.62401  1.0000
  C   C975      1.0  0.57238  0.98691  0.77307  1.0000
  H   H770      1.0  0.60927  0.86150  0.50994  1.0000
  C   C976      1.0  0.63598  0.93060  0.91537  1.0000
  H   H771      1.0  0.34288  0.63781  0.66930  1.0000
  Fe  Fe63      1.0  0.65953  0.78038  0.85175  1.0000
  H   H772      1.0  0.48912  0.62342  0.50714  1.0000
  H   H773      1.0  0.62366  0.95296  0.79103  1.0000
  C   C977      1.0  0.63808  0.96273  0.53989  1.0000
  C   C978      1.0  0.65899  0.87875  0.91671  1.0000
  H   H774      1.0  0.45829  0.83345  0.48690  1.0000
  C   C979      1.0  0.65189  0.99265  0.80930  1.0000
  S   S125      1.0  0.66273  0.81457  0.80323  1.0000
  Fe  Fe64      1.0  0.80149  0.11452  0.40805  1.0000
  S   S126      1.0  0.75105  0.11024  0.38978  1.0000
  S   S127      1.0  0.83391  0.07503  0.38669  1.0000
  Fe  Fe65      1.0  0.78478  0.17150  0.45935  1.0000
  S   S128      1.0  0.73381  0.17131  0.44269  1.0000
  S   S129      1.0  0.76410  0.17400  0.02906  1.0000
  Fe  Fe66      1.0  0.73670  0.11874  0.45070  1.0000
  C   C980      1.0  0.71415  0.10246  0.18437  1.0000
  Fe  Fe67      1.0  0.75267  0.16293  0.38333  1.0000
  S   S130      1.0  0.73950  0.18191  0.32473  1.0000
  C   C981      1.0  0.67667  0.16038  0.14447  1.0000
  S   S131      1.0  0.80359  0.16672  0.39959  1.0000
  Fe  Fe68      1.0  0.72985  0.34695  0.22017  1.0000
  S   S132      1.0  0.77199  0.33288  0.18612  1.0000
  S   S133      1.0  0.71715  0.32408  0.27659  1.0000
  Fe  Fe69      1.0  0.71307  0.40173  0.16594  1.0000
  S   S134      1.0  0.75511  0.39138  0.12970  1.0000
  H   H775      1.0  0.81436  0.30690  0.47315  1.0000
  Fe  Fe70      1.0  0.74059  0.34068  0.13529  1.0000
  S   S135      1.0  0.73028  0.31326  0.08095  1.0000
  Fe  Fe71      1.0  0.78238  0.38500  0.18440  1.0000
  S   S136      1.0  0.83261  0.40419  0.19264  1.0000
  S   S137      1.0  0.69749  0.35158  0.16982  1.0000
  S   S138      1.0  0.74130  0.39868  0.22039  1.0000
  H   H776      1.0  0.73900  0.41879  0.99969  1.0000
  H   H777      1.0  0.71923  0.03627  0.02321  1.0000
  S   S139      1.0  0.96437  0.06365  0.29679  1.0000
  H   H778      1.0  0.97069  0.13876  0.13750  1.0000
  H   H779      1.0  0.94075  0.34638  0.41795  1.0000
  H   H780      1.0  0.78680  0.24573  0.38229  1.0000
  C   C982      1.0  0.85243  0.42431  0.23037  1.0000
  C   C983      1.0  0.83632  0.43902  0.26006  1.0000
  C   C984      1.0  0.85284  0.45726  0.28706  1.0000
  C   C985      1.0  0.88573  0.46060  0.28546  1.0000
  C   C986      1.0  0.90192  0.44520  0.25639  1.0000
  C   C987      1.0  0.88535  0.42742  0.22898  1.0000
  H   H781      1.0  0.81109  0.43683  0.26185  1.0000
  C   C988      1.0  0.69368  0.14465  0.08165  1.0000
  H   H782      1.0  0.92714  0.44749  0.25451  1.0000
  H   H783      1.0  0.89813  0.41635  0.20610  1.0000
  C   C989      1.0  0.75422  0.21263  0.04346  1.0000
  C   C990      1.0  0.73647  0.23242  0.02023  1.0000
  C   C991      1.0  0.72924  0.26301  0.03238  1.0000
  C   C992      1.0  0.73954  0.27420  0.06786  1.0000
  C   C993      1.0  0.75686  0.25427  0.09142  1.0000
  C   C994      1.0  0.76422  0.22367  0.07917  1.0000
  H   H784      1.0  0.82886  0.18273  0.27360  1.0000
  H   H785      1.0  0.71587  0.27827  0.01395  1.0000
  H   H786      1.0  0.76493  0.26256  0.11877  1.0000
  H   H787      1.0  0.77792  0.20856  0.09737  1.0000
  C   C995      1.0  0.73699  0.22225  0.31271  1.0000
  C   C996      1.0  0.72916  0.24499  0.33966  1.0000
  C   C997      1.0  0.72440  0.27632  0.32838  1.0000
  C   C998      1.0  0.72757  0.28536  0.29016  1.0000
  C   C999      1.0  0.73686  0.26291  0.26350  1.0000
  C   C1000     1.0  0.74096  0.23143  0.27462  1.0000
  H   H788      1.0  0.72574  0.23827  0.36900  1.0000
  H   H789      1.0  0.71760  0.29354  0.34933  1.0000
  H   H790      1.0  0.73968  0.26955  0.23406  1.0000
  H   H791      1.0  0.74693  0.21403  0.25351  1.0000
  C   C1001     1.0  0.86886  0.07312  0.35873  1.0000
  C   C1002     1.0  0.88800  0.09926  0.35234  1.0000
  C   C1003     1.0  0.91678  0.09594  0.33281  1.0000
  C   C1004     1.0  0.92659  0.06668  0.31856  1.0000
  C   C1005     1.0  0.90687  0.04077  0.32370  1.0000
  C   C1006     1.0  0.87844  0.04395  0.34399  1.0000
  H   H792      1.0  0.88110  0.12185  0.36340  1.0000
  H   H793      1.0  0.93179  0.11618  0.32917  1.0000
  H   H794      1.0  0.91401  0.01808  0.31315  1.0000
  H   H795      1.0  0.86392  0.02352  0.34875  1.0000
  H   H796      1.0  0.91638  0.11988  0.13341  1.0000
  C   C1007     1.0  0.84181  0.02244  0.47085  1.0000
  C   C1008     1.0  0.71112  0.37815  0.01255  1.0000
  H   H797      1.0  0.88960  0.32363  0.40000  1.0000
  H   H798      1.0  0.69318  0.06088  0.20922  1.0000
  H   H799      1.0  0.97143  0.47760  0.17471  1.0000
  H   H800      1.0  0.92946  0.41827  0.33366  1.0000
  C   C1009     1.0  0.82604  0.31547  0.37769  1.0000
  C   C1010     1.0  0.81066  0.28810  0.36538  1.0000
  P   P34       1.0  0.84165  0.34320  0.34375  1.0000
  C   C1011     1.0  0.87936  0.35897  0.35748  1.0000
  C   C1012     1.0  0.84905  0.32450  0.29871  1.0000
  C   C1013     1.0  0.86435  0.29539  0.29770  1.0000
  C   C1014     1.0  0.87121  0.28115  0.26291  1.0000
  C   C1015     1.0  0.86341  0.29617  0.22892  1.0000
  C   C1016     1.0  0.84894  0.32549  0.22973  1.0000
  C   C1017     1.0  0.84179  0.33968  0.26446  1.0000
  H   H801      1.0  0.93263  0.07456  0.40965  1.0000
  H   H802      1.0  0.72867  0.22429  0.99269  1.0000
  H   H803      1.0  0.69284  0.18085  0.03908  1.0000
  C   C1018     1.0  0.71730  0.40640  0.99396  1.0000
  C   C1019     1.0  0.89149  0.38505  0.33805  1.0000
  C   C1020     1.0  0.81242  0.37351  0.33942  1.0000
  C   C1021     1.0  0.81711  0.40323  0.35566  1.0000
  C   C1022     1.0  0.79382  0.42616  0.35293  1.0000
  C   C1023     1.0  0.76550  0.41942  0.33462  1.0000
  C   C1024     1.0  0.76038  0.38967  0.31931  1.0000
  C   C1025     1.0  0.78370  0.36676  0.32168  1.0000
  H   H804      1.0  0.73619  0.46754  0.18821  1.0000
  C   C1026     1.0  0.68821  0.13716  0.11991  1.0000
  H   H805      1.0  0.79985  0.04114  0.44526  1.0000
  H   H806      1.0  0.67827  0.34057  0.02079  1.0000
  H   H807      1.0  0.80798  0.28297  0.33543  1.0000
  H   H808      1.0  0.87104  0.28377  0.32383  1.0000
  H   H809      1.0  0.88280  0.25860  0.26229  1.0000
  H   H810      1.0  0.86883  0.28531  0.20189  1.0000
  H   H811      1.0  0.84344  0.33742  0.20337  1.0000
  H   H812      1.0  0.83103  0.36264  0.26431  1.0000
  C   C1027     1.0  0.74700  0.48991  0.19455  1.0000
  C   C1028     1.0  0.81372  0.30158  0.44304  1.0000
  C   C1029     1.0  0.68294  0.36232  0.00586  1.0000
  H   H813      1.0  0.96753  0.13150  0.25916  1.0000
  H   H814      1.0  0.87834  0.39574  0.31511  1.0000
  H   H815      1.0  0.83855  0.40882  0.37067  1.0000
  H   H816      1.0  0.79774  0.44911  0.36519  1.0000
  H   H817      1.0  0.74740  0.43712  0.33256  1.0000
  H   H818      1.0  0.73823  0.38421  0.30569  1.0000
  H   H819      1.0  0.77924  0.34373  0.30982  1.0000
  S   S140      1.0  0.98320  0.02512  0.19944  1.0000
  H   H820      1.0  0.80293  0.14649  0.31862  1.0000
  H   H821      1.0  0.80778  0.08912  0.31010  1.0000
  H   H822      1.0  0.83694  0.06767  0.25581  1.0000
  H   H823      1.0  0.85883  0.46752  0.11374  1.0000
  H   H824      1.0  0.84440  0.47548  0.18077  1.0000
  C   C1030     1.0  0.77311  0.05734  0.08987  1.0000
  C   C1031     1.0  0.75363  0.07409  0.11451  1.0000
  H   H825      1.0  0.85916  0.16177  0.21926  1.0000
  C   C1032     1.0  0.99241  0.48748  0.08005  1.0000
  H   H826      1.0  0.92052  0.99855  0.23346  1.0000
  C   C1033     1.0  0.68800  0.17502  0.06844  1.0000
  H   H827      1.0  0.73965  0.14475  0.16932  1.0000
  P   P35       1.0  0.69585  0.09834  0.13810  1.0000
  H   H828      1.0  0.78985  0.25752  0.45112  1.0000
  C   C1034     1.0  0.74052  0.11132  0.25683  1.0000
  C   C1035     1.0  0.72147  0.08531  0.24971  1.0000
  C   C1036     1.0  0.93819  0.38394  0.37727  1.0000
  H   H829      1.0  0.79794  0.05535  0.09594  1.0000
  H   H830      1.0  0.76383  0.08492  0.13942  1.0000
  H   H831      1.0  0.90064  0.05719  0.46398  1.0000
  H   H832      1.0  0.70329  0.27850  0.17550  1.0000
  H   H833      1.0  0.83999  0.46892  0.30941  1.0000
  H   H834      1.0  0.77596  0.03119  0.03759  1.0000
  H   H835      1.0  0.79220  0.46968  0.20513  1.0000
  H   H836      1.0  0.74986  0.11533  0.28511  1.0000
  H   H837      1.0  0.71651  0.06890  0.27244  1.0000
  C   C1037     1.0  0.85296  0.00421  0.18258  1.0000
  C   C1038     1.0  0.70830  0.08086  0.21366  1.0000
  C   C1039     1.0  0.72877  0.04641  0.04899  1.0000
  C   C1040     1.0  0.86526  0.48663  0.16968  1.0000
  H   H838      1.0  0.90705  0.49103  0.08807  1.0000
  S   S141      1.0  0.96540  0.48931  0.40199  1.0000
  H   H839      1.0  0.83678  0.34428  0.42666  1.0000
  C   C1041     1.0  0.74710  0.13251  0.22769  1.0000
  C   C1042     1.0  0.67731  0.19818  0.09324  1.0000
  H   H840      1.0  0.67862  0.25665  0.23327  1.0000
  S   S142      1.0  0.78731  0.11962  0.46934  1.0000
  C   C1043     1.0  0.89904  0.04193  0.21605  1.0000
  C   C1044     1.0  0.87425  0.05598  0.19600  1.0000
  C   C1045     1.0  0.85077  0.03686  0.18012  1.0000
  P   P36       1.0  0.87123  0.09815  0.19261  1.0000
  C   C1046     1.0  0.91035  0.11479  0.19437  1.0000
  C   C1047     1.0  0.85210  0.10757  0.14799  1.0000
  C   C1048     1.0  0.82664  0.12847  0.14642  1.0000
  C   C1049     1.0  0.81233  0.13543  0.11161  1.0000
  C   C1050     1.0  0.82313  0.12154  0.07820  1.0000
  C   C1051     1.0  0.84798  0.10028  0.07955  1.0000
  C   C1052     1.0  0.86221  0.09307  0.11430  1.0000
  C   C1053     1.0  0.92514  0.11887  0.22969  1.0000
  C   C1054     1.0  0.95611  0.12956  0.23175  1.0000
  C   C1055     1.0  0.93395  0.05047  0.41921  1.0000
  C   C1056     1.0  0.95787  0.13335  0.16327  1.0000
  C   C1057     1.0  0.92691  0.12247  0.16111  1.0000
  C   C1058     1.0  0.84952  0.11320  0.23271  1.0000
  C   C1059     1.0  0.83512  0.09283  0.25879  1.0000
  C   C1060     1.0  0.81850  0.10489  0.28971  1.0000
  C   C1061     1.0  0.81607  0.13725  0.29481  1.0000
  C   C1062     1.0  0.83066  0.15765  0.26932  1.0000
  C   C1063     1.0  0.84764  0.14570  0.23859  1.0000
  C   C1064     1.0  0.97254  0.13669  0.19855  1.0000
  H   H841      1.0  0.91709  0.05587  0.22956  1.0000
  H   H842      1.0  0.83088  0.04712  0.16564  1.0000
  H   H843      1.0  0.81764  0.13950  0.17176  1.0000
  H   H844      1.0  0.79291  0.15180  0.11022  1.0000
  H   H845      1.0  0.81214  0.12728  0.05124  1.0000
  H   H846      1.0  0.85627  0.08949  0.05355  1.0000
  H   H847      1.0  0.88136  0.07640  0.11485  1.0000
  H   H848      1.0  0.91309  0.11276  0.25571  1.0000
  C   C1065     1.0  0.91570  0.04043  0.44986  1.0000
  C   C1066     1.0  0.90100  0.00931  0.21864  1.0000
  C   C1067     1.0  0.92059  0.39770  0.34825  1.0000
  H   H849      1.0  0.76177  0.15275  0.23349  1.0000
  C   C1068     1.0  0.91717  0.00916  0.46223  1.0000
  H   H850      1.0  0.72802  0.36862  0.03250  1.0000
  H   H851      1.0  0.68252  0.03186  0.15066  1.0000
  C   C1069     1.0  0.81163  0.03520  0.47163  1.0000
  C   C1070     1.0  0.82655  0.32254  0.41666  1.0000
  C   C1071     1.0  0.77872  0.49120  0.20406  1.0000
  C   C1072     1.0  0.72144  0.07686  0.10667  1.0000
  H   H852      1.0  0.68689  0.14823  0.28302  1.0000
  H   H853      1.0  0.67403  0.22192  0.08306  1.0000
  C   C1073     1.0  0.73427  0.12798  0.19151  1.0000
  H   H854      1.0  0.70281  0.12748  0.06196  1.0000
  C   C1074     1.0  0.79810  0.26710  0.39185  1.0000
  C   C1075     1.0  0.98464  0.47910  0.01260  1.0000
  C   C1076     1.0  0.92682  0.35728  0.39583  1.0000
  C   C1077     1.0  0.70918  0.06307  0.07355  1.0000
  S   S143      1.0  0.90495  0.48494  0.31977  1.0000
  C   C1078     1.0  0.79975  0.27376  0.43065  1.0000
  C   C1079     1.0  0.89762  0.34464  0.38581  1.0000
  Fe  Fe72      1.0  0.98979  0.02496  0.26300  1.0000
  C   C1080     1.0  0.76073  0.04360  0.05707  1.0000
  C   C1081     1.0  0.87352  0.48204  0.13176  1.0000
  H   H855      1.0  0.96769  0.03727  0.37661  1.0000
  C   C1082     1.0  0.95371  0.02944  0.40055  1.0000
  H   H856      1.0  0.68455  0.06552  0.06634  1.0000
  S   S144      1.0  0.68234  0.44452  0.15204  1.0000
  H   H857      1.0  0.96075  0.39385  0.38517  1.0000
  C   C1083     1.0  0.67144  0.19076  0.13121  1.0000
  H   H858      1.0  0.99072  0.46689  0.98661  1.0000
  H   H859      1.0  0.67216  0.15516  0.17405  1.0000
  H   H860      1.0  0.85282  0.01840  0.44354  1.0000
  C   C1084     1.0  0.95525  0.99830  0.41254  1.0000
  C   C1085     1.0  0.66577  0.15487  0.26782  1.0000
  H   H861      1.0  0.67042  0.20328  0.28288  1.0000
  C   C1086     1.0  0.67854  0.27254  0.17544  1.0000
  H   H862      1.0  0.67167  0.28706  0.11746  1.0000
  C   C1087     1.0  0.66450  0.26029  0.20811  1.0000
  C   C1088     1.0  0.90105  0.49534  0.11742  1.0000
  H   H863      1.0  0.66668  0.40549  0.21587  1.0000
  H   H864      1.0  0.66878  0.37399  0.27485  1.0000
  H   H865      1.0  0.66321  0.20861  0.15053  1.0000
  Fe  Fe73      1.0  0.76304  0.10426  0.91198  1.0000
  S   S145      1.0  0.71259  0.10088  0.89396  1.0000
  S   S146      1.0  0.79322  0.06965  0.87784  1.0000
  H   H866      1.0  0.74815  0.06727  0.57004  1.0000
  S   S147      1.0  0.69348  0.15043  0.96077  1.0000
  P   P37       1.0  0.89574  0.99702  0.50406  1.0000
  Fe  Fe74      1.0  0.69915  0.09824  0.95557  1.0000
  C   C1089     1.0  0.98987  0.21701  0.61806  1.0000
  Fe  Fe75      1.0  0.71093  0.15320  0.90027  1.0000
  S   S148      1.0  0.68547  0.17934  0.85295  1.0000
  C   C1090     1.0  0.71394  0.46584  0.71459  1.0000
  S   S149      1.0  0.76226  0.15711  0.91491  1.0000
  Fe  Fe76      1.0  0.73401  0.33261  0.73954  1.0000
  S   S150      1.0  0.77282  0.32934  0.69664  1.0000
  S   S151      1.0  0.74141  0.30942  0.79668  1.0000
  Fe  Fe77      1.0  0.69612  0.38125  0.69209  1.0000
  S   S152      1.0  0.73360  0.38236  0.64701  1.0000
  H   H867      1.0  0.98781  0.24082  0.70721  1.0000
  Fe  Fe78      1.0  0.73415  0.32964  0.65296  1.0000
  S   S153      1.0  0.72321  0.29539  0.60505  1.0000
  Fe  Fe79      1.0  0.76946  0.38202  0.69510  1.0000
  S   S154      1.0  0.81275  0.41439  0.69772  1.0000
  S   S155      1.0  0.69549  0.32876  0.69670  1.0000
  S   S156      1.0  0.73194  0.38514  0.73952  1.0000
  Fe  Fe80      1.0  0.96322  0.04101  0.78279  1.0000
  S   S157      1.0  0.94856  0.03745  0.72163  1.0000
  S   S158      1.0  0.93705  0.07341  0.82402  1.0000
  Fe  Fe81      1.0  0.95604  0.47125  0.84184  1.0000
  H   H868      1.0  0.94385  0.04569  0.51917  1.0000
  S   S159      1.0  0.91904  0.43402  0.82549  1.0000
  C   C1091     1.0  0.84140  0.42005  0.73434  1.0000
  C   C1092     1.0  0.84441  0.39952  0.76513  1.0000
  C   C1093     1.0  0.86814  0.40428  0.79263  1.0000
  C   C1094     1.0  0.88914  0.42975  0.79010  1.0000
  C   C1095     1.0  0.88601  0.45043  0.75945  1.0000
  C   C1096     1.0  0.86241  0.44551  0.73178  1.0000
  H   H869      1.0  0.82876  0.37966  0.76748  1.0000
  H   H870      1.0  0.87023  0.38806  0.81610  1.0000
  H   H871      1.0  0.90181  0.47016  0.75698  1.0000
  H   H872      1.0  0.86043  0.46157  0.70813  1.0000
  C   C1097     1.0  0.78350  0.22961  0.53151  1.0000
  C   C1098     1.0  0.75089  0.22637  0.53301  1.0000
  C   C1099     1.0  0.73297  0.24653  0.55598  1.0000
  C   C1100     1.0  0.74734  0.27012  0.57780  1.0000
  C   C1101     1.0  0.77998  0.27335  0.57644  1.0000
  C   C1102     1.0  0.79797  0.25307  0.55351  1.0000
  H   H873      1.0  0.95638  0.16558  0.77836  1.0000
  C   C1103     1.0  0.77973  0.40192  0.89847  1.0000
  H   H874      1.0  0.79123  0.29187  0.59238  1.0000
  H   H875      1.0  0.82319  0.25582  0.55245  1.0000
  C   C1104     1.0  0.70146  0.21512  0.83665  1.0000
  C   C1105     1.0  0.72562  0.22996  0.85658  1.0000
  C   C1106     1.0  0.73762  0.25872  0.84371  1.0000
  C   C1107     1.0  0.72590  0.27278  0.81059  1.0000
  C   C1108     1.0  0.70169  0.25799  0.79048  1.0000
  C   C1109     1.0  0.68943  0.22926  0.80361  1.0000
  H   H876      1.0  0.73489  0.21945  0.88218  1.0000
  H   H877      1.0  0.75616  0.27014  0.85955  1.0000
  H   H878      1.0  0.69221  0.26886  0.76521  1.0000
  C   C1110     1.0  0.98687  0.30484  0.70700  1.0000
  C   C1111     1.0  0.83314  0.07174  0.86263  1.0000
  C   C1112     1.0  0.85266  0.09718  0.87123  1.0000
  C   C1113     1.0  0.88425  0.09736  0.85901  1.0000
  C   C1114     1.0  0.89673  0.07234  0.83775  1.0000
  C   C1115     1.0  0.87709  0.04709  0.82876  1.0000
  C   C1116     1.0  0.84561  0.04677  0.84134  1.0000
  H   H879      1.0  0.84356  0.11655  0.88765  1.0000
  H   H880      1.0  0.89920  0.11695  0.86634  1.0000
  H   H881      1.0  0.88637  0.02753  0.81283  1.0000
  H   H882      1.0  0.83091  0.02682  0.83503  1.0000
  H   H883      1.0  0.70772  0.24397  0.55661  1.0000
  C   C1117     1.0  0.70089  0.23071  0.65950  1.0000
  H   H884      1.0  0.97359  0.05976  0.57680  1.0000
  C   C1118     1.0  0.72700  0.00323  0.93706  1.0000
  H   H885      1.0  0.69840  0.40145  0.89337  1.0000
  C   C1119     1.0  0.95170  0.02460  0.61153  1.0000
  C   C1120     1.0  0.74814  0.47389  0.78225  1.0000
  H   H886      1.0  0.70368  0.12062  0.81148  1.0000
  H   H887      1.0  0.68618  0.03569  0.75629  1.0000
  C   C1121     1.0  0.72036  0.24256  0.68803  1.0000
  H   H888      1.0  0.79700  0.21874  0.64146  1.0000
  C   C1122     1.0  0.77849  0.13890  0.59122  1.0000
  C   C1123     1.0  0.75941  0.14657  0.62216  1.0000
  C   C1124     1.0  0.73632  0.12543  0.63481  1.0000
  C   C1125     1.0  0.73297  0.09643  0.61638  1.0000
  P   P38       1.0  0.70946  0.13590  0.67244  1.0000
  C   C1126     1.0  0.71899  0.11606  0.71646  1.0000
  C   C1127     1.0  0.71230  0.17765  0.68001  1.0000
  C   C1128     1.0  0.73198  0.18977  0.70861  1.0000
  C   C1129     1.0  0.73574  0.22213  0.71272  1.0000
  H   H889      1.0  0.75070  0.23147  0.73498  1.0000
  C   C1130     1.0  0.69691  0.19842  0.65537  1.0000
  C   C1131     1.0  0.70500  0.12579  0.75064  1.0000
  C   C1132     1.0  0.71387  0.11225  0.78516  1.0000
  C   C1133     1.0  0.73684  0.08896  0.78602  1.0000
  C   C1134     1.0  0.75087  0.07909  0.75222  1.0000
  C   C1135     1.0  0.74211  0.09264  0.71756  1.0000
  C   C1136     1.0  0.74667  0.46460  0.71408  1.0000
  S   S160      1.0  0.80679  0.20489  0.50248  1.0000
  H   H890      1.0  0.79539  0.15573  0.58041  1.0000
  H   H891      1.0  0.76222  0.16934  0.63523  1.0000
  H   H892      1.0  0.68243  0.18987  0.63233  1.0000
  H   H893      1.0  0.98622  0.18454  0.72247  1.0000
  C   C1137     1.0  0.95868  0.35365  0.83762  1.0000
  H   H894      1.0  0.98969  0.35298  0.88571  1.0000
  C   C1138     1.0  0.98423  0.34259  0.85844  1.0000
  C   C1139     1.0  0.98814  0.41068  0.75987  1.0000
  H   H895      1.0  0.78903  0.46640  0.74680  1.0000
  H   H896      1.0  0.76926  0.06160  0.75314  1.0000
  H   H897      1.0  0.75398  0.08526  0.69195  1.0000
  C   C1140     1.0  0.79658  0.04046  0.50623  1.0000
  C   C1141     1.0  0.86430  0.26152  0.64278  1.0000
  C   C1142     1.0  0.83238  0.25451  0.64577  1.0000
  C   C1143     1.0  0.82190  0.22384  0.64013  1.0000
  C   C1144     1.0  0.84340  0.20004  0.63200  1.0000
  C   C1145     1.0  0.87561  0.20679  0.62939  1.0000
  C   C1146     1.0  0.88589  0.23777  0.63489  1.0000
  P   P39       1.0  0.90337  0.17546  0.62121  1.0000
  C   C1147     1.0  0.91100  0.15478  0.66508  1.0000
  C   C1148     1.0  0.88751  0.14872  0.58621  1.0000
  C   C1149     1.0  0.89277  0.11630  0.58907  1.0000
  C   C1150     1.0  0.88076  0.09588  0.56154  1.0000
  C   C1151     1.0  0.84189  0.01999  0.53961  1.0000
  C   C1152     1.0  0.85857  0.13984  0.52762  1.0000
  C   C1153     1.0  0.87025  0.16033  0.55525  1.0000
  C   C1154     1.0  0.93881  0.13744  0.66929  1.0000
  C   C1155     1.0  0.94450  0.12071  0.70269  1.0000
  C   C1156     1.0  0.92250  0.12094  0.73202  1.0000
  C   C1157     1.0  0.89496  0.13831  0.72830  1.0000
  C   C1158     1.0  0.88917  0.15520  0.69497  1.0000
  C   C1159     1.0  0.94014  0.19139  0.60433  1.0000
  C   C1160     1.0  0.96109  0.20504  0.63033  1.0000
  C   C1161     1.0  0.76371  0.46848  0.74773  1.0000
  C   C1162     1.0  0.80843  0.49391  0.81760  1.0000
  C   C1163     1.0  0.95643  0.04096  0.57768  1.0000
  C   C1164     1.0  0.94843  0.18998  0.56576  1.0000
  H   H898      1.0  0.87226  0.28548  0.64627  1.0000
  H   H899      1.0  0.81564  0.27295  0.65183  1.0000
  H   H900      1.0  0.83493  0.17636  0.62786  1.0000
  H   H901      1.0  0.91042  0.24388  0.63280  1.0000
  H   H902      1.0  0.90623  0.10660  0.61232  1.0000
  Fe  Fe82      1.0  0.74502  0.15084  0.97535  1.0000
  H   H903      1.0  0.71359  0.39631  0.82626  1.0000
  H   H904      1.0  0.67522  0.40782  0.77508  1.0000
  H   H905      1.0  0.86599  0.18525  0.55209  1.0000
  H   H906      1.0  0.95598  0.13636  0.64659  1.0000
  H   H907      1.0  0.96578  0.10707  0.70559  1.0000
  H   H908      1.0  0.92674  0.10753  0.75761  1.0000
  H   H909      1.0  0.87799  0.13835  0.75124  1.0000
  H   H910      1.0  0.86756  0.16825  0.69271  1.0000
  H   H911      1.0  0.95515  0.20624  0.66012  1.0000
  H   H912      1.0  0.75891  0.45975  0.68773  1.0000
  H   H913      1.0  0.77905  0.41562  0.78962  1.0000
  C   C1165     1.0  0.95677  0.19037  0.77155  1.0000
  H   H914      1.0  0.93284  0.17961  0.54499  1.0000
  H   H915      1.0  0.77126  0.00870  0.90830  1.0000
  C   C1166     1.0  0.75199  0.08894  0.58540  1.0000
  H   H916      1.0  0.70298  0.04272  0.68986  1.0000
  S   S161      1.0  0.70876  0.08620  0.49088  1.0000
  C   C1167     1.0  0.96899  0.31512  0.78834  1.0000
  C   C1168     1.0  0.95091  0.33992  0.80282  1.0000
  P   P40       1.0  0.95878  0.29621  0.74403  1.0000
  H   H917      1.0  0.78398  0.36214  0.81493  1.0000
  C   C1169     1.0  0.95747  0.25460  0.75383  1.0000
  C   C1170     1.0  0.94107  0.24361  0.78579  1.0000
  C   C1171     1.0  0.94058  0.21161  0.79442  1.0000
  H   H918      1.0  0.88488  0.07096  0.56400  1.0000
  C   C1172     1.0  0.68140  0.40714  0.87164  1.0000
  C   C1173     1.0  0.78170  0.38175  0.83433  1.0000
  H   H919      1.0  0.96913  0.39660  0.77097  1.0000
  H   H920      1.0  0.68808  0.14471  0.75089  1.0000
  H   H921      1.0  0.98394  0.20031  0.52392  1.0000
  C   C1174     1.0  0.97741  0.20177  0.55361  1.0000
  H   H922      1.0  0.96520  0.03067  0.63659  1.0000
  C   C1175     1.0  0.92125  0.31101  0.72806  1.0000
  C   C1176     1.0  0.89328  0.29430  0.73425  1.0000
  C   C1177     1.0  0.86438  0.30746  0.72413  1.0000
  C   C1178     1.0  0.86325  0.33714  0.70742  1.0000
  C   C1179     1.0  0.89093  0.35375  0.70083  1.0000
  C   C1180     1.0  0.91982  0.34079  0.71102  1.0000
  H   H923      1.0  0.67694  0.04708  0.54526  1.0000
  C   C1181     1.0  0.77488  0.11005  0.57304  1.0000
  H   H924      1.0  0.78071  0.39790  0.92885  1.0000
  H   H925      1.0  0.93067  0.34885  0.78778  1.0000
  H   H926      1.0  0.92866  0.25981  0.80411  1.0000
  H   H927      1.0  0.92767  0.20325  0.81897  1.0000
  C   C1182     1.0  0.72453  0.48815  0.88135  1.0000
  C   C1183     1.0  0.78195  0.37657  0.87348  1.0000
  H   H928      1.0  0.74441  0.07924  0.81303  1.0000
  C   C1184     1.0  0.77501  0.43762  0.84487  1.0000
  H   H929      1.0  0.68056  0.13604  0.59653  1.0000
  H   H930      1.0  0.74485  0.17444  0.72747  1.0000
  C   C1185     1.0  0.86370  0.10764  0.53077  1.0000
  H   H931      1.0  0.89344  0.27139  0.74728  1.0000
  H   H932      1.0  0.84275  0.29483  0.72956  1.0000
  H   H933      1.0  0.84090  0.34763  0.70003  1.0000
  H   H934      1.0  0.88978  0.37706  0.68857  1.0000
  H   H935      1.0  0.94097  0.35442  0.70653  1.0000
  H   H936      1.0  0.80003  0.03674  0.56710  1.0000
  C   C1186     1.0  0.66878  0.03478  0.73391  1.0000
  C   C1187     1.0  0.77859  0.41215  0.82006  1.0000
  H   H937      1.0  0.78935  0.10440  0.54878  1.0000
  H   H938      1.0  0.73942  0.20841  0.51638  1.0000
  C   C1188     1.0  0.69020  0.40417  0.83352  1.0000
  C   C1189     1.0  0.69531  0.41885  0.96864  1.0000
  C   C1190     1.0  0.93950  0.03278  0.54505  1.0000
  H   H939      1.0  0.72386  0.26758  0.69065  1.0000
  H   H940      1.0  0.68936  0.24662  0.64002  1.0000
  H   H941      1.0  0.78431  0.35291  0.88435  1.0000
  C   C1191     1.0  0.67020  0.12664  0.65595  1.0000
  H   H942      1.0  0.85456  0.09190  0.50921  1.0000
  C   C1192     1.0  0.77667  0.43240  0.88426  1.0000
  C   C1193     1.0  0.98119  0.43843  0.74066  1.0000
  H   H943      1.0  0.83277  0.46528  0.85917  1.0000
  H   H944      1.0  0.71485  0.08011  0.62500  1.0000
  P   P41       1.0  0.77025  0.47676  0.82606  1.0000
  H   H945      1.0  0.72319  0.02827  0.93976  1.0000
  H   H946      1.0  0.67066  0.21796  0.78809  1.0000
  H   H947      1.0  0.95737  0.28629  0.66212  1.0000
  C   C1194     1.0  0.67844  0.03896  0.69627  1.0000
  S   S162      1.0  0.74977  0.09812  0.97351  1.0000
  C   C1195     1.0  0.99473  0.30417  0.80948  1.0000
  H   H948      1.0  0.77576  0.45180  0.90403  1.0000
  H   H949      1.0  0.94467  0.37283  0.84861  1.0000
  H   H950      1.0  0.70030  0.44095  0.95481  1.0000
  H   H951      1.0  0.85294  0.01387  0.56625  1.0000
  C   C1196     1.0  0.81173  0.03287  0.54023  1.0000
  C   C1197     1.0  0.97359  0.20111  0.74008  1.0000
  H   H952      1.0  0.68731  0.02575  0.82849  1.0000
  H   H953      1.0  0.95696  0.44543  0.73679  1.0000
  C   C1198     1.0  0.69823  0.47126  0.74873  1.0000
  C   C1199     1.0  0.66815  0.08240  0.50278  1.0000
  H   H954      1.0  0.68366  0.29943  0.88162  1.0000
  H   H955      1.0  0.70069  0.46199  0.68866  1.0000
  C   C1200     1.0  0.92990  0.00019  0.61295  1.0000
  C   C1201     1.0  0.97954  0.29732  0.66914  1.0000
  C   C1202     1.0  0.97414  0.23311  0.73133  1.0000
  C   C1203     1.0  0.91758  0.00811  0.54615  1.0000
  C   C1204     1.0  0.83463  0.48407  0.83865  1.0000
  H   H956      1.0  0.71821  0.46370  0.87853  1.0000
  H   H957      1.0  0.77314  0.05039  0.50646  1.0000
  H   H958      1.0  0.99509  0.29832  0.61078  1.0000
  C   C1205     1.0  0.68087  0.00131  0.82534  1.0000
  C   C1206     1.0  0.85730  0.01490  0.50491  1.0000
  S   S163      1.0  0.96083  0.48453  0.90402  1.0000
  H   H959      1.0  0.84563  0.14909  0.50359  1.0000
  H   H960      1.0  0.78714  0.99894  0.79587  1.0000
  S   S164      1.0  0.66724  0.05798  0.97526  1.0000
  H   H961      1.0  0.68654  0.33855  0.83000  1.0000
  H   H962      1.0  0.88405  0.49036  0.84916  1.0000
  C   C1207     1.0  0.71519  0.47525  0.78247  1.0000
  C   C1208     1.0  0.66861  0.41045  0.80462  1.0000
  H   H963      1.0  0.67280  0.47171  0.74898  1.0000
  H   H964      1.0  0.70240  0.47883  0.80858  1.0000
  C   C1209     1.0  0.66690  0.40308  0.96168  1.0000
  H   H965      1.0  0.84190  0.00116  0.77195  1.0000
  C   C1210     1.0  0.66305  0.12860  0.61698  1.0000
  H   H966      1.0  0.66386  0.04089  0.63756  1.0000
  C   C1211     1.0  0.66513  0.32533  0.83420  1.0000
  C   C1212     1.0  0.66353  0.30317  0.86331  1.0000
  C   C1213     1.0  0.88445  0.50454  0.19347  1.0000
  H   H967      1.0  0.85970  0.60768  0.21897  1.0000
  Fe  Fe83      1.0  0.82727  0.74405  0.10633  1.0000
  S   S165      1.0  0.83834  0.79124  0.08053  1.0000
  S   S166      1.0  0.80233  0.74089  0.16368  1.0000
  Fe  Fe84      1.0  0.87244  0.70869  0.05182  1.0000
  S   S167      1.0  0.88743  0.75368  0.02407  1.0000
  S   S168      1.0  0.89014  0.65843  0.04092  1.0000
  Fe  Fe85      1.0  0.88881  0.77612  0.08234  1.0000
  S   S169      1.0  0.93093  0.80445  0.10541  1.0000
  Fe  Fe86      1.0  0.83576  0.76535  0.02457  1.0000
  C   C1214     1.0  0.96536  0.84953  0.32140  1.0000
  S   S170      1.0  0.87799  0.72985  0.11027  1.0000
  S   S171      1.0  0.82058  0.71933  0.05016  1.0000
  C   C1215     1.0  0.72176  0.64669  0.23951  1.0000
  S   S172      1.0  0.94493  0.94315  0.17542  1.0000
  C   C1216     1.0  0.82829  0.59853  0.11375  1.0000
  C   C1217     1.0  0.81966  0.64985  0.14098  1.0000
  C   C1218     1.0  0.87821  0.99045  0.20156  1.0000
  C   C1219     1.0  0.79790  0.73797  0.35747  1.0000
  H   H968      1.0  0.83730  0.64202  0.08456  1.0000
  H   H969      1.0  0.89212  0.80277  0.17480  1.0000
  C   C1220     1.0  0.94795  0.62914  0.42913  1.0000
  C   C1221     1.0  0.91213  0.51767  0.17935  1.0000
  H   H970      1.0  0.92290  0.88000  0.24786  1.0000
  C   C1222     1.0  0.76634  0.61131  0.24410  1.0000
  P   P42       1.0  0.80266  0.66061  0.42642  1.0000
  H   H971      1.0  0.95783  0.62183  0.40230  1.0000
  C   C1223     1.0  0.95335  0.51761  0.04586  1.0000
  H   H972      1.0  0.74256  0.81144  0.13220  1.0000
  C   C1224     1.0  0.93401  0.84293  0.12549  1.0000
  C   C1225     1.0  0.90841  0.86333  0.12795  1.0000
  C   C1226     1.0  0.91224  0.89369  0.14347  1.0000
  C   C1227     1.0  0.94159  0.90417  0.15699  1.0000
  C   C1228     1.0  0.96709  0.88358  0.15511  1.0000
  C   C1229     1.0  0.96327  0.85332  0.13934  1.0000
  H   H973      1.0  0.88572  0.85585  0.11756  1.0000
  H   H974      1.0  0.89230  0.90927  0.14476  1.0000
  C   C1230     1.0  0.92334  0.67004  0.46823  1.0000
  H   H975      1.0  0.74362  0.82013  0.04394  1.0000
  C   C1231     1.0  0.77046  0.79466  0.44934  1.0000
  C   C1232     1.0  0.75466  0.80647  0.41727  1.0000
  C   C1233     1.0  0.72822  0.79079  0.40218  1.0000
  C   C1234     1.0  0.71719  0.76335  0.41943  1.0000
  C   C1235     1.0  0.73302  0.75169  0.45148  1.0000
  H   H976      1.0  0.83604  0.58420  0.09016  1.0000
  H   H977      1.0  0.76283  0.82786  0.40410  1.0000
  H   H978      1.0  0.71614  0.80013  0.37765  1.0000
  C   C1236     1.0  0.85067  0.64126  0.37751  1.0000
  C   C1237     1.0  0.87530  0.62167  0.36638  1.0000
  C   C1238     1.0  0.69992  0.72238  0.19889  1.0000
  C   C1239     1.0  0.72278  0.72999  0.22589  1.0000
  C   C1240     1.0  0.75400  0.73528  0.21450  1.0000
  C   C1241     1.0  0.76269  0.73343  0.17602  1.0000
  C   C1242     1.0  0.73986  0.72577  0.14898  1.0000
  C   C1243     1.0  0.70866  0.72003  0.16046  1.0000
  H   H979      1.0  0.71644  0.73160  0.25556  1.0000
  H   H980      1.0  0.77152  0.74106  0.23562  1.0000
  H   H981      1.0  0.74625  0.72411  0.11932  1.0000
  H   H982      1.0  0.69119  0.71383  0.13948  1.0000
  C   C1244     1.0  0.73203  0.83968  0.03018  1.0000
  C   C1245     1.0  0.96119  0.50191  0.01235  1.0000
  C   C1246     1.0  0.82540  0.55750  0.28214  1.0000
  H   H983      1.0  0.72563  0.57803  0.39213  1.0000
  C   C1247     1.0  0.70881  0.65551  0.40119  1.0000
  H   H984      1.0  0.83740  0.89796  0.48110  1.0000
  H   H985      1.0  0.70736  0.66894  0.29146  1.0000
  H   H986      1.0  0.98978  0.89102  0.16553  1.0000
  C   C1248     1.0  0.74903  0.86669  0.02130  1.0000
  C   C1249     1.0  0.82776  0.57820  0.25120  1.0000
  C   C1250     1.0  0.98781  0.49646  0.18054  1.0000
  H   H987      1.0  0.81883  0.78334  0.36609  1.0000
  H   H988      1.0  0.72450  0.73072  0.46532  1.0000
  H   H989      1.0  0.69947  0.96498  0.03133  1.0000
  H   H990      1.0  0.87144  0.56766  0.43722  1.0000
  S   S173      1.0  0.68330  0.74306  0.40334  1.0000
  S   S174      1.0  0.96373  0.56982  0.45664  1.0000
  H   H991      1.0  0.88902  0.62727  0.34140  1.0000
  H   H992      1.0  0.74159  0.69144  0.41631  1.0000
  C   C1251     1.0  0.98636  0.52465  0.15999  1.0000
  H   H993      1.0  0.85044  0.53285  0.32632  1.0000
  C   C1252     1.0  0.82920  0.63116  0.11059  1.0000
  C   C1253     1.0  0.85205  0.54960  0.30321  1.0000
  H   H994      1.0  0.74810  0.64275  0.33040  1.0000
  H   H995      1.0  0.68925  0.67173  0.39955  1.0000
  H   H996      1.0  0.81687  0.55918  0.14910  1.0000
  H   H997      1.0  0.88038  0.96515  0.20287  1.0000
  H   H998      1.0  0.97061  0.98206  0.39796  1.0000
  H   H999      1.0  0.80205  0.65103  0.19782  1.0000
  C   C1254     1.0  0.81733  0.58450  0.14715  1.0000
  H   H1000     1.0  0.84170  0.71400  0.44951  1.0000
  C   C1255     1.0  0.95176  0.57088  0.11407  1.0000
  H   H1001     1.0  0.91015  0.59445  0.03330  1.0000
  C   C1256     1.0  0.84686  0.90671  0.38433  1.0000
  H   H1002     1.0  0.98248  0.62966  0.05993  1.0000
  C   C1257     1.0  0.76427  0.64601  0.41312  1.0000
  C   C1258     1.0  0.77537  0.54789  0.21075  1.0000
  C   C1259     1.0  0.72359  0.65261  0.27844  1.0000
  C   C1260     1.0  0.86862  0.91800  0.35795  1.0000
  C   C1261     1.0  0.72214  0.80544  0.18754  1.0000
  C   C1262     1.0  0.94522  0.63527  0.10021  1.0000
  C   C1263     1.0  0.92533  0.62034  0.12599  1.0000
  C   C1264     1.0  0.92857  0.58826  0.13301  1.0000
  C   C1265     1.0  0.75935  0.61395  0.40629  1.0000
  H   H1003     1.0  0.77373  0.86808  0.02857  1.0000
  C   C1266     1.0  0.73866  0.66665  0.41066  1.0000
  H   H1004     1.0  0.75908  0.77147  0.00706  1.0000
  C   C1267     1.0  0.76781  0.61714  0.28336  1.0000
  C   C1268     1.0  0.83337  0.63450  0.41048  1.0000
  H   H1005     1.0  0.70486  0.51614  0.18450  1.0000
  C   C1269     1.0  0.80721  0.60315  0.17763  1.0000
  H   H1006     1.0  0.87290  0.94298  0.35564  1.0000
  Fe  Fe87      1.0  0.97938  0.54040  0.40534  1.0000
  H   H1007     1.0  0.98319  0.83783  0.13761  1.0000
  H   H1008     1.0  0.78551  0.60625  0.30093  1.0000
  C   C1270     1.0  0.80905  0.69898  0.40603  1.0000
  C   C1271     1.0  0.90629  0.63744  0.00152  1.0000
  H   H1009     1.0  0.82055  0.67520  0.13854  1.0000
  H   H1010     1.0  0.94225  0.66002  0.09422  1.0000
  H   H1011     1.0  0.90696  0.63363  0.13983  1.0000
  H   H1012     1.0  0.91276  0.57730  0.15296  1.0000
  C   C1272     1.0  0.96799  0.61810  0.08087  1.0000
  C   C1273     1.0  0.73428  0.89178  0.00302  1.0000
  H   H1013     1.0  0.80314  0.54674  0.28928  1.0000
  H   H1014     1.0  0.98943  0.57321  0.07280  1.0000
  H   H1015     1.0  0.92704  0.53097  0.19842  1.0000
  C   C1274     1.0  0.83070  0.82010  0.23256  1.0000
  C   C1275     1.0  0.84689  0.81068  0.20004  1.0000
  C   C1276     1.0  0.87964  0.81044  0.19996  1.0000
  C   C1277     1.0  0.89627  0.81958  0.23237  1.0000
  C   C1278     1.0  0.88021  0.82945  0.26512  1.0000
  C   C1279     1.0  0.84725  0.82937  0.26506  1.0000
  P   P43       1.0  0.90158  0.83736  0.30850  1.0000
  C   C1280     1.0  0.90593  0.80099  0.33449  1.0000
  C   C1281     1.0  0.93934  0.85476  0.29769  1.0000
  H   H1016     1.0  0.90238  0.58045  0.38000  1.0000
  C   C1282     1.0  0.72938  0.60283  0.39696  1.0000
  P   P44       1.0  0.79393  0.58518  0.22124  1.0000
  C   C1283     1.0  0.84045  0.60732  0.43132  1.0000
  C   C1284     1.0  0.88276  0.59520  0.38794  1.0000
  C   C1285     1.0  0.91300  0.80144  0.37352  1.0000
  C   C1286     1.0  0.91427  0.77348  0.39420  1.0000
  C   C1287     1.0  0.90844  0.74492  0.37618  1.0000
  C   C1288     1.0  0.90169  0.74418  0.33738  1.0000
  C   C1289     1.0  0.90051  0.77204  0.31653  1.0000
  C   C1290     1.0  0.87973  0.86469  0.33757  1.0000
  C   C1291     1.0  0.85747  0.85363  0.36383  1.0000
  C   C1292     1.0  0.84127  0.87453  0.38723  1.0000
  S   S175      1.0  0.80322  0.81517  0.46823  1.0000
  C   C1293     1.0  0.75958  0.76706  0.46619  1.0000
  C   C1294     1.0  0.88497  0.89712  0.33460  1.0000
  H   H1017     1.0  0.80530  0.81970  0.23267  1.0000
  H   H1018     1.0  0.83411  0.80308  0.17501  1.0000
  C   C1295     1.0  0.94259  0.87503  0.26642  1.0000
  H   H1019     1.0  0.92165  0.81841  0.23189  1.0000
  H   H1020     1.0  0.83424  0.83596  0.29018  1.0000
  H   H1021     1.0  0.96363  0.83434  0.34585  1.0000
  C   C1296     1.0  0.70017  0.83785  0.02116  1.0000
  H   H1022     1.0  0.69547  0.79817  0.23861  1.0000
  C   C1297     1.0  0.80892  0.63597  0.17450  1.0000
  H   H1023     1.0  0.81773  0.52041  0.21843  1.0000
  H   H1024     1.0  0.91698  0.82343  0.38816  1.0000
  H   H1025     1.0  0.91931  0.77385  0.42443  1.0000
  H   H1026     1.0  0.90880  0.72339  0.39246  1.0000
  H   H1027     1.0  0.89704  0.72199  0.32354  1.0000
  H   H1028     1.0  0.89493  0.77078  0.28659  1.0000
  H   H1029     1.0  0.85271  0.82884  0.36658  1.0000
  Fe  Fe88      1.0  0.98395  0.97211  0.20445  1.0000
  C   C1298     1.0  0.74346  0.54633  0.20076  1.0000
  S   S176      1.0  0.98824  0.97216  0.26839  1.0000
  H   H1030     1.0  0.90170  0.90645  0.31444  1.0000
  H   H1031     1.0  0.90184  0.55559  0.30969  1.0000
  C   C1299     1.0  0.81678  0.75961  0.37659  1.0000
  H   H1032     1.0  0.83430  0.92290  0.40247  1.0000
  H   H1033     1.0  0.93768  0.67601  0.40994  1.0000
  H   H1034     1.0  0.78558  0.74487  0.33187  1.0000
  H   H1035     1.0  0.66754  0.59305  0.29265  1.0000
  H   H1036     1.0  0.74167  0.62264  0.19193  1.0000
  C   C1300     1.0  0.74308  0.62629  0.22235  1.0000
  C   C1301     1.0  0.88116  0.56244  0.29382  1.0000
  H   H1037     1.0  0.77947  0.69130  0.35669  1.0000
  H   H1038     1.0  0.84711  0.76760  0.42464  1.0000
  H   H1039     1.0  0.72935  0.56724  0.19880  1.0000
  C   C1302     1.0  0.93633  0.65990  0.43355  1.0000
  H   H1040     1.0  0.82735  0.60149  0.45671  1.0000
  P   P45       1.0  0.95697  0.52960  0.12351  1.0000
  C   C1303     1.0  0.79425  0.70766  0.37191  1.0000
  C   C1304     1.0  0.96866  0.51027  0.08008  1.0000
  C   C1305     1.0  0.70413  0.62360  0.39440  1.0000
  H   H1041     1.0  0.82444  0.86565  0.40776  1.0000
  C   C1306     1.0  0.97148  0.58608  0.08792  1.0000
  H   H1042     1.0  0.74774  0.91279  0.99759  1.0000
  C   C1307     1.0  0.88364  0.58364  0.26374  1.0000
  H   H1043     1.0  0.90631  0.59352  0.25658  1.0000
  C   C1308     1.0  0.72939  0.51741  0.19267  1.0000
  C   C1309     1.0  0.74659  0.63785  0.30032  1.0000
  H   H1044     1.0  0.77846  0.59742  0.40851  1.0000
  H   H1045     1.0  0.70407  0.65836  0.22248  1.0000
  C   C1310     1.0  0.79297  0.52004  0.21177  1.0000
  H   H1046     1.0  0.84565  0.66191  0.36078  1.0000
  H   H1047     1.0  0.97359  0.90542  0.23510  1.0000
  C   C1311     1.0  0.82904  0.72047  0.42409  1.0000
  H   H1048     1.0  0.94908  0.50739  0.98610  1.0000
  C   C1312     1.0  0.86527  0.58797  0.42028  1.0000
  C   C1313     1.0  0.85706  0.59157  0.24249  1.0000
  C   C1314     1.0  0.94716  0.60811  0.45960  1.0000
  S   S177      1.0  0.96650  0.55010  0.34483  1.0000
  H   H1049     1.0  0.93501  0.53515  0.04518  1.0000
  C   C1315     1.0  0.83260  0.75076  0.40964  1.0000
  H   H1050     1.0  0.93926  0.96408  0.45246  1.0000
  C   C1316     1.0  0.72096  0.80895  0.14815  1.0000
  C   C1317     1.0  0.91421  0.60559  0.00614  1.0000
  C   C1318     1.0  0.97131  0.88967  0.25908  1.0000
  S   S178      1.0  0.91084  0.70983  0.47260  1.0000
  H   H1051     1.0  0.74458  0.80503  0.20200  1.0000
  C   C1319     1.0  0.93724  0.98819  0.44341  1.0000
  C   C1320     1.0  0.67476  0.95941  0.03383  1.0000
  C   C1321     1.0  0.92065  0.51323  0.14114  1.0000
  C   C1322     1.0  0.69206  0.80860  0.12936  1.0000
  C   C1323     1.0  0.69443  0.80150  0.20816  1.0000
  H   H1052     1.0  0.87836  0.50745  0.22317  1.0000
  H   H1053     1.0  0.66308  0.75237  0.09367  1.0000
  Fe  Fe89      1.0  0.95480  0.49853  0.34006  1.0000
  H   H1054     1.0  0.69081  0.54628  0.26170  1.0000
  H   H1055     1.0  0.84371  0.95551  0.47996  1.0000
  H   H1056     1.0  0.83523  0.98950  0.16957  1.0000
  H   H1057     1.0  0.68701  0.81686  0.02786  1.0000
  H   H1058     1.0  0.85476  0.65623  0.48127  1.0000
  H   H1059     1.0  0.69162  0.81177  0.09893  1.0000
  H   H1060     1.0  0.68085  0.61500  0.38756  1.0000
  C   C1324     1.0  0.68537  0.86280  0.00279  1.0000
  H   H1061     1.0  0.99528  0.94208  0.09748  1.0000
  H   H1062     1.0  0.66871  0.98826  0.08352  1.0000
  H   H1063     1.0  0.66919  0.73212  0.02834  1.0000
  C   C1325     1.0  0.80457  0.66411  0.47767  1.0000
  C   C1326     1.0  0.99400  0.86445  0.31405  1.0000
  C   C1327     1.0  0.66549  0.80061  0.18941  1.0000
  H   H1064     1.0  0.75528  0.67518  0.48494  1.0000
  C   C1328     1.0  0.66409  0.80404  0.14980  1.0000
  C   C1329     1.0  0.70256  0.88956  0.99231  1.0000
  C   C1330     1.0  0.66664  0.54573  0.27116  1.0000
  H   H1065     1.0  0.91218  0.65608  0.52534  1.0000
  S   S179      1.0  0.69880  0.78185  0.71459  1.0000
  Fe  Fe90      1.0  0.84318  0.75410  0.58526  1.0000
  S   S180      1.0  0.83963  0.80595  0.57401  1.0000
  S   S181      1.0  0.82236  0.72911  0.63644  1.0000
  Fe  Fe91      1.0  0.88564  0.74083  0.51672  1.0000
  S   S182      1.0  0.88577  0.79217  0.50150  1.0000
  H   H1066     1.0  0.69816  0.86117  0.63618  1.0000
  Fe  Fe92      1.0  0.89161  0.80304  0.56379  1.0000
  S   S183      1.0  0.92875  0.83916  0.58177  1.0000
  Fe  Fe93      1.0  0.83397  0.79132  0.51264  1.0000
  H   H1067     1.0  0.75657  0.85232  0.91895  1.0000
  S   S184      1.0  0.89582  0.75167  0.57826  1.0000
  S   S185      1.0  0.83326  0.73983  0.52480  1.0000
  C   C1331     1.0  0.70127  0.85756  0.57517  1.0000
  S   S186      1.0  0.92680  0.94935  0.70597  1.0000
  H   H1068     1.0  0.71320  0.85468  0.51535  1.0000
  H   H1069     1.0  0.74041  0.93948  0.72330  1.0000
  S   S187      1.0  0.95053  0.58159  0.90184  1.0000
  S   S188      1.0  0.96221  0.52093  0.82163  1.0000
  C   C1332     1.0  0.68811  0.86546  0.71450  1.0000
  H   H1070     1.0  0.84948  0.69206  0.70494  1.0000
  C   C1333     1.0  0.92492  0.63387  0.93614  1.0000
  C   C1334     1.0  0.93297  0.60210  0.94078  1.0000
  H   H1071     1.0  0.84035  0.67325  0.77050  1.0000
  S   S189      1.0  0.67034  0.73750  0.81674  1.0000
  H   H1072     1.0  0.77928  0.95144  0.90017  1.0000
  H   H1073     1.0  0.92909  0.64496  0.90903  1.0000
  C   C1335     1.0  0.84261  0.95272  0.75521  1.0000
  C   C1336     1.0  0.76637  0.85582  0.58728  1.0000
  C   C1337     1.0  0.92743  0.87006  0.61598  1.0000
  C   C1338     1.0  0.90109  0.87546  0.63872  1.0000
  C   C1339     1.0  0.90134  0.89985  0.66589  1.0000
  C   C1340     1.0  0.92784  0.91924  0.67075  1.0000
  C   C1341     1.0  0.95404  0.91412  0.64765  1.0000
  C   C1342     1.0  0.95380  0.88968  0.62054  1.0000
  H   H1074     1.0  0.88067  0.86069  0.63554  1.0000
  H   H1075     1.0  0.88090  0.90358  0.68346  1.0000
  C   C1343     1.0  0.81198  0.51816  0.79093  1.0000
  H   H1076     1.0  0.97430  0.88584  0.60308  1.0000
  C   C1344     1.0  0.77882  0.78134  0.95221  1.0000
  C   C1345     1.0  0.77216  0.78630  0.91357  1.0000
  C   C1346     1.0  0.74098  0.78650  0.90032  1.0000
  C   C1347     1.0  0.71624  0.78289  0.92594  1.0000
  H   H1077     1.0  0.75823  0.67927  0.55457  1.0000
  H   H1078     1.0  0.88800  0.57372  0.86299  1.0000
  H   H1079     1.0  0.79115  0.79038  0.89383  1.0000
  H   H1080     1.0  0.73611  0.79065  0.87058  1.0000
  C   C1348     1.0  0.83457  0.66202  0.53651  1.0000
  C   C1349     1.0  0.75439  0.85447  0.55035  1.0000
  C   C1350     1.0  0.73312  0.76619  0.69392  1.0000
  C   C1351     1.0  0.74991  0.74151  0.71027  1.0000
  C   C1352     1.0  0.77708  0.73006  0.69218  1.0000
  C   C1353     1.0  0.78770  0.74335  0.65793  1.0000
  C   C1354     1.0  0.77090  0.76807  0.64177  1.0000
  C   C1355     1.0  0.74371  0.77931  0.65967  1.0000
  H   H1081     1.0  0.74187  0.73116  0.73656  1.0000
  H   H1082     1.0  0.78986  0.71083  0.70476  1.0000
  H   H1083     1.0  0.77872  0.77843  0.61539  1.0000
  H   H1084     1.0  0.73062  0.79813  0.64675  1.0000
  H   H1085     1.0  0.89003  0.53281  0.80176  1.0000
  H   H1086     1.0  0.91445  0.60683  0.81505  1.0000
  C   C1356     1.0  0.91288  0.99194  0.58048  1.0000
  C   C1357     1.0  0.81945  0.83734  0.68276  1.0000
  C   C1358     1.0  0.82193  0.80759  0.69894  1.0000
  C   C1359     1.0  0.80944  0.80185  0.73495  1.0000
  C   C1360     1.0  0.79501  0.82604  0.75521  1.0000
  C   C1361     1.0  0.79313  0.85627  0.73951  1.0000
  C   C1362     1.0  0.80480  0.86152  0.70275  1.0000
  P   P46       1.0  0.77224  0.88712  0.76375  1.0000
  C   C1363     1.0  0.76656  0.87648  0.81298  1.0000
  C   C1364     1.0  0.79431  0.92338  0.76501  1.0000
  C   C1365     1.0  0.78069  0.95024  0.78109  1.0000
  C   C1366     1.0  0.79769  0.97826  0.78341  1.0000
  C   C1367     1.0  0.86723  0.52224  0.80636  1.0000
  H   H1087     1.0  0.85678  0.65928  0.55108  1.0000
  C   C1368     1.0  0.82573  0.92465  0.75297  1.0000
  C   C1369     1.0  0.71005  0.94966  0.94888  1.0000
  H   H1088     1.0  0.86684  0.95358  0.74575  1.0000
  H   H1089     1.0  0.98378  0.52315  0.65103  1.0000
  C   C1370     1.0  0.72199  0.85564  0.54422  1.0000
  C   C1371     1.0  0.79249  0.87636  0.83765  1.0000
  C   C1372     1.0  0.73535  0.89047  0.73871  1.0000
  C   C1373     1.0  0.71651  0.86370  0.73416  1.0000
  H   H1090     1.0  0.75506  0.85895  0.64682  1.0000
  H   H1091     1.0  0.97455  0.92888  0.65077  1.0000
  C   C1374     1.0  0.77022  0.71019  0.90499  1.0000
  C   C1375     1.0  0.72589  0.91875  0.72176  1.0000
  H   H1092     1.0  0.82851  0.84143  0.65445  1.0000
  H   H1093     1.0  0.83285  0.78878  0.68308  1.0000
  H   H1094     1.0  0.81032  0.77841  0.74674  1.0000
  H   H1095     1.0  0.78483  0.82082  0.78265  1.0000
  H   H1096     1.0  0.80245  0.88428  0.68943  1.0000
  H   H1097     1.0  0.75696  0.94944  0.79194  1.0000
  H   H1098     1.0  0.89629  0.97272  0.58223  1.0000
  C   C1376     1.0  0.70494  0.98209  0.95164  1.0000
  C   C1377     1.0  0.75928  0.85958  0.88957  1.0000
  H   H1099     1.0  0.83769  0.90409  0.74247  1.0000
  Fe  Fe94      1.0  0.97040  0.53372  0.88333  1.0000
  H   H1100     1.0  0.90559  0.67579  0.96195  1.0000
  S   S190      1.0  0.81790  0.78461  0.96828  1.0000
  H   H1101     1.0  0.80899  0.86731  0.89460  1.0000
  H   H1102     1.0  0.81567  0.88240  0.82728  1.0000
  H   H1103     1.0  0.72371  0.84132  0.74585  1.0000
  H   H1104     1.0  0.93334  0.56370  0.98018  1.0000
  H   H1105     1.0  0.77127  0.75782  0.49102  1.0000
  C   C1378     1.0  0.80196  0.70762  0.89551  1.0000
  H   H1106     1.0  0.71639  0.86774  0.80913  1.0000
  H   H1107     1.0  0.80870  0.67104  0.58794  1.0000
  C   C1379     1.0  0.85648  0.61014  0.88102  1.0000
  H   H1108     1.0  0.84398  0.55063  0.76440  1.0000
  C   C1380     1.0  0.75404  0.99220  0.91914  1.0000
  C   C1381     1.0  0.91511  0.93548  0.51651  1.0000
  C   C1382     1.0  0.70831  0.50680  0.90740  1.0000
  H   H1109     1.0  0.71080  0.85157  0.87550  1.0000
  C   C1383     1.0  0.77753  0.67111  0.49881  1.0000
  H   H1110     1.0  0.74465  0.57647  0.89113  1.0000
  C   C1384     1.0  0.93396  0.61814  0.49418  1.0000
  C   C1385     1.0  0.67880  0.89362  0.69794  1.0000
  C   C1386     1.0  0.88334  0.88950  0.50411  1.0000
  C   C1387     1.0  0.77903  0.67338  0.53842  1.0000
  C   C1388     1.0  0.91137  0.90296  0.51668  1.0000
  H   H1111     1.0  0.99218  0.54403  0.71605  1.0000
  H   H1112     1.0  0.74018  0.91396  0.92530  1.0000
  C   C1389     1.0  0.75580  0.53307  0.86287  1.0000
  C   C1390     1.0  0.73918  0.55174  0.88854  1.0000
  C   C1391     1.0  0.71549  0.53860  0.91087  1.0000
  C   C1392     1.0  0.89513  0.61634  0.83137  1.0000
  H   H1113     1.0  0.67354  0.84474  0.71156  1.0000
  H   H1114     1.0  0.72301  0.71514  0.88388  1.0000
  H   H1115     1.0  0.67566  0.86190  0.92761  1.0000
  H   H1116     1.0  0.68407  0.99123  0.96517  1.0000
  H   H1117     1.0  0.69036  0.94205  0.68837  1.0000
  C   C1393     1.0  0.69762  0.92029  0.70155  1.0000
  H   H1118     1.0  0.88042  0.86427  0.50490  1.0000
  Fe  Fe95      1.0  0.96244  0.98652  0.72589  1.0000
  S   S191      1.0  0.67686  0.78870  0.91197  1.0000
  C   C1394     1.0  0.73641  0.93881  0.92899  1.0000
  C   C1395     1.0  0.89077  0.95491  0.50358  1.0000
  H   H1119     1.0  0.96307  0.68755  0.60221  1.0000
  C   C1396     1.0  0.66664  0.93782  0.81609  1.0000
  C   C1397     1.0  0.74594  0.85840  0.61811  1.0000
  H   H1120     1.0  0.76325  0.71127  0.93457  1.0000
  C   C1398     1.0  0.82857  0.97954  0.77016  1.0000
  C   C1399     1.0  0.73690  0.86806  0.82713  1.0000
  H   H1121     1.0  0.77405  0.54384  0.84599  1.0000
  C   C1400     1.0  0.75416  0.77570  0.97736  1.0000
  C   C1401     1.0  0.92183  0.64873  0.49840  1.0000
  C   C1402     1.0  0.74873  0.50104  0.85917  1.0000
  C   C1403     1.0  0.92737  0.58803  0.97606  1.0000
  H   H1122     1.0  0.89866  0.66199  0.80636  1.0000
  C   C1404     1.0  0.71355  0.85941  0.61205  1.0000
  H   H1123     1.0  0.79144  0.85469  0.59196  1.0000
  H   H1124     1.0  0.81917  0.70631  0.91815  1.0000
  C   C1405     1.0  0.70212  0.97845  0.83728  1.0000
  C   C1406     1.0  0.88610  0.64759  0.82662  1.0000
  C   C1407     1.0  0.91163  0.65143  0.96614  1.0000
  C   C1408     1.0  0.88024  0.59761  0.85844  1.0000
  H   H1125     1.0  0.79207  0.52632  0.77456  1.0000
  C   C1409     1.0  0.72299  0.77697  0.96432  1.0000
  C   C1410     1.0  0.86186  0.66031  0.84882  1.0000
  C   C1411     1.0  0.84741  0.64138  0.87642  1.0000
  P   P47       1.0  0.85221  0.70149  0.84518  1.0000
  C   C1412     1.0  0.87720  0.72304  0.87747  1.0000
  C   C1413     1.0  0.85899  0.71509  0.79720  1.0000
  C   C1414     1.0  0.87202  0.74485  0.79053  1.0000
  C   C1415     1.0  0.87725  0.75519  0.75334  1.0000
  C   C1416     1.0  0.86931  0.73604  0.72260  1.0000
  C   C1417     1.0  0.85608  0.70656  0.72898  1.0000
  C   C1418     1.0  0.85091  0.69607  0.76610  1.0000
  C   C1419     1.0  0.86697  0.75128  0.89370  1.0000
  C   C1420     1.0  0.88658  0.76798  0.91834  1.0000
  C   C1421     1.0  0.91645  0.75667  0.92703  1.0000
  C   C1422     1.0  0.92697  0.72882  0.91062  1.0000
  C   C1423     1.0  0.90755  0.71220  0.88569  1.0000
  C   C1424     1.0  0.81127  0.70677  0.85723  1.0000
  C   C1425     1.0  0.74755  0.71243  0.87643  1.0000
  C   C1426     1.0  0.83325  0.66019  0.49686  1.0000
  H   H1126     1.0  0.84579  0.59587  0.90294  1.0000
  C   C1427     1.0  0.75661  0.71204  0.83832  1.0000
  C   C1428     1.0  0.78829  0.70912  0.82868  1.0000
  C   C1429     1.0  0.97862  0.67548  0.58277  1.0000
  H   H1127     1.0  0.93018  0.88814  0.52698  1.0000
  H   H1128     1.0  0.92645  0.98740  0.63921  1.0000
  H   H1129     1.0  0.93332  0.60217  0.51805  1.0000
  H   H1130     1.0  0.82962  0.65070  0.89506  1.0000
  H   H1131     1.0  0.87816  0.76018  0.81387  1.0000
  H   H1132     1.0  0.88726  0.77818  0.74827  1.0000
  H   H1133     1.0  0.87310  0.74408  0.69373  1.0000
  H   H1134     1.0  0.71126  0.92906  0.84277  1.0000
  H   H1135     1.0  0.96229  0.70103  0.53378  1.0000
  H   H1136     1.0  0.84378  0.76037  0.88770  1.0000
  H   H1137     1.0  0.87834  0.78945  0.93137  1.0000
  H   H1138     1.0  0.93128  0.76937  0.94680  1.0000
  H   H1139     1.0  0.95007  0.71992  0.91752  1.0000
  H   H1140     1.0  0.91630  0.69085  0.87311  1.0000
  Fe  Fe96      1.0  0.66966  0.77141  0.76722  1.0000
  C   C1430     1.0  0.69490  0.94672  0.83306  1.0000
  C   C1431     1.0  0.73341  0.85945  0.86519  1.0000
  H   H1141     1.0  0.73904  0.71408  0.81618  1.0000
  H   H1142     1.0  0.79452  0.70876  0.79894  1.0000
  C   C1432     1.0  0.78882  0.86799  0.87581  1.0000
  C   C1433     1.0  0.80748  0.66864  0.55729  1.0000
  S   S192      1.0  0.97442  0.98947  0.78851  1.0000
  H   H1143     1.0  0.93701  0.94538  0.52660  1.0000
  H   H1144     1.0  0.70404  0.77378  0.98420  1.0000
  C   C1434     1.0  0.84130  0.53216  0.78527  1.0000
  P   P48       1.0  0.68275  0.92201  0.96963  1.0000
  H   H1145     1.0  0.67008  0.80827  0.62237  1.0000
  C   C1435     1.0  0.86278  0.94119  0.49038  1.0000
  C   C1436     1.0  0.97828  0.68321  0.54423  1.0000
  C   C1437     1.0  0.75853  0.95998  0.91462  1.0000
  H   H1146     1.0  0.70262  0.55308  0.93078  1.0000
  H   H1147     1.0  0.72430  0.98546  0.84964  1.0000
  H   H1148     1.0  0.69013  0.49670  0.92496  1.0000
  H   H1149     1.0  0.77023  0.85219  0.52641  1.0000
  H   H1150     1.0  0.68513  0.79934  0.54023  1.0000
  C   C1438     1.0  0.85910  0.90858  0.49082  1.0000
  C   C1439     1.0  0.86383  0.49834  0.83315  1.0000
  C   C1440     1.0  0.66592  0.80601  0.52177  1.0000
  H   H1151     1.0  0.99454  0.58987  0.96959  1.0000
  H   H1152     1.0  0.67147  0.76533  0.48606  1.0000
