data_image0
_chemical_formula_structural       HC2FeCSHCH3C3HCH2C2HC2HCHC2HCH5CHC2H2CHC2H2C4HC2HCHCH2CPCHCHC4H2CHC2H2C3HCSCH4CSCHCSHC5H2C2H5CHC3HCHPHC5HCHC4HC4HC2SC4HC3HS2C2HC3HC2HFeCH6CHCHCHFeC5SHSH2C2HFeCH2CH2CSHSHC2H2CHCHCHC5HCH2C2HC2H6C7HS2PHCH2CHFeHC2H5CPC2HC2HC2HC5HCHCHFeSHFeSCFeSFeCSHS2HC3FeSHSHC3FeS2FeHC2FeCS2CHCHFeCHCSCHCFeCHC2SH3C2H3CHC2H2C6H2C9H3C3HC2H3C6H4C3H3CHPC2SHCH3C2HC3FeHCH3CHCSC2HC3H2PC4H2CHC2H4C3SCHPCSH2CHC5H3C3H2C6HC2SH5SH2CHSHCHC2SC2HC3H4CHCHC3H7FeCHSHCH3C4HC7PC18H20C6PC2H3CHC2H2CHC6HCHCH4C3HC2HCH3CS2HC2PCSC5H3C3HC3H2C3SCFeS2FeS2FeHFeCS2FeS2FeS2FeCFeS3C2PCH2C2HSCHC5HC2HCHCHCHCSHSCHCH3SCHC6H4C6H4C6H4C3H2CHCHSC7H2C4HCHCH5C3HC5FeCHCH2C2HCHCHCH2C2HC3FeSH2C3HC3H4CH2C2H2C6PC19PH16CHCH2C2H2CHC3H3C2H3C3HSCH2C4SH4CH4FeCSHC3HCSHC6H2PFeHC2H2C2HC3H2C4H2C2H2CH3CH3PHC7H4CHC4H3C3HPC2HCHCH3CHCH2C2HC2HC2HCPCHC3H3C2HCS3HC2FeCH2C2H2CH2C2HCHCH2FeH3CSFeSHSHFeS2FeSCFeSFeS3FeCSCFeS2FeS2FeCFeS3CHCHC8H4C6H5C6H2C7HSHC7H5C2HC2HSH2CPC3SCHCH2CHC2H2C2H2CFeH2SCHCH2FeCHCH2C3H2CH2CFeH5SH2C3PC15HCHC3HCH6CH6CHSCHFeC3H2FeH2C8HCH2C2H2CH2C2HCH4CHCSHCHC2H2CHC2HCHCPCH3C7H7CHC3SCH4CH2SCSHFeC2H3CHCH5CH2CHCHCH2C2H2SHFeSHCFeCSHSCSFeS2FeS2FeSFeS5FeS2C7H4C6H4C6H4CH2FeC6H5C5HCHCFeCH3SHCHC3HCHCHSHFeCHC2H2C2HCHC4H5PH2CHC2HCH2C4H2CSFeH2CFeC3HC3HPCSC2FeH2SCH2C2HCH5C4FeH2C2H2CHSH4SC3HC2HC3H2C2HCHC2H2CHC5SCH2C2H2CSHSCHPSCH5CH2C7H2C2HC2SCHCH4CHCFePC15H13CSC2H2SC3HCPC7HSC4FeH3C3HCH4CH4C4PC12H4CH4Fe2PC2HCHC3SHC2H4C2H7C2H2CH3PHCHC3HC6HCH2CHC4HC8H2C3SHSH3C3H4CH4C3H3CSFeS2FeS2HFeS3CHC3SPCH5CHCHC3H4FeS2FeS2FeSFeS3H2C2HC4H3CHC2HC4H3C6H4FeCH2C3H2CHCHC2HS2CHCH2C7H4C6H4C4H2C9H3CHC6PC8HC9H23C2HC2HCHC6H2CH2C7HCH4CH2CHSCH3C6PC18H6CH11CSCH3C5HFeH3C2H2PCHCSHC4H3PC2HFeCSC4H2CH2FeHC3H2CH3C3HC3HC6H3C2HC2HC2H2CPCHCHC3HC4H3CH2CHPC7HCHCHC2HCHC4HCH2CHCH2C4H3C3PCHCH3CHCHC2HC2H3C6H2C2HCH2CHCHCH4SC2HCHCH2CHSH2CH2CH2C2HC2HCH5CHC3H2CHC4HCSHC2H3C2HC2HC2HSHCH3C2HC5H2SFeS2FeS2Fe2S3FeS2FeHCFeHFeS3FeSHFeS2FeSFeS3C2FeS2FeSFeHSC2HSH2CSFeHSC2HSFeCSH3CH2CSC6H4SC6H5C4HCHCH2C6H4C6H2CHC6H4CH3C2HCH3C3FeCH2C7PC14H2C2H14CHCH3SH4CH2PC13H3CH12CHCPC16H3CH2CH10C4HC2PC7HC4H2CH6SH3FeC4H3CH2C2FeCH2CHCHC5SHC3HC2H5CHC3H6CH2C2HCPSHCHCPH2C2HCHC5H2C2HCH2CHCHC3H2C3HFeC4HPC4HCHC4SCHC2HC2HCSHC2PC2SH3C6HCHC4HC2HCHSH2C3H3FeSC2H2CHC3SFeCHCHC2HCH4CHCHCH2CHCSCHC6HCSH3C2HCSCHFeCSHC4S2CFeS2FeS2FeSFeCS2H6C2SHSCSHC3FeCFeC2HC2H2C4H3CHC3HPHC8H4C2HC6H3C3H3C7H5SC5H2FeC2H2C2H2C3H4CH3CSCHC2H2C2H3CHC2H2C2SC2HC4HCFeC3FePHC2H2C6HCH3C3H3CH2SH5C6PC18H20C3PC18H17CHC3SH2CHCHC2SCFeC4H4CH2C2HC2HFeH2C2HC3H2CHC2H2C2HC2H2CS2HSC3PHC2HSFeCH3C2HPC4H3CH2C2SFeC2H2CHC3HCH2C4HC2HSC2HCHCHCHFe2CH3SPHC4HCPFeC2HC2SCSFeHC2HC2HC2SC3HS2HSH2C3FeCSC5HSPHC2HFeC3H3C2SFeCHSHCHFeH2C4FeH2SHC2HFeSH2CH2C2HC3HCH8C2HCHPCHCSHC2HCH3C3HC2H2C2FeCH2CH3C2HCHC3HC2FeC5H2C2SHCH2C3H2SCH4SC4H2C2HCHC2H3C2HSCFeS2HSFeSCFeS2FeSFeS3C6H2C6H4C4H2CH2C3HCHCHCHCHCHCH4CHC2HCHC2HC5HC3HC2SH2PHCH3CHC2H2C2HC2H2C6PC18H15CH3CH5FeSH4CPHC3SH3CH6SC3H3C2HCSCHC3HCPCFeC2H2C2HCH2C3H2CH2CHC3FeCSC2HCH5CPC12HC5SHCH10CHCHCHCFeC3HC3HCHCHCH2C4H2CSC4HSC2HFeHC3H3C3HC2HCHC3H3CHCHCH3SPH2C2H2CHC3HCHC2HCH2CH6C2SC2H2CH2C2HCH6C2H2SHC2HCHC3HC2SC2PC3H2CH2C2SC4SC2H2CH4S2H3C3H6CHC3HC2HCHC2HCHCH4C2PCH2CHCHC3H2CHFeS2FeS2FeSFeS3FeS2FeS2FeSFeS3CFeCFeSCFeSFeSC2HCHC3SH2C3H2C3HCHC7H4C6H4C5H2C6HC7H4C6H2SHC3HC2HC5HCSCH2CHC2HCHCHCHC2HC7HCH2C2HC2H5PCHC7PC2H3CHC11H21C5PC4HC2H2CH2C8H2SCFeCPH2CH2CH6CHCPHSC2HC5H2PC2HCSHCPHCHFeC2SH2CSCHC3HCSC4H5SC3HCH7CHCHC2FeCH2CHC3H3C2SHCH2C4HCSH2SHC3H3C3HCSHC2H3CHCHC3H4C2HC2HCH2CH3PC3HC3HC2HC2H3CHCH3C3H4C2HCFe2HSHCH3C2SHC3SHC2HCFeC3HCHCHCH3SC5HCHFeSCHPHCHC6PCH2C2H3CH3CH2C3SCH3C2H3C2HCHCHC6HCHC2H2CH5CSCPCH3PHC2HCHCHCHCH2CFeHCHCH4SC5H2CHC3HC2HCS2CFeSFeS2FeS2FeSFeS3FeCSHSFeS2FeSFeS2CHSFeSCFeSCFeSFeS3FeSC5H3PC7H4C2HC2HC6H4C6H4C9H4C6H3C6HC5SCHC8H10C6PC10H13CHCH2SFeC4H2C2HC6PC18H20C6PC17H16CSPHCH3C4SC4H3CHCHCHC5H2CSHC2H2CH3CHC2HC4FeC3H3C2SH2C3H2CHCH3CHCHCH2C3FeCHSCH3CH2CHCHCH2C2H2CH2FeHC5HC2HCH2CH2C2HCH2FeCHCHCHSCHFeHCHC3HC2HPHSCSH3C3SHCH2CHCHC2HPFeC3HCH2C2FeHCH3FeH5CH4C3HC2HFeH2C2HC4HCHC3H2CH3SCHFeC2HCHCHC3HS2H2CHSC2SC3HSCHSH2C3FeHFeC3HPH2C2SC2SC2SC3HC2H3CH2CH2C3SC3H2CHCFeH3C4HC2H2CHSHSC3PHCHCHSH5C5SHC2SHC4PCH2FeH2CHCHCHC2H3CHC2H2CHCHCHCHC3HC4H2C2H2CFeC3HC2HC6FeHSFeS2FeCH2S2CH2C9H4C2HPCHC7HC2PH4SHCSC2H3PH2SCH3C2HC2HCH3C2HCH3C3HCHC2HFeS2FeS2FeSFeS3FeS2FeSHFeSFeS3FeCSFeS2CFeSCSFeS2FeS2H2FeS3C2SCHC2H2CH4CFeHC4HC7H4C2H3C6H4C6H4C6HCH2C6H4C6H4C6H4CPH2C4H5C3H3CH3C3HC9PC14H2C2H11CH5CSH3C2HCPC3HPC9H4CH6C4HCH4C2HC2SC2HCH4PHC3H3C7HC2H3CH4C2H2C2H4C2HCHCHC2HC4HC10HCHC5H10CHPC2HCH2CHC2H3C2H4C2HCHC4H2C2HC2HCHC2PC5PHCH3C2HC4HCH3PC4HC3HCHC5PCH2CH2C2HCH2CHC2H3C2H2CH3C2HC2H4C4HCHCHC3HCHC2HCHCH3CHFeH2C2HCSCHCH2C3SCH3CHSC2H4C3HC2FeSCSCSCFeSHFeHSFeCS2C2S2FeS2FeS2FeSFeS3C2HC3H2CHC6H4C6H5C6H3C6H4FeC2HC7PC9HC8H2CH10C2H5CPC5H4C4H7C2HC7HCHCSC3HC3HCHC2HC6PC12H15CSHC2H4C2FeHC2H3CH2C6PCSCHC3PCFe2HC3H5C3H2CSCHCHSHCHC4H2C3HC3H6CHC4HCHC2H2C4PC11H5C3H4C9H4C2HSC2FeH5SHCHFeCHCS2H2C2SHPCHC5H4CHCH2C5HCH3CHCHPFeCHC2HSH2CHCH2C5SC3HC3HC2H3C3H2C2HC3HCH2C4HCH2C3H9C3HCHCHPCHCHCHCHCH2C3H3CSCSCH8CHCH3CHC2HC2H2C2H6C3H2PH2CHC3HSFeS2FeS2FeSFeS3FeSCFeS2CFeSCSFeSFeS2FeSFeHS2HC2HCHCHCHC2HC2H3C5HC6H4C6H5C6H3CH5CHCH2C3HCHC5FeC2H2C4H2C6H2C2PHCH2C2SH5C2HCHC3HCHCHC2H2CHC2HCHC2H3CHC3H2C3HC3SH3C2HSCHC2HCH4C2HSCH9PC2HCHC9PC10H12C6HCH2C2H3C4PHC3H2C2HC2FeHC3H2C4HCHC5H3C2HC3H5SHCH3CH2CHCH2CHPHC3H3C2HCHC3SH2C4HC4H2C3H4C4H2CPC6H2SHSC3FeS2FeCFeS3FeS2FeS2FeSFeHS2FeS2FeS2FeSFeS3FeCFeCSHC7H7C2SHCSHC6H4C2HC2HC8HC6HC6H6C7H3CHCH2CHCHC3HFeH4CH2SH3CHCH4PHPC5H2CSC8PC10H4CH6CH2C6PC4HC13H7CH9SCHFeH2SHC7HC5H2CHCHCH2PC3HC16HCH8CH2C3HFeH5CHCH2CPH4C3H2C2HC2HC2HSC4HCHCSC2HC3H2CHC7HCHCHCHC2H4CHC2HCHCH3C3HC2HC2HC4H2C2H3CH2PC3HCHCH2CHCH2C2H2CH4SCHC3HC2HC4H5CHC3H2C3H2CH3CH3C2H2CH2C2H4CHSPHCHC7HSHC3PFeSHFeS2FeSFeS3FeS2C2S2HC6H4C5H4PH2C3H4C2HC4HPC2H4C7HSCH3C2HCFeHC2HCH5SC4HCHFeCH5C2HCHCHPC2H7CHCHC4H2C6PC12HC3H12CH2C5FeCHSCH3SC2HC4H2C3HC12HC5HCHCH2CHC2H2CH3C2HCHCH3C5H2C6H3PCH4CHC3H2CH2CH2PC2H2C2HCH2C4HC2HCHC3HC2HCHC3HC2HC3HCH2CH3CHCHC2HCHCH2C4H5SH3C3HCH2C
_chemical_formula_sum              "H3072 C3840 Fe256 S512 P128"
_cell_length_a       69.5154
_cell_length_b       89.1372
_cell_length_c       52.8465
_cell_angle_alpha    74.827
_cell_angle_beta     75.6058
_cell_angle_gamma    75.9699

_space_group_name_H-M_alt    "P 1"
_space_group_IT_number       1

loop_
  _space_group_symop_operation_xyz
  'x, y, z'

loop_
  _atom_site_type_symbol
  _atom_site_label
  _atom_site_symmetry_multiplicity
  _atom_site_fract_x
  _atom_site_fract_y
  _atom_site_fract_z
  _atom_site_occupancy
  H   H1        1.0  0.28697  0.22440  0.23605  1.0000
  C   C1        1.0  0.28056  0.10255  0.14403  1.0000
  C   C2        1.0  0.31280  0.21034  0.21528  1.0000
  Fe  Fe1       1.0  0.31112  0.00167  0.14270  1.0000
  C   C3        1.0  0.31436  0.20214  0.99269  1.0000
  S   S1        1.0  0.31461  0.02723  0.12564  1.0000
  H   H2        1.0  0.29130  0.20830  0.28110  1.0000
  C   C4        1.0  0.28002  0.01925  0.22271  1.0000
  H   H3        1.0  0.31282  0.09643  0.14177  1.0000
  H   H4        1.0  0.20940  0.98821  0.21365  1.0000
  H   H5        1.0  0.32291  0.17068  0.05769  1.0000
  C   C5        1.0  0.33052  0.16785  0.18438  1.0000
  C   C6        1.0  0.31329  0.09050  0.25426  1.0000
  C   C7        1.0  0.32901  0.19746  0.21780  1.0000
  H   H6        1.0  0.28840  0.09869  0.23388  1.0000
  C   C8        1.0  0.33114  0.18834  0.24332  1.0000
  H   H7        1.0  0.23726  0.06269  0.23219  1.0000
  H   H8        1.0  0.27672  0.01353  0.26546  1.0000
  C   C9        1.0  0.28143  0.03118  0.19952  1.0000
  C   C10       1.0  0.29138  0.21447  0.43191  1.0000
  H   H9        1.0  0.30979  0.04813  0.25229  1.0000
  C   C11       1.0  0.24861  0.08485  0.26828  1.0000
  C   C12       1.0  0.28635  0.22308  0.45202  1.0000
  H   H10       1.0  0.29249  0.19221  0.42232  1.0000
  C   C13       1.0  0.30162  0.20526  0.26339  1.0000
  H   H11       1.0  0.27392  0.23228  0.29974  1.0000
  C   C14       1.0  0.29905  0.19374  0.00763  1.0000
  C   C15       1.0  0.32725  0.02775  0.17084  1.0000
  H   H12       1.0  0.29035  0.17591  0.04249  1.0000
  C   C16       1.0  0.27927  0.19219  0.46385  1.0000
  H   H13       1.0  0.31475  0.10233  0.25424  1.0000
  H   H14       1.0  0.28095  0.00715  0.22140  1.0000
  H   H15       1.0  0.24804  0.10638  0.15202  1.0000
  H   H16       1.0  0.19838  0.08557  0.29354  1.0000
  H   H17       1.0  0.28900  0.23508  0.44689  1.0000
  C   C17       1.0  0.30211  0.18244  0.03103  1.0000
  H   H18       1.0  0.31079  0.21740  0.19572  1.0000
  C   C18       1.0  0.27769  0.08350  0.19589  1.0000
  C   C19       1.0  0.29831  0.08836  0.24286  1.0000
  H   H19       1.0  0.26090  0.08926  0.27116  1.0000
  H   H20       1.0  0.24533  0.08966  0.19748  1.0000
  C   C20       1.0  0.27678  0.03844  0.24928  1.0000
  H   H21       1.0  0.27666  0.18019  0.46835  1.0000
  C   C21       1.0  0.29807  0.09502  0.15403  1.0000
  C   C22       1.0  0.28113  0.04666  0.20103  1.0000
  H   H22       1.0  0.20357  0.06908  0.26028  1.0000
  H   H23       1.0  0.27463  0.04114  0.26873  1.0000
  C   C23       1.0  0.21321  0.08279  0.28122  1.0000
  C   C24       1.0  0.25168  0.07560  0.24928  1.0000
  C   C25       1.0  0.31002  0.05998  0.25354  1.0000
  C   C26       1.0  0.29622  0.07305  0.24298  1.0000
  H   H24       1.0  0.22722  0.09559  0.29871  1.0000
  C   C27       1.0  0.27879  0.05041  0.22597  1.0000
  C   C28       1.0  0.23527  0.06991  0.24661  1.0000
  H   H25       1.0  0.28345  0.02833  0.18016  1.0000
  C   C29       1.0  0.27771  0.02287  0.24758  1.0000
  H   H26       1.0  0.31039  0.07968  0.18714  1.0000
  C   C30       1.0  0.31416  0.16810  0.14880  1.0000
  H   H27       1.0  0.31947  0.18550  0.28572  1.0000
  H   H28       1.0  0.28291  0.05553  0.18262  1.0000
  C   C31       1.0  0.21613  0.07351  0.26249  1.0000
  P   P1        1.0  0.27634  0.07061  0.22871  1.0000
  C   C32       1.0  0.29923  0.21429  0.23803  1.0000
  H   H29       1.0  0.32525  0.20413  0.14219  1.0000
  C   C33       1.0  0.22944  0.08844  0.28411  1.0000
  H   H30       1.0  0.32537  0.15566  0.25568  1.0000
  C   C34       1.0  0.26013  0.09110  0.18570  1.0000
  C   C35       1.0  0.29665  0.08553  0.17982  1.0000
  C   C36       1.0  0.26160  0.10060  0.15986  1.0000
  C   C37       1.0  0.32516  0.06219  0.26464  1.0000
  H   H31       1.0  0.32367  0.01608  0.17886  1.0000
  H   H32       1.0  0.30757  0.16192  0.13897  1.0000
  C   C38       1.0  0.32669  0.07744  0.26520  1.0000
  H   H33       1.0  0.30989  0.19020  0.12020  1.0000
  C   C39       1.0  0.32461  0.19179  0.15056  1.0000
  C   C40       1.0  0.32416  0.03591  0.14530  1.0000
  H   H34       1.0  0.32757  0.19090  0.46092  1.0000
  H   H35       1.0  0.31484  0.22785  0.47601  1.0000
  C   C41       1.0  0.32041  0.17948  0.03965  1.0000
  C   C42       1.0  0.31751  0.19230  0.26601  1.0000
  C   C43       1.0  0.31556  0.18399  0.13821  1.0000
  H   H36       1.0  0.28483  0.19579  0.00128  1.0000
  C   C44       1.0  0.28799  0.19899  0.43785  1.0000
  S   S2        1.0  0.28375  0.99471  0.17235  1.0000
  C   C45       1.0  0.32137  0.16011  0.17211  1.0000
  H   H37       1.0  0.29846  0.21958  0.41178  1.0000
  H   H38       1.0  0.30962  0.23330  0.00373  1.0000
  H   H39       1.0  0.28176  0.10983  0.12397  1.0000
  H   H40       1.0  0.32021  0.14780  0.18048  1.0000
  C   C46       1.0  0.27849  0.21606  0.47849  1.0000
  S   S3        1.0  0.33206  0.12938  0.23127  1.0000
  C   C47       1.0  0.32870  0.05117  0.13540  1.0000
  H   H41       1.0  0.32648  0.05753  0.11558  1.0000
  C   C48       1.0  0.27788  0.22226  0.86906  1.0000
  S   S4        1.0  0.31264  0.11153  0.71232  1.0000
  H   H42       1.0  0.09504  0.21234  0.61314  1.0000
  C   C49       1.0  0.28301  0.16285  0.67980  1.0000
  C   C50       1.0  0.28559  0.17670  0.74637  1.0000
  C   C51       1.0  0.32017  0.20492  0.69549  1.0000
  C   C52       1.0  0.29116  0.16871  0.77089  1.0000
  C   C53       1.0  0.10778  0.19571  0.68372  1.0000
  H   H43       1.0  0.23439  0.22349  0.80691  1.0000
  H   H44       1.0  0.31112  0.00770  0.67318  1.0000
  C   C54       1.0  0.30297  0.15664  0.66877  1.0000
  C   C55       1.0  0.28153  0.13768  0.71177  1.0000
  H   H45       1.0  0.24663  0.17973  0.81243  1.0000
  H   H46       1.0  0.28309  0.13789  0.64418  1.0000
  H   H47       1.0  0.28694  0.19690  0.87854  1.0000
  H   H48       1.0  0.27307  0.13028  0.72820  1.0000
  H   H49       1.0  0.15256  0.19435  0.78075  1.0000
  C   C56       1.0  0.15253  0.20669  0.77944  1.0000
  H   H50       1.0  0.19976  0.22975  0.54105  1.0000
  C   C57       1.0  0.24188  0.23249  0.87928  1.0000
  C   C58       1.0  0.24923  0.22188  0.79420  1.0000
  C   C59       1.0  0.30744  0.22745  0.65222  1.0000
  H   H51       1.0  0.23698  0.19347  0.76895  1.0000
  C   C60       1.0  0.16948  0.21315  0.76525  1.0000
  H   H52       1.0  0.30254  0.23603  0.63529  1.0000
  P   P2        1.0  0.31549  0.15581  0.77211  1.0000
  H   H53       1.0  0.28795  0.18474  0.60303  1.0000
  C   C61       1.0  0.32793  0.17496  0.82742  1.0000
  C   C62       1.0  0.32034  0.21599  0.90792  1.0000
  C   C63       1.0  0.32812  0.11718  0.61731  1.0000
  C   C64       1.0  0.27040  0.22067  0.75065  1.0000
  C   C65       1.0  0.23169  0.22830  0.52516  1.0000
  H   H54       1.0  0.26468  0.21835  0.82624  1.0000
  C   C66       1.0  0.27236  0.15340  0.70168  1.0000
  H   H55       1.0  0.31730  0.14671  0.56401  1.0000
  C   C67       1.0  0.13543  0.21624  0.79134  1.0000
  C   C68       1.0  0.29266  0.19955  0.53591  1.0000
  C   C69       1.0  0.25104  0.22316  0.76685  1.0000
  C   C70       1.0  0.21133  0.23565  0.52709  1.0000
  H   H56       1.0  0.26221  0.19174  0.72662  1.0000
  C   C71       1.0  0.26616  0.18556  0.74572  1.0000
  C   C72       1.0  0.27433  0.20682  0.87923  1.0000
  C   C73       1.0  0.12820  0.20899  0.73048  1.0000
  C   C74       1.0  0.31774  0.01053  0.73335  1.0000
  H   H57       1.0  0.32769  0.21557  0.86590  1.0000
  C   C75       1.0  0.28782  0.21769  0.76185  1.0000
  C   C76       1.0  0.25205  0.18650  0.76951  1.0000
  S   S5        1.0  0.25041  0.22228  0.68013  1.0000
  C   C77       1.0  0.29597  0.18912  0.55993  1.0000
  C   C78       1.0  0.32897  0.20893  0.88595  1.0000
  C   C79       1.0  0.25751  0.17878  0.79404  1.0000
  C   C80       1.0  0.29340  0.13213  0.77843  1.0000
  H   H58       1.0  0.31115  0.18816  0.67973  1.0000
  C   C81       1.0  0.08028  0.21458  0.70261  1.0000
  C   C82       1.0  0.28575  0.21742  0.78903  1.0000
  C   C83       1.0  0.26644  0.21896  0.80518  1.0000
  H   H59       1.0  0.13031  0.19623  0.73678  1.0000
  S   S6        1.0  0.22178  0.19694  0.71844  1.0000
  S   S7        1.0  0.27202  0.18207  0.66422  1.0000
  C   C84       1.0  0.28497  0.19264  0.58435  1.0000
  C   C85       1.0  0.26739  0.21718  0.56077  1.0000
  H   H60       1.0  0.23559  0.21664  0.53744  1.0000
  C   C86       1.0  0.30828  0.10429  0.78249  1.0000
  C   C87       1.0  0.31484  0.23218  0.67072  1.0000
  C   C88       1.0  0.25383  0.21875  0.95203  1.0000
  H   H61       1.0  0.31215  0.18310  0.79482  1.0000
  C   C89       1.0  0.11308  0.21085  0.57415  1.0000
  C   C90       1.0  0.29617  0.13451  0.62921  1.0000
  H   H62       1.0  0.25691  0.15802  0.71026  1.0000
  Fe  Fe2       1.0  0.22686  0.22104  0.71758  1.0000
  C   C91       1.0  0.27697  0.16983  0.79476  1.0000
  H   H63       1.0  0.30275  0.21604  0.74944  1.0000
  H   H64       1.0  0.29592  0.17608  0.72756  1.0000
  H   H65       1.0  0.17640  0.23562  0.63522  1.0000
  H   H66       1.0  0.31123  0.16386  0.65177  1.0000
  H   H67       1.0  0.30040  0.20800  0.64118  1.0000
  H   H68       1.0  0.28746  0.15418  0.59805  1.0000
  C   C92       1.0  0.26170  0.23523  0.86893  1.0000
  H   H69       1.0  0.30883  0.11410  0.65639  1.0000
  C   C93       1.0  0.11506  0.22928  0.59971  1.0000
  H   H70       1.0  0.10663  0.20132  0.57245  1.0000
  C   C94       1.0  0.31236  0.20038  0.67726  1.0000
  H   H71       1.0  0.28086  0.16361  0.81388  1.0000
  Fe  Fe3       1.0  0.24383  0.19893  0.67911  1.0000
  C   C95       1.0  0.08476  0.22634  0.67988  1.0000
  C   C96       1.0  0.24232  0.23107  0.96424  1.0000
  C   C97       1.0  0.31226  0.14113  0.67925  1.0000
  C   C98       1.0  0.30154  0.13150  0.70055  1.0000
  C   C99       1.0  0.32203  0.23320  0.96184  1.0000
  S   S8        1.0  0.21957  0.21006  0.65467  1.0000
  H   H72       1.0  0.32500  0.19620  0.71231  1.0000
  S   S9        1.0  0.30626  0.21631  0.80398  1.0000
  H   H73       1.0  0.27669  0.11386  0.78285  1.0000
  H   H74       1.0  0.27196  0.22136  0.72951  1.0000
  C   C100      1.0  0.10664  0.21705  0.59725  1.0000
  C   C101      1.0  0.12926  0.23576  0.57824  1.0000
  H   H75       1.0  0.28006  0.14134  0.77752  1.0000
  Fe  Fe4       1.0  0.19800  0.21028  0.69426  1.0000
  C   C102      1.0  0.32302  0.20768  0.93375  1.0000
  H   H76       1.0  0.31842  0.03052  0.83322  1.0000
  H   H77       1.0  0.29142  0.01460  0.71606  1.0000
  C   C103      1.0  0.32019  0.04735  0.79555  1.0000
  H   H78       1.0  0.32760  0.13647  0.67044  1.0000
  H   H79       1.0  0.14920  0.22535  0.62671  1.0000
  C   C104      1.0  0.32481  0.09515  0.53856  1.0000
  S   S10       1.0  0.22850  0.22877  0.75422  1.0000
  H   H80       1.0  0.30759  0.17854  0.55975  1.0000
  S   S11       1.0  0.16733  0.20336  0.70424  1.0000
  H   H81       1.0  0.30189  0.19687  0.51728  1.0000
  C   C105      1.0  0.27473  0.21467  0.95080  1.0000
  C   C106      1.0  0.29135  0.11649  0.78161  1.0000
  H   H82       1.0  0.30675  0.09221  0.78458  1.0000
  H   H83       1.0  0.26077  0.23200  0.62098  1.0000
  C   C107      1.0  0.10592  0.23472  0.72947  1.0000
  H   H84       1.0  0.18266  0.20576  0.75585  1.0000
  C   C108      1.0  0.29869  0.14370  0.60322  1.0000
  H   H85       1.0  0.12222  0.21124  0.80217  1.0000
  C   C109      1.0  0.32325  0.03215  0.81170  1.0000
  H   H86       1.0  0.12482  0.20452  0.64510  1.0000
  C   C110      1.0  0.10940  0.21828  0.73861  1.0000
  C   C111      1.0  0.32952  0.12346  0.77537  1.0000
  C   C112      1.0  0.28432  0.22296  0.96171  1.0000
  C   C113      1.0  0.30620  0.21162  0.65549  1.0000
  C   C114      1.0  0.31076  0.12115  0.63614  1.0000
  H   H87       1.0  0.31312  0.05749  0.80450  1.0000
  C   C115      1.0  0.31581  0.13956  0.58413  1.0000
  H   H88       1.0  0.08865  0.19029  0.72253  1.0000
  H   H89       1.0  0.09724  0.21260  0.75133  1.0000
  C   C116      1.0  0.27789  0.21344  0.53613  1.0000
  C   C117      1.0  0.30774  0.01116  0.71307  1.0000
  H   H90       1.0  0.31182  0.22798  0.90474  1.0000
  C   C118      1.0  0.14140  0.23261  0.70678  1.0000
  C   C119      1.0  0.14567  0.23676  0.63211  1.0000
  H   H91       1.0  0.30942  0.09445  0.53878  1.0000
  H   H92       1.0  0.26767  0.19526  0.50413  1.0000
  H   H93       1.0  0.25187  0.19218  0.89664  1.0000
  H   H94       1.0  0.25672  0.22823  0.56154  1.0000
  H   H95       1.0  0.31932  0.15162  0.71824  1.0000
  H   H96       1.0  0.29321  0.22389  0.86049  1.0000
  C   C120      1.0  0.32465  0.15797  0.80001  1.0000
  C   C121      1.0  0.27074  0.20667  0.58476  1.0000
  C   C122      1.0  0.31254  0.13571  0.77572  1.0000
  C   C123      1.0  0.10025  0.22271  0.65839  1.0000
  C   C124      1.0  0.14433  0.21603  0.71457  1.0000
  C   C125      1.0  0.32732  0.10778  0.77968  1.0000
  C   C126      1.0  0.32177  0.22072  0.69200  1.0000
  H   H97       1.0  0.31562  0.11361  0.56058  1.0000
  S   S12       1.0  0.32941  0.22026  0.53881  1.0000
  S   S13       1.0  0.20134  0.23407  0.69656  1.0000
  P   P3        1.0  0.27313  0.22666  0.50507  1.0000
  H   H98       1.0  0.26258  0.20943  0.60381  1.0000
  C   C127      1.0  0.11207  0.20739  0.66076  1.0000
  H   H99       1.0  0.32836  0.22393  0.70589  1.0000
  H   H100      1.0  0.18261  0.23391  0.75158  1.0000
  C   C128      1.0  0.09174  0.19925  0.70452  1.0000
  H   H101      1.0  0.24653  0.21214  0.94393  1.0000
  Fe  Fe5       1.0  0.22452  0.23310  0.65894  1.0000
  H   H102      1.0  0.13258  0.21227  0.53523  1.0000
  C   C129      1.0  0.32068  0.17293  0.80635  1.0000
  C   C130      1.0  0.32620  0.04950  0.76778  1.0000
  H   H103      1.0  0.06848  0.21759  0.71925  1.0000
  H   H104      1.0  0.11719  0.18400  0.68566  1.0000
  H   H105      1.0  0.30892  0.01335  0.75208  1.0000
  H   H106      1.0  0.32472  0.18650  0.83219  1.0000
  H   H107      1.0  0.28329  0.20480  0.94187  1.0000
  C   C131      1.0  0.27437  0.20072  0.48407  1.0000
  P   P4        1.0  0.31102  0.21665  0.96221  1.0000
  C   C132      1.0  0.13519  0.23230  0.78872  1.0000
  C   C133      1.0  0.25458  0.20419  0.88926  1.0000
  H   H108      1.0  0.22303  0.21494  0.89684  1.0000
  C   C134      1.0  0.23836  0.21702  0.88931  1.0000
  C   C135      1.0  0.31879  0.00727  0.68895  1.0000
  H   H109      1.0  0.22608  0.23406  0.96555  1.0000
  C   C136      1.0  0.16922  0.22923  0.76238  1.0000
  C   C137      1.0  0.32840  0.10600  0.55095  1.0000
  H   H110      1.0  0.32388  0.06130  0.75519  1.0000
  C   C138      1.0  0.33095  0.12648  0.59122  1.0000
  C   C139      1.0  0.27266  0.23544  0.97371  1.0000
  C   C140      1.0  0.12766  0.21705  0.55316  1.0000
  C   C141      1.0  0.33250  0.01906  0.80014  1.0000
  C   C142      1.0  0.24682  0.23601  0.50758  1.0000
  H   H111      1.0  0.29500  0.23417  0.59340  1.0000
  C   C143      1.0  0.13567  0.22955  0.55515  1.0000
  H   H112      1.0  0.14672  0.23453  0.53871  1.0000
  C   C144      1.0  0.33108  0.15776  0.71773  1.0000
  H   H113      1.0  0.06263  0.23676  0.63958  1.0000
  Fe  Fe6       1.0  0.02768  0.40164  0.27178  1.0000
  S   S14       1.0  0.04774  0.39454  0.30228  1.0000
  H   H114      1.0  0.07223  0.47794  0.24372  1.0000
  Fe  Fe7       1.0  0.02457  0.43659  0.26735  1.0000
  S   S15       1.0  0.04467  0.43272  0.29638  1.0000
  C   C145      1.0  0.02282  0.32079  0.45793  1.0000
  Fe  Fe8       1.0  0.06373  0.41372  0.27503  1.0000
  S   S16       1.0  0.09734  0.41329  0.26487  1.0000
  Fe  Fe9       1.0  0.02719  0.41413  0.32075  1.0000
  C   C146      1.0  0.30264  0.25833  0.25845  1.0000
  S   S17       1.0  0.04511  0.41947  0.24333  1.0000
  H   H115      1.0  0.08538  0.40806  0.01986  1.0000
  S   S18       1.0  0.09292  0.42182  0.06598  1.0000
  S   S19       1.0  0.05209  0.39550  0.06970  1.0000
  H   H116      1.0  0.01912  0.44434  0.46273  1.0000
  C   C147      1.0  0.30635  0.27901  0.18761  1.0000
  C   C148      1.0  0.00412  0.44435  0.18243  1.0000
  C   C149      1.0  0.02677  0.46161  0.15430  1.0000
  Fe  Fe10      1.0  0.02824  0.40077  0.10573  1.0000
  S   S20       1.0  0.01693  0.38223  0.14075  1.0000
  H   H117      1.0  0.19378  0.40696  0.05087  1.0000
  S   S21       1.0  0.03923  0.42142  0.11009  1.0000
  H   H118      1.0  0.19137  0.45881  0.11907  1.0000
  C   C150      1.0  0.06244  0.48524  0.20602  1.0000
  C   C151      1.0  0.14601  0.38252  0.08634  1.0000
  C   C152      1.0  0.12107  0.45000  0.01187  1.0000
  Fe  Fe11      1.0  0.18737  0.37211  0.17360  1.0000
  S   S22       1.0  0.21631  0.38158  0.16246  1.0000
  S   S23       1.0  0.17057  0.36483  0.21615  1.0000
  Fe  Fe12      1.0  0.18588  0.37411  0.11592  1.0000
  H   H119      1.0  0.13996  0.42509  0.25396  1.0000
  C   C153      1.0  0.02365  0.44672  0.16958  1.0000
  C   C154      1.0  0.10375  0.44831  0.21224  1.0000
  Fe  Fe13      1.0  0.20127  0.39920  0.13063  1.0000
  C   C155      1.0  0.10850  0.45298  0.15679  1.0000
  S   S24       1.0  0.19950  0.35474  0.14669  1.0000
  S   S25       1.0  0.17195  0.39063  0.14371  1.0000
  C   C156      1.0  0.23694  0.32335  0.20814  1.0000
  H   H120      1.0  0.02244  0.41444  0.45199  1.0000
  C   C157      1.0  0.16448  0.46640  0.10212  1.0000
  H   H121      1.0  0.01648  0.33336  0.34328  1.0000
  Fe  Fe14      1.0  0.06162  0.41723  0.07271  1.0000
  C   C158      1.0  0.12063  0.47253  0.28673  1.0000
  H   H122      1.0  0.07150  0.45724  0.00687  1.0000
  C   C159      1.0  0.31237  0.33375  0.16085  1.0000
  S   S26       1.0  0.06384  0.41775  0.44511  1.0000
  C   C160      1.0  0.00893  0.37213  0.22130  1.0000
  H   H123      1.0  0.07399  0.44445  0.21416  1.0000
  C   C161      1.0  0.02431  0.33485  0.43871  1.0000
  Fe  Fe15      1.0  0.22698  0.36603  0.13242  1.0000
  C   C162      1.0  0.07358  0.45906  0.43518  1.0000
  H   H124      1.0  0.07256  0.44927  0.45243  1.0000
  C   C163      1.0  0.15088  0.44545  0.09569  1.0000
  C   C164      1.0  0.16615  0.43408  0.10675  1.0000
  S   S27       1.0  0.01281  0.41357  0.36405  1.0000
  H   H125      1.0  0.14000  0.44172  0.08840  1.0000
  H   H126      1.0  0.16700  0.42170  0.10770  1.0000
  H   H127      1.0  0.99964  0.38719  0.36202  1.0000
  C   C165      1.0  0.00604  0.37485  0.05569  1.0000
  C   C166      1.0  0.02904  0.47090  0.08654  1.0000
  H   H128      1.0  0.29694  0.33282  0.10509  1.0000
  H   H129      1.0  0.05378  0.48110  0.08816  1.0000
  H   H130      1.0  0.03728  0.45884  0.09036  1.0000
  C   C167      1.0  0.00390  0.45242  0.38141  1.0000
  H   H131      1.0  0.31027  0.24930  0.15584  1.0000
  C   C168      1.0  0.14708  0.39838  0.08284  1.0000
  C   C169      1.0  0.13060  0.41028  0.07663  1.0000
  H   H132      1.0  0.16073  0.40149  0.08451  1.0000
  H   H133      1.0  0.13172  0.42256  0.07307  1.0000
  C   C170      1.0  0.02734  0.41521  0.38582  1.0000
  C   C171      1.0  0.04742  0.41727  0.37685  1.0000
  C   C172      1.0  0.05854  0.41815  0.39516  1.0000
  C   C173      1.0  0.04968  0.41687  0.42237  1.0000
  C   C174      1.0  0.02949  0.41518  0.43113  1.0000
  C   C175      1.0  0.32128  0.31262  0.24656  1.0000
  H   H134      1.0  0.05447  0.41791  0.35600  1.0000
  H   H135      1.0  0.07423  0.41925  0.38844  1.0000
  C   C176      1.0  0.02272  0.45666  0.36941  1.0000
  C   C177      1.0  0.18043  0.40246  0.22185  1.0000
  C   C178      1.0  0.01573  0.38419  0.22702  1.0000
  C   C179      1.0  0.00301  0.37343  0.33300  1.0000
  C   C180      1.0  0.32691  0.25161  0.98554  1.0000
  C   C181      1.0  0.01663  0.38348  0.17366  1.0000
  C   C182      1.0  0.02318  0.39574  0.17929  1.0000
  C   C183      1.0  0.02284  0.39605  0.20597  1.0000
  C   C184      1.0  0.13355  0.46007  0.24039  1.0000
  H   H136      1.0  0.31662  0.33361  0.05315  1.0000
  H   H137      1.0  0.02863  0.40491  0.16322  1.0000
  H   H138      1.0  0.02802  0.40545  0.21021  1.0000
  C   C185      1.0  0.02906  0.47123  0.23325  1.0000
  C   C186      1.0  0.04398  0.47108  0.24684  1.0000
  C   C187      1.0  0.06059  0.47821  0.23327  1.0000
  H   H139      1.0  0.12696  0.41563  0.02281  1.0000
  C   C188      1.0  0.30699  0.30696  0.23884  1.0000
  C   C189      1.0  0.02980  0.46694  0.37948  1.0000
  H   H140      1.0  0.04277  0.46541  0.26774  1.0000
  H   H141      1.0  0.01144  0.36745  0.09600  1.0000
  H   H142      1.0  0.22351  0.33239  0.20568  1.0000
  C   C190      1.0  0.11418  0.39846  0.24955  1.0000
  C   C191      1.0  0.12367  0.40231  0.22264  1.0000
  C   C192      1.0  0.14031  0.39175  0.21176  1.0000
  C   C193      1.0  0.14777  0.37732  0.22775  1.0000
  C   C194      1.0  0.13766  0.37318  0.25434  1.0000
  C   C195      1.0  0.12103  0.38373  0.26525  1.0000
  H   H143      1.0  0.11888  0.41381  0.21049  1.0000
  H   H144      1.0  0.14802  0.39530  0.19149  1.0000
  H   H145      1.0  0.14331  0.36210  0.26691  1.0000
  H   H146      1.0  0.11414  0.38081  0.28621  1.0000
  C   C196      1.0  0.12430  0.45401  0.16783  1.0000
  C   C197      1.0  0.17993  0.45503  0.11290  1.0000
  C   C198      1.0  0.28249  0.38513  0.13662  1.0000
  H   H147      1.0  0.07893  0.45299  0.28020  1.0000
  H   H148      1.0  0.02329  0.48022  0.41063  1.0000
  H   H149      1.0  0.31681  0.32333  0.25427  1.0000
  C   C199      1.0  0.17311  0.42226  0.02639  1.0000
  H   H150      1.0  0.05641  0.45050  0.41533  1.0000
  P   P5        1.0  0.29468  0.28542  0.21856  1.0000
  C   C200      1.0  0.18114  0.43887  0.11453  1.0000
  C   C201      1.0  0.03364  0.47870  0.99242  1.0000
  S   S28       1.0  0.21402  0.38446  0.09957  1.0000
  H   H151      1.0  0.15820  0.44572  0.25933  1.0000
  C   C202      1.0  0.00318  0.37537  0.35832  1.0000
  H   H152      1.0  0.31792  0.26036  0.25452  1.0000
  H   H153      1.0  0.12827  0.39001  0.01259  1.0000
  H   H154      1.0  0.25746  0.27230  0.23818  1.0000
  C   C203      1.0  0.25070  0.31929  0.18566  1.0000
  C   C204      1.0  0.11841  0.45555  0.03522  1.0000
  H   H155      1.0  0.03111  0.36333  0.45256  1.0000
  C   C205      1.0  0.26844  0.39121  0.11989  1.0000
  C   C206      1.0  0.27474  0.39219  0.09239  1.0000
  C   C207      1.0  0.24066  0.31591  0.23370  1.0000
  Fe  Fe16      1.0  0.01879  0.43590  0.08228  1.0000
  H   H156      1.0  0.24844  0.24953  0.27377  1.0000
  C   C208      1.0  0.01801  0.47249  0.40218  1.0000
  H   H157      1.0  0.04903  0.38469  0.00845  1.0000
  H   H158      1.0  0.24792  0.32521  0.16581  1.0000
  H   H159      1.0  0.33011  0.26666  0.11944  1.0000
  C   C209      1.0  0.06580  0.47224  0.39140  1.0000
  H   H160      1.0  0.16856  0.41236  0.02281  1.0000
  C   C210      1.0  0.11657  0.47226  0.24267  1.0000
  S   S29       1.0  0.20238  0.42509  0.12415  1.0000
  C   C211      1.0  0.28819  0.26845  0.24414  1.0000
  C   C212      1.0  0.00943  0.37176  0.19481  1.0000
  H   H161      1.0  0.00256  0.41380  0.41945  1.0000
  C   C213      1.0  0.00647  0.44719  0.47862  1.0000
  C   C214      1.0  0.29437  0.34241  0.17320  1.0000
  C   C215      1.0  0.01038  0.47423  0.15218  1.0000
  H   H162      1.0  0.29969  0.38809  0.06017  1.0000
  H   H163      1.0  0.04191  0.46342  0.14420  1.0000
  P   P6        1.0  0.14611  0.44238  0.99475  1.0000
  C   C216      1.0  0.17776  0.46511  0.18546  1.0000
  C   C217      1.0  0.27847  0.34469  0.13591  1.0000
  C   C218      1.0  0.25812  0.30440  0.23677  1.0000
  C   C219      1.0  0.08586  0.48313  0.41128  1.0000
  H   H164      1.0  0.29481  0.25715  0.19897  1.0000
  H   H165      1.0  0.00427  0.36229  0.19068  1.0000
  C   C220      1.0  0.15027  0.46163  0.09275  1.0000
  H   H166      1.0  0.03950  0.37815  0.36648  1.0000
  C   C221      1.0  0.17065  0.45041  0.02170  1.0000
  C   C222      1.0  0.30364  0.26477  0.18347  1.0000
  H   H167      1.0  0.09724  0.38445  0.99956  1.0000
  H   H168      1.0  0.26375  0.35468  0.17031  1.0000
  H   H169      1.0  0.10502  0.43147  0.29816  1.0000
  H   H170      1.0  0.07227  0.38443  0.36499  1.0000
  C   C223      1.0  0.32116  0.24961  0.47879  1.0000
  C   C224      1.0  0.08799  0.44720  0.20117  1.0000
  C   C225      1.0  0.09026  0.44971  0.17344  1.0000
  S   S30       1.0  0.00596  0.41563  0.08085  1.0000
  C   C226      1.0  0.13564  0.39884  0.99761  1.0000
  H   H171      1.0  0.03636  0.43697  0.17151  1.0000
  P   P7        1.0  0.14248  0.45298  0.20973  1.0000
  C   C227      1.0  0.00402  0.31826  0.47363  1.0000
  S   S31       1.0  0.08179  0.48627  0.11767  1.0000
  H   H172      1.0  0.07250  0.43377  0.99315  1.0000
  H   H173      1.0  0.27750  0.38408  0.15802  1.0000
  C   C228      1.0  0.08424  0.47076  0.43386  1.0000
  H   H174      1.0  0.13109  0.45471  0.04411  1.0000
  C   C229      1.0  0.31331  0.33046  0.13608  1.0000
  C   C230      1.0  0.30286  0.37998  0.12591  1.0000
  C   C231      1.0  0.09754  0.43718  0.33707  1.0000
  C   C232      1.0  0.07000  0.45950  0.34343  1.0000
  C   C233      1.0  0.12181  0.45216  0.19558  1.0000
  H   H175      1.0  0.01290  0.48576  0.14032  1.0000
  H   H176      1.0  0.26085  0.29880  0.25671  1.0000
  H   H177      1.0  0.19619  0.40977  0.18142  1.0000
  C   C234      1.0  0.29631  0.33572  0.12393  1.0000
  C   C235      1.0  0.18499  0.44719  0.03781  1.0000
  C   C236      1.0  0.00781  0.35830  0.32757  1.0000
  H   H178      1.0  0.29349  0.34491  0.19245  1.0000
  H   H179      1.0  0.20413  0.42905  0.06124  1.0000
  C   C237      1.0  0.12820  0.37856  0.08418  1.0000
  C   C238      1.0  0.01268  0.34508  0.34756  1.0000
  C   C239      1.0  0.09911  0.46201  0.04778  1.0000
  C   C240      1.0  0.31849  0.23891  0.98532  1.0000
  C   C241      1.0  0.19349  0.43154  0.04805  1.0000
  C   C242      1.0  0.06442  0.45979  0.41405  1.0000
  H   H180      1.0  0.13842  0.45630  0.15466  1.0000
  C   C243      1.0  0.03042  0.47890  0.20638  1.0000
  C   C244      1.0  0.01831  0.41461  0.41279  1.0000
  S   S32       1.0  0.01451  0.38398  0.26086  1.0000
  H   H181      1.0  0.09139  0.47013  0.45025  1.0000
  H   H182      1.0  0.02027  0.36812  0.04718  1.0000
  H   H183      1.0  0.09760  0.38742  0.07765  1.0000
  H   H184      1.0  0.27889  0.30538  0.17076  1.0000
  H   H185      1.0  0.08449  0.38068  0.40694  1.0000
  S   S33       1.0  0.04218  0.43392  0.04533  1.0000
  H   H186      1.0  0.16388  0.46262  0.01447  1.0000
  H   H187      1.0  0.11568  0.47728  0.30465  1.0000
  C   C245      1.0  0.16452  0.43797  0.01591  1.0000
  H   H188      1.0  0.14621  0.45619  0.30046  1.0000
  S   S34       1.0  0.01953  0.41435  0.00760  1.0000
  H   H189      1.0  0.06730  0.46748  0.04734  1.0000
  C   C246      1.0  0.29511  0.38721  0.08155  1.0000
  H   H190      1.0  0.09727  0.46613  0.06596  1.0000
  C   C247      1.0  0.07675  0.48386  0.39003  1.0000
  C   C248      1.0  0.15728  0.43321  0.21453  1.0000
  S   S35       1.0  0.25785  0.35126  0.11914  1.0000
  C   C249      1.0  0.27750  0.34795  0.16072  1.0000
  C   C250      1.0  0.31799  0.28854  0.16710  1.0000
  H   H191      1.0  0.29161  0.31346  0.24088  1.0000
  C   C251      1.0  0.08469  0.45701  0.01434  1.0000
  C   C252      1.0  0.26357  0.25201  0.26949  1.0000
  C   C253      1.0  0.08058  0.45150  0.30064  1.0000
  H   H192      1.0  0.03900  0.33666  0.42677  1.0000
  H   H193      1.0  0.17548  0.43641  0.17441  1.0000
  H   H194      1.0  0.10886  0.42759  0.34497  1.0000
  H   H195      1.0  0.01617  0.46054  0.01254  1.0000
  C   C254      1.0  0.09536  0.43932  0.31074  1.0000
  H   H196      1.0  0.18912  0.39048  0.22444  1.0000
  C   C255      1.0  0.31231  0.26030  0.15900  1.0000
  H   H197      1.0  0.24283  0.24890  0.98473  1.0000
  C   C256      1.0  0.06788  0.46152  0.31689  1.0000
  C   C257      1.0  0.26871  0.26498  0.24946  1.0000
  C   C258      1.0  0.30937  0.38101  0.09822  1.0000
  H   H198      1.0  0.18582  0.45451  0.19662  1.0000
  H   H199      1.0  0.06393  0.37004  0.45051  1.0000
  H   H200      1.0  0.01679  0.33659  0.38805  1.0000
  H   H201      1.0  0.01888  0.47895  0.19604  1.0000
  H   H202      1.0  0.26371  0.39664  0.07958  1.0000
  H   H203      1.0  0.07795  0.44904  0.16491  1.0000
  H   H204      1.0  0.10561  0.44593  0.98419  1.0000
  Fe  Fe17      1.0  0.03056  0.41264  0.04517  1.0000
  C   C259      1.0  0.18756  0.41910  0.04234  1.0000
  H   H205      1.0  0.11047  0.45476  0.13529  1.0000
  S   S36       1.0  0.16710  0.36766  0.09256  1.0000
  H   H206      1.0  0.30968  0.35860  0.06811  1.0000
  C   C260      1.0  0.08227  0.46279  0.03729  1.0000
  H   H207      1.0  0.18895  0.45680  0.04323  1.0000
  H   H208      1.0  0.10186  0.44609  0.23377  1.0000
  H   H209      1.0  0.08697  0.44523  0.37371  1.0000
  C   C261      1.0  0.27208  0.30026  0.21424  1.0000
  C   C262      1.0  0.29751  0.24529  0.27826  1.0000
  C   C263      1.0  0.32641  0.28414  0.14259  1.0000
  C   C264      1.0  0.00695  0.34653  0.43520  1.0000
  H   H210      1.0  0.16084  0.39825  0.26050  1.0000
  C   C265      1.0  0.27791  0.24225  0.28405  1.0000
  C   C266      1.0  0.07906  0.33401  0.15041  1.0000
  C   C267      1.0  0.06769  0.34332  0.13153  1.0000
  C   C268      1.0  0.06567  0.35977  0.12572  1.0000
  C   C269      1.0  0.07490  0.36699  0.13878  1.0000
  C   C270      1.0  0.08618  0.35772  0.15800  1.0000
  C   C271      1.0  0.08823  0.34117  0.16363  1.0000
  P   P8        1.0  0.09751  0.36651  0.17647  1.0000
  C   C272      1.0  0.08291  0.36609  0.20989  1.0000
  C   C273      1.0  0.12254  0.35474  0.17748  1.0000
  C   C274      1.0  0.12953  0.34876  0.20162  1.0000
  C   C275      1.0  0.14852  0.33895  0.20205  1.0000
  C   C276      1.0  0.16069  0.33505  0.17847  1.0000
  C   C277      1.0  0.15392  0.34104  0.15437  1.0000
  C   C278      1.0  0.13494  0.35085  0.15385  1.0000
  C   C279      1.0  0.06724  0.35742  0.22014  1.0000
  C   C280      1.0  0.05697  0.35652  0.24667  1.0000
  C   C281      1.0  0.06213  0.36436  0.26300  1.0000
  C   C282      1.0  0.07736  0.37331  0.25269  1.0000
  C   C283      1.0  0.08760  0.37429  0.22618  1.0000
  C   C284      1.0  0.09872  0.38701  0.16135  1.0000
  C   C285      1.0  0.08077  0.39834  0.16059  1.0000
  C   C286      1.0  0.08146  0.41419  0.14846  1.0000
  C   C287      1.0  0.10009  0.41895  0.13801  1.0000
  C   C288      1.0  0.11799  0.40793  0.14019  1.0000
  C   C289      1.0  0.11737  0.39196  0.15147  1.0000
  H   H211      1.0  0.08064  0.32125  0.15496  1.0000
  H   H212      1.0  0.06033  0.33785  0.12150  1.0000
  H   H213      1.0  0.05659  0.36696  0.11140  1.0000
  H   H214      1.0  0.07307  0.37974  0.13375  1.0000
  H   H215      1.0  0.09682  0.33380  0.17845  1.0000
  H   H216      1.0  0.12061  0.35169  0.22016  1.0000
  H   H217      1.0  0.15410  0.33482  0.22057  1.0000
  H   H218      1.0  0.17561  0.32778  0.17876  1.0000
  H   H219      1.0  0.16358  0.33844  0.13589  1.0000
  H   H220      1.0  0.13002  0.35553  0.13494  1.0000
  H   H221      1.0  0.06271  0.35149  0.20778  1.0000
  H   H222      1.0  0.04458  0.35015  0.25438  1.0000
  H   H223      1.0  0.05388  0.36385  0.28340  1.0000
  H   H224      1.0  0.08124  0.37959  0.26513  1.0000
  H   H225      1.0  0.09948  0.38120  0.21849  1.0000
  H   H226      1.0  0.06624  0.39482  0.16897  1.0000
  H   H227      1.0  0.06761  0.42277  0.14686  1.0000
  H   H228      1.0  0.10070  0.43112  0.12791  1.0000
  H   H229      1.0  0.13240  0.41171  0.13238  1.0000
  H   H230      1.0  0.13145  0.38358  0.15234  1.0000
  C   C290      1.0  0.05858  0.37158  0.43221  1.0000
  C   C291      1.0  0.07028  0.37746  0.40763  1.0000
  C   C292      1.0  0.06340  0.37956  0.38403  1.0000
  C   C293      1.0  0.04469  0.37598  0.38500  1.0000
  C   C294      1.0  0.03282  0.37001  0.40962  1.0000
  C   C295      1.0  0.03993  0.36788  0.43326  1.0000
  P   P9        1.0  0.00883  0.36491  0.41107  1.0000
  C   C296      1.0  0.11135  0.39049  0.07911  1.0000
  C   C297      1.0  0.04568  0.38915  0.98862  1.0000
  H   H231      1.0  0.32440  0.40956  0.07145  1.0000
  H   H232      1.0  0.00334  0.36296  0.23744  1.0000
  H   H233      1.0  0.02600  0.48638  0.00626  1.0000
  C   C298      1.0  0.09187  0.39587  0.98756  1.0000
  H   H234      1.0  0.13031  0.48402  0.17611  1.0000
  C   C299      1.0  0.10400  0.45055  0.00172  1.0000
  C   C300      1.0  0.14662  0.48172  0.17402  1.0000
  H   H235      1.0  0.32706  0.32380  0.12638  1.0000
  H   H236      1.0  0.25263  0.25675  0.47677  1.0000
  C   C301      1.0  0.32356  0.27004  0.13850  1.0000
  H   H237      1.0  0.32459  0.25568  0.00391  1.0000
  C   C302      1.0  0.18433  0.41323  0.19757  1.0000
  C   C303      1.0  0.17261  0.42845  0.19373  1.0000
  C   C304      1.0  0.14445  0.45454  0.26117  1.0000
  C   C305      1.0  0.26831  0.30794  0.18861  1.0000
  C   C306      1.0  0.15283  0.42213  0.23848  1.0000
  C   C307      1.0  0.11262  0.40638  0.07521  1.0000
  H   H238      1.0  0.12740  0.36628  0.08668  1.0000
  C   C308      1.0  0.15673  0.46745  0.18770  1.0000
  H   H239      1.0  0.25262  0.39499  0.12824  1.0000
  C   C309      1.0  0.31284  0.29337  0.22796  1.0000
  H   H240      1.0  0.23004  0.31919  0.25109  1.0000
  H   H241      1.0  0.10858  0.47715  0.22633  1.0000
  H   H242      1.0  0.16420  0.47887  0.09977  1.0000
  H   H243      1.0  0.03169  0.45175  0.35252  1.0000
  C   C310      1.0  0.03836  0.48348  0.08538  1.0000
  C   C311      1.0  0.16459  0.40688  0.24225  1.0000
  C   C312      1.0  0.08499  0.44725  0.35334  1.0000
  H   H244      1.0  0.31325  0.37513  0.13946  1.0000
  C   C313      1.0  0.00893  0.47397  0.08343  1.0000
  C   C314      1.0  0.08496  0.40911  0.99906  1.0000
  H   H245      1.0  0.00219  0.43265  0.19396  1.0000
  C   C315      1.0  0.04722  0.48581  0.19261  1.0000
  H   H246      1.0  0.05653  0.47085  0.30860  1.0000
  H   H247      1.0  0.03631  0.31195  0.46089  1.0000
  H   H248      1.0  0.02102  0.47828  0.32180  1.0000
  C   C316      1.0  0.13783  0.46061  0.28441  1.0000
  S   S37       1.0  0.00952  0.46086  0.24933  1.0000
  S   S38       1.0  0.00559  0.41931  0.29303  1.0000
  H   H249      1.0  0.00175  0.38367  0.45196  1.0000
  C   C317      1.0  0.11008  0.47844  0.26577  1.0000
  C   C318      1.0  0.00111  0.37448  0.08309  1.0000
  P   P10       1.0  0.05398  0.47279  0.36424  1.0000
  C   C319      1.0  0.18861  0.47653  0.16872  1.0000
  S   S39       1.0  0.13437  0.47556  0.07280  1.0000
  C   C320      1.0  0.00800  0.36218  0.37860  1.0000
  C   C321      1.0  0.32473  0.35147  0.06703  1.0000
  C   C322      1.0  0.13498  0.41335  0.00350  1.0000
  C   C323      1.0  0.01280  0.34699  0.37299  1.0000
  C   C324      1.0  0.02806  0.46415  0.99594  1.0000
  H   H250      1.0  0.00786  0.35690  0.30777  1.0000
  H   H251      1.0  0.32036  0.29949  0.16999  1.0000
  H   H252      1.0  0.20487  0.47452  0.16666  1.0000
  C   C325      1.0  0.32860  0.33723  0.05853  1.0000
  C   C326      1.0  0.00830  0.48633  0.31451  1.0000
  C   C327      1.0  0.14517  0.42466  0.98500  1.0000
  H   H253      1.0  0.21667  0.26964  0.48041  1.0000
  C   C328      1.0  0.07750  0.42375  0.98379  1.0000
  C   C329      1.0  0.03203  0.40337  0.98311  1.0000
  C   C330      1.0  0.99938  0.46799  0.41435  1.0000
  H   H254      1.0  0.99936  0.38369  0.31746  1.0000
  H   H255      1.0  0.30884  0.23751  0.28910  1.0000
  C   C331      1.0  0.09038  0.45160  0.91587  1.0000
  C   C332      1.0  0.19331  0.31107  0.60823  1.0000
  C   C333      1.0  0.15224  0.27553  0.71553  1.0000
  S   S40       1.0  0.07357  0.34659  0.52432  1.0000
  C   C334      1.0  0.25572  0.26664  0.66088  1.0000
  Fe  Fe18      1.0  0.07296  0.29526  0.66749  1.0000
  S   S41       1.0  0.06197  0.27256  0.67462  1.0000
  S   S42       1.0  0.09700  0.30143  0.63117  1.0000
  Fe  Fe19      1.0  0.04828  0.30275  0.72018  1.0000
  S   S43       1.0  0.03532  0.28055  0.73149  1.0000
  S   S44       1.0  0.03530  0.32095  0.74583  1.0000
  Fe  Fe20      1.0  0.06726  0.26882  0.71615  1.0000
  H   H256      1.0  0.07429  0.46757  0.88605  1.0000
  Fe  Fe21      1.0  0.03104  0.28618  0.68895  1.0000
  C   C335      1.0  0.11778  0.36362  0.57834  1.0000
  S   S45       1.0  0.08036  0.29054  0.70826  1.0000
  S   S46       1.0  0.04201  0.30930  0.67861  1.0000
  Fe  Fe22      1.0  0.04981  0.38214  0.88017  1.0000
  S   S47       1.0  0.04215  0.36219  0.86842  1.0000
  S   S48       1.0  0.06399  0.37665  0.91654  1.0000
  Fe  Fe23      1.0  0.03523  0.40642  0.83340  1.0000
  S   S49       1.0  0.02606  0.38863  0.81780  1.0000
  S   S50       1.0  0.02885  0.43252  0.81483  1.0000
  Fe  Fe24      1.0  0.01342  0.37904  0.86091  1.0000
  C   C336      1.0  0.12623  0.27104  0.77603  1.0000
  Fe  Fe25      1.0  0.05538  0.37316  0.82632  1.0000
  S   S51       1.0  0.07637  0.35831  0.79794  1.0000
  S   S52       1.0  0.01995  0.39820  0.87594  1.0000
  S   S53       1.0  0.06575  0.39181  0.83859  1.0000
  C   C337      1.0  0.05284  0.44226  0.91510  1.0000
  C   C338      1.0  0.08871  0.46322  0.89232  1.0000
  P   P11       1.0  0.10596  0.23783  0.62885  1.0000
  C   C339      1.0  0.02751  0.40895  0.95751  1.0000
  H   H257      1.0  0.27576  0.28791  0.76333  1.0000
  H   H258      1.0  0.26706  0.25670  0.52167  1.0000
  C   C340      1.0  0.15777  0.32361  0.61324  1.0000
  C   C341      1.0  0.11109  0.36965  0.55422  1.0000
  H   H259      1.0  0.13097  0.33803  0.52513  1.0000
  S   S54       1.0  0.22357  0.25524  0.62663  1.0000
  C   C342      1.0  0.17808  0.32443  0.61097  1.0000
  H   H260      1.0  0.19026  0.28423  0.66252  1.0000
  C   C343      1.0  0.02015  0.43106  0.60877  1.0000
  C   C344      1.0  0.17460  0.45604  0.95381  1.0000
  C   C345      1.0  0.24767  0.25633  0.60653  1.0000
  C   C346      1.0  0.26346  0.24315  0.60794  1.0000
  C   C347      1.0  0.08111  0.33815  0.65964  1.0000
  H   H261      1.0  0.14052  0.44846  0.91443  1.0000
  C   C348      1.0  0.15590  0.40701  0.95388  1.0000
  C   C349      1.0  0.16175  0.28173  0.68952  1.0000
  H   H262      1.0  0.28895  0.27621  0.51289  1.0000
  C   C350      1.0  0.05961  0.47297  0.95418  1.0000
  H   H263      1.0  0.00930  0.46264  0.65666  1.0000
  C   C351      1.0  0.06460  0.24868  0.62946  1.0000
  H   H264      1.0  0.02329  0.43518  0.74162  1.0000
  C   C352      1.0  0.06883  0.27950  0.60231  1.0000
  H   H265      1.0  0.11964  0.25468  0.70685  1.0000
  C   C353      1.0  0.12203  0.24195  0.71356  1.0000
  S   S55       1.0  0.31104  0.26142  0.55914  1.0000
  H   H266      1.0  0.24111  0.28773  0.63706  1.0000
  S   S56       1.0  0.03286  0.41629  0.52004  1.0000
  C   C354      1.0  0.04750  0.26021  0.62455  1.0000
  H   H267      1.0  0.12189  0.23934  0.79852  1.0000
  C   C355      1.0  0.12580  0.24552  0.63482  1.0000
  H   H268      1.0  0.05753  0.42915  0.85814  1.0000
  H   H269      1.0  0.13355  0.28702  0.79541  1.0000
  H   H270      1.0  0.19433  0.25931  0.74268  1.0000
  S   S57       1.0  0.08136  0.24543  0.73978  1.0000
  C   C356      1.0  0.12190  0.28384  0.78873  1.0000
  H   H271      1.0  0.14298  0.32724  0.56741  1.0000
  C   C357      1.0  0.04748  0.33165  0.75862  1.0000
  C   C358      1.0  0.06839  0.32826  0.75707  1.0000
  C   C359      1.0  0.07714  0.33655  0.76915  1.0000
  C   C360      1.0  0.06509  0.34840  0.78238  1.0000
  C   C361      1.0  0.04426  0.35201  0.78328  1.0000
  C   C362      1.0  0.03549  0.34364  0.77151  1.0000
  H   H272      1.0  0.07773  0.31903  0.74721  1.0000
  H   H273      1.0  0.09322  0.33357  0.76874  1.0000
  H   H274      1.0  0.03481  0.36101  0.79357  1.0000
  H   H275      1.0  0.01928  0.34625  0.77288  1.0000
  C   C363      1.0  0.07948  0.33446  0.55468  1.0000
  C   C364      1.0  0.06876  0.33746  0.57963  1.0000
  C   C365      1.0  0.07329  0.32697  0.60338  1.0000
  C   C366      1.0  0.08947  0.31408  0.60218  1.0000
  C   C367      1.0  0.10052  0.31140  0.57724  1.0000
  C   C368      1.0  0.09514  0.32124  0.55365  1.0000
  H   H276      1.0  0.05689  0.34774  0.58059  1.0000
  H   H277      1.0  0.06460  0.32906  0.62253  1.0000
  H   H278      1.0  0.11303  0.30149  0.57615  1.0000
  H   H279      1.0  0.10345  0.31882  0.53448  1.0000
  C   C369      1.0  0.06803  0.44741  0.73275  1.0000
  C   C370      1.0  0.05002  0.45738  0.74141  1.0000
  C   C371      1.0  0.03827  0.45287  0.76692  1.0000
  C   C372      1.0  0.04436  0.43831  0.78364  1.0000
  C   C373      1.0  0.06260  0.42852  0.77523  1.0000
  C   C374      1.0  0.07447  0.43311  0.74988  1.0000
  H   H280      1.0  0.04510  0.46847  0.72840  1.0000
  H   H281      1.0  0.02428  0.46053  0.77351  1.0000
  H   H282      1.0  0.06746  0.41730  0.78805  1.0000
  H   H283      1.0  0.08841  0.42538  0.74325  1.0000
  C   C375      1.0  0.06899  0.42386  0.57729  1.0000
  C   C376      1.0  0.07037  0.42832  0.60017  1.0000
  C   C377      1.0  0.07392  0.44339  0.59854  1.0000
  H   H284      1.0  0.06846  0.42020  0.61931  1.0000
  H   H285      1.0  0.07537  0.44652  0.61624  1.0000
  C   C378      1.0  0.25175  0.23945  0.97498  1.0000
  H   H286      1.0  0.20900  0.31174  0.60623  1.0000
  C   C379      1.0  0.24124  0.25082  0.49107  1.0000
  H   H287      1.0  0.24030  0.24673  0.82658  1.0000
  S   S58       1.0  0.00351  0.28742  0.67137  1.0000
  C   C380      1.0  0.02151  0.44683  0.60572  1.0000
  C   C381      1.0  0.05500  0.38072  0.96826  1.0000
  C   C382      1.0  0.05090  0.38661  0.94237  1.0000
  C   C383      1.0  0.03702  0.40070  0.93714  1.0000
  C   C384      1.0  0.12606  0.45256  0.90825  1.0000
  C   C385      1.0  0.04933  0.48314  0.97146  1.0000
  C   C386      1.0  0.04960  0.27565  0.61122  1.0000
  H   H288      1.0  0.03390  0.40541  0.91730  1.0000
  H   H289      1.0  0.16563  0.23849  0.81688  1.0000
  C   C387      1.0  0.03165  0.44663  0.92095  1.0000
  C   C388      1.0  0.32707  0.26920  0.69721  1.0000
  C   C389      1.0  0.17462  0.27562  0.78644  1.0000
  C   C390      1.0  0.00589  0.33203  0.84737  1.0000
  H   H290      1.0  0.31776  0.26768  0.76413  1.0000
  C   C391      1.0  0.23929  0.28323  0.86417  1.0000
  H   H291      1.0  0.30476  0.24601  0.82025  1.0000
  C   C392      1.0  0.05038  0.43419  0.87556  1.0000
  H   H292      1.0  0.13637  0.32057  0.66841  1.0000
  H   H293      1.0  0.16417  0.42970  0.94566  1.0000
  H   H294      1.0  0.14337  0.37563  0.67137  1.0000
  H   H295      1.0  0.32001  0.26019  0.60859  1.0000
  H   H296      1.0  0.16273  0.39277  0.63390  1.0000
  C   C393      1.0  0.14757  0.37299  0.65160  1.0000
  C   C394      1.0  0.22217  0.28792  0.90811  1.0000
  C   C395      1.0  0.00300  0.43858  0.57143  1.0000
  H   H297      1.0  0.27408  0.24665  0.68173  1.0000
  C   C396      1.0  0.29643  0.26140  0.87565  1.0000
  C   C397      1.0  0.01444  0.33777  0.62526  1.0000
  C   C398      1.0  0.22605  0.29310  0.88030  1.0000
  C   C399      1.0  0.04010  0.47150  0.81613  1.0000
  C   C400      1.0  0.09703  0.34177  0.63852  1.0000
  Fe  Fe26      1.0  0.05414  0.40054  0.54607  1.0000
  C   C401      1.0  0.16676  0.47944  0.91968  1.0000
  H   H298      1.0  0.13736  0.30838  0.61465  1.0000
  C   C402      1.0  0.13427  0.33913  0.56409  1.0000
  H   H299      1.0  0.09338  0.34909  0.61989  1.0000
  H   H300      1.0  0.09670  0.38702  0.95180  1.0000
  C   C403      1.0  0.32771  0.27269  0.72128  1.0000
  C   C404      1.0  0.07262  0.47557  0.78833  1.0000
  H   H301      1.0  0.02596  0.32767  0.62073  1.0000
  C   C405      1.0  0.33216  0.25600  0.85621  1.0000
  H   H302      1.0  0.05549  0.31634  0.82753  1.0000
  C   C406      1.0  0.14591  0.39571  0.97269  1.0000
  H   H303      1.0  0.15099  0.47593  0.73397  1.0000
  C   C407      1.0  0.08382  0.41190  0.94549  1.0000
  H   H304      1.0  0.00003  0.37136  0.51606  1.0000
  H   H305      1.0  0.03459  0.38188  0.62910  1.0000
  C   C408      1.0  0.01998  0.44464  0.90439  1.0000
  C   C409      1.0  0.03918  0.31751  0.83177  1.0000
  H   H306      1.0  0.08331  0.41252  0.92499  1.0000
  C   C410      1.0  0.10916  0.44639  0.92385  1.0000
  C   C411      1.0  0.03346  0.47756  0.52681  1.0000
  C   C412      1.0  0.10226  0.29278  0.79291  1.0000
  Fe  Fe27      1.0  0.01774  0.39530  0.52954  1.0000
  S   S59       1.0  0.07581  0.39093  0.51237  1.0000
  H   H307      1.0  0.07634  0.23829  0.67942  1.0000
  H   H308      1.0  0.18225  0.33536  0.61097  1.0000
  C   C413      1.0  0.00930  0.30857  0.83042  1.0000
  C   C414      1.0  0.23158  0.27287  0.91984  1.0000
  C   C415      1.0  0.24480  0.26296  0.90377  1.0000
  H   H309      1.0  0.00293  0.30022  0.82501  1.0000
  C   C416      1.0  0.12761  0.34523  0.53989  1.0000
  C   C417      1.0  0.10495  0.32216  0.68700  1.0000
  C   C418      1.0  0.08500  0.32856  0.68396  1.0000
  H   H310      1.0  0.02917  0.44997  0.61852  1.0000
  H   H311      1.0  0.10793  0.31441  0.70572  1.0000
  H   H312      1.0  0.07248  0.32588  0.70021  1.0000
  H   H313      1.0  0.06570  0.34251  0.65686  1.0000
  C   C419      1.0  0.24811  0.25577  0.81319  1.0000
  H   H314      1.0  0.28201  0.27864  0.80939  1.0000
  H   H315      1.0  0.11362  0.25806  0.75669  1.0000
  C   C420      1.0  0.01304  0.48242  0.52471  1.0000
  C   C421      1.0  0.03834  0.45393  0.97880  1.0000
  H   H316      1.0  0.27951  0.24193  0.98257  1.0000
  H   H317      1.0  0.29476  0.24330  0.72152  1.0000
  C   C422      1.0  0.03941  0.37771  0.64819  1.0000
  C   C423      1.0  0.03183  0.36527  0.66717  1.0000
  C   C424      1.0  0.03816  0.35996  0.69167  1.0000
  C   C425      1.0  0.05225  0.36697  0.69709  1.0000
  C   C426      1.0  0.06024  0.37929  0.67789  1.0000
  C   C427      1.0  0.05327  0.38488  0.65371  1.0000
  P   P12       1.0  0.07636  0.38964  0.68628  1.0000
  C   C428      1.0  0.09357  0.37660  0.70658  1.0000
  C   C429      1.0  0.09252  0.39946  0.65765  1.0000
  C   C430      1.0  0.09855  0.41319  0.65879  1.0000
  C   C431      1.0  0.11078  0.42105  0.63659  1.0000
  C   C432      1.0  0.11730  0.41517  0.61322  1.0000
  C   C433      1.0  0.11191  0.40125  0.61221  1.0000
  C   C434      1.0  0.09978  0.39327  0.63447  1.0000
  C   C435      1.0  0.10027  0.36070  0.70471  1.0000
  C   C436      1.0  0.11387  0.35071  0.72024  1.0000
  C   C437      1.0  0.12083  0.35654  0.73772  1.0000
  C   C438      1.0  0.11461  0.37246  0.73918  1.0000
  C   C439      1.0  0.10126  0.38253  0.72338  1.0000
  C   C440      1.0  0.05926  0.40394  0.70384  1.0000
  C   C441      1.0  0.05085  0.41868  0.68947  1.0000
  C   C442      1.0  0.03788  0.42994  0.70304  1.0000
  C   C443      1.0  0.03299  0.42643  0.73094  1.0000
  C   C444      1.0  0.04091  0.41166  0.74529  1.0000
  C   C445      1.0  0.05378  0.40032  0.73186  1.0000
  C   C446      1.0  0.16114  0.24254  0.63690  1.0000
  P   P13       1.0  0.26616  0.25523  0.85539  1.0000
  H   H318      1.0  0.01318  0.47137  0.69738  1.0000
  H   H319      1.0  0.05663  0.36293  0.71644  1.0000
  H   H320      1.0  0.05839  0.39484  0.63907  1.0000
  H   H321      1.0  0.09355  0.41806  0.67664  1.0000
  H   H322      1.0  0.11471  0.43197  0.63729  1.0000
  H   H323      1.0  0.12613  0.42161  0.59568  1.0000
  H   H324      1.0  0.11663  0.39696  0.59384  1.0000
  H   H325      1.0  0.09567  0.38254  0.63330  1.0000
  H   H326      1.0  0.09498  0.35606  0.69127  1.0000
  H   H327      1.0  0.11861  0.33835  0.71926  1.0000
  H   H328      1.0  0.13078  0.34869  0.75049  1.0000
  H   H329      1.0  0.11973  0.37694  0.75303  1.0000
  H   H330      1.0  0.09667  0.39487  0.72468  1.0000
  H   H331      1.0  0.05456  0.42163  0.66783  1.0000
  H   H332      1.0  0.03199  0.44147  0.69191  1.0000
  H   H333      1.0  0.05951  0.38884  0.74344  1.0000
  C   C447      1.0  0.09163  0.39733  0.96067  1.0000
  H   H334      1.0  0.16887  0.26126  0.64876  1.0000
  C   C448      1.0  0.28184  0.25484  0.50885  1.0000
  H   H335      1.0  0.01660  0.41975  0.95344  1.0000
  H   H336      1.0  0.03415  0.44251  0.98228  1.0000
  C   C449      1.0  0.12150  0.25975  0.64355  1.0000
  C   C450      1.0  0.13700  0.26559  0.64805  1.0000
  H   H337      1.0  0.18758  0.24081  0.84510  1.0000
  H   H338      1.0  0.01045  0.41464  0.59338  1.0000
  C   C451      1.0  0.31649  0.26148  0.87588  1.0000
  H   H339      1.0  0.02026  0.43647  0.86936  1.0000
  C   C452      1.0  0.24464  0.26110  0.78705  1.0000
  C   C453      1.0  0.12937  0.34830  0.58356  1.0000
  C   C454      1.0  0.03034  0.30674  0.82567  1.0000
  H   H340      1.0  0.03628  0.28466  0.60806  1.0000
  H   H341      1.0  0.10617  0.26631  0.64720  1.0000
  H   H342      1.0  0.13339  0.27667  0.65453  1.0000
  C   C455      1.0  0.10567  0.46932  0.87674  1.0000
  C   C456      1.0  0.31599  0.25795  0.69725  1.0000
  H   H343      1.0  0.19015  0.25631  0.51269  1.0000
  H   H344      1.0  0.08800  0.47054  0.78010  1.0000
  H   H345      1.0  0.01526  0.47060  0.58330  1.0000
  C   C457      1.0  0.00101  0.33643  0.64991  1.0000
  C   C458      1.0  0.11713  0.33560  0.64145  1.0000
  C   C459      1.0  0.07658  0.42526  0.95694  1.0000
  H   H346      1.0  0.32375  0.27157  0.48631  1.0000
  S   S60       1.0  0.03708  0.38063  0.55866  1.0000
  C   C460      1.0  0.18282  0.27984  0.68281  1.0000
  H   H347      1.0  0.19693  0.46643  0.92232  1.0000
  H   H348      1.0  0.07042  0.29147  0.59186  1.0000
  C   C461      1.0  0.28661  0.25902  0.57656  1.0000
  C   C462      1.0  0.16368  0.37934  0.60495  1.0000
  C   C463      1.0  0.29090  0.27940  0.64098  1.0000
  C   C464      1.0  0.18839  0.29691  0.60747  1.0000
  S   S61       1.0  0.08262  0.45231  0.70054  1.0000
  H   H349      1.0  0.27226  0.29925  0.61976  1.0000
  H   H350      1.0  0.22872  0.26896  0.94141  1.0000
  H   H351      1.0  0.30441  0.28446  0.63301  1.0000
  H   H352      1.0  0.25224  0.27649  0.74869  1.0000
  C   C465      1.0  0.15685  0.25700  0.64468  1.0000
  H   H353      1.0  0.03718  0.40911  0.76690  1.0000
  H   H354      1.0  0.06567  0.36976  0.97243  1.0000
  H   H355      1.0  0.20021  0.28662  0.60491  1.0000
  H   H356      1.0  0.07902  0.27319  0.76563  1.0000
  Fe  Fe28      1.0  0.05743  0.37188  0.52347  1.0000
  C   C466      1.0  0.15187  0.23905  0.77342  1.0000
  S   S62       1.0  0.06422  0.40491  0.58047  1.0000
  H   H357      1.0  0.02120  0.35965  0.66282  1.0000
  C   C467      1.0  0.07165  0.43444  0.55252  1.0000
  C   C468      1.0  0.30506  0.25465  0.74545  1.0000
  C   C469      1.0  0.27389  0.25817  0.66832  1.0000
  H   H358      1.0  0.23912  0.28093  0.58834  1.0000
  C   C470      1.0  0.25125  0.27073  0.58956  1.0000
  S   S63       1.0  0.04972  0.46711  0.64644  1.0000
  H   H359      1.0  0.16173  0.36420  0.58041  1.0000
  C   C471      1.0  0.28880  0.24130  0.49787  1.0000
  C   C472      1.0  0.00561  0.39642  0.71874  1.0000
  C   C473      1.0  0.18095  0.46720  0.93102  1.0000
  C   C474      1.0  0.30432  0.25125  0.72139  1.0000
  C   C475      1.0  0.07599  0.45418  0.57401  1.0000
  C   C476      1.0  0.02933  0.43835  0.88182  1.0000
  H   H360      1.0  0.01479  0.38694  0.70939  1.0000
  H   H361      1.0  0.07085  0.43099  0.53469  1.0000
  P   P14       1.0  0.15176  0.25990  0.76915  1.0000
  Fe  Fe29      1.0  0.06824  0.47239  0.67108  1.0000
  H   H362      1.0  0.13331  0.35284  0.66371  1.0000
  C   C477      1.0  0.25464  0.27264  0.76909  1.0000
  C   C478      1.0  0.29422  0.26594  0.50394  1.0000
  H   H363      1.0  0.23448  0.25604  0.78050  1.0000
  H   H364      1.0  0.11354  0.37082  0.59314  1.0000
  C   C479      1.0  0.16822  0.29602  0.60987  1.0000
  C   C480      1.0  0.09099  0.27626  0.77198  1.0000
  H   H365      1.0  0.21073  0.27018  0.69690  1.0000
  C   C481      1.0  0.11266  0.47929  0.70239  1.0000
  C   C482      1.0  0.08596  0.26804  0.60741  1.0000
  C   C483      1.0  0.18386  0.25059  0.82886  1.0000
  H   H366      1.0  0.03972  0.29709  0.81684  1.0000
  H   H367      1.0  0.09897  0.30272  0.80254  1.0000
  C   C484      1.0  0.12099  0.32559  0.66579  1.0000
  C   C485      1.0  0.18706  0.27687  0.80264  1.0000
  C   C486      1.0  0.02695  0.33012  0.84263  1.0000
  C   C487      1.0  0.13597  0.47944  0.72942  1.0000
  H   H368      1.0  0.19323  0.28750  0.79861  1.0000
  H   H369      1.0  0.29659  0.24890  0.76413  1.0000
  C   C488      1.0  0.07551  0.44949  0.55084  1.0000
  C   C489      1.0  0.27158  0.27360  0.80340  1.0000
  H   H370      1.0  0.31993  0.26576  0.89132  1.0000
  H   H371      1.0  0.14631  0.38446  0.96812  1.0000
  C   C490      1.0  0.31390  0.26330  0.48905  1.0000
  H   H372      1.0  0.10185  0.38140  0.55070  1.0000
  H   H373      1.0  0.15281  0.28784  0.67445  1.0000
  H   H374      1.0  0.16445  0.28517  0.60865  1.0000
  C   C491      1.0  0.26795  0.27900  0.77734  1.0000
  H   H375      1.0  0.24220  0.28757  0.84272  1.0000
  H   H376      1.0  0.24231  0.26141  0.66786  1.0000
  H   H377      1.0  0.03040  0.46351  0.82902  1.0000
  P   P15       1.0  0.06816  0.44446  0.93666  1.0000
  H   H378      1.0  0.07190  0.47659  0.93841  1.0000
  C   C492      1.0  0.17137  0.24932  0.81274  1.0000
  C   C493      1.0  0.00425  0.45452  0.56819  1.0000
  C   C494      1.0  0.14177  0.36008  0.64713  1.0000
  C   C495      1.0  0.11066  0.26756  0.76721  1.0000
  C   C496      1.0  0.19439  0.27195  0.70219  1.0000
  C   C497      1.0  0.27076  0.27214  0.57497  1.0000
  C   C498      1.0  0.06211  0.43621  0.89201  1.0000
  H   H379      1.0  0.18581  0.44666  0.96244  1.0000
  H   H380      1.0  0.03253  0.25730  0.63154  1.0000
  H   H381      1.0  0.03217  0.35037  0.70647  1.0000
  H   H382      1.0  0.10953  0.47558  0.68610  1.0000
  C   C499      1.0  0.11597  0.36043  0.53499  1.0000
  H   H383      1.0  0.07781  0.45755  0.53164  1.0000
  C   C500      1.0  0.13979  0.46940  0.95396  1.0000
  C   C501      1.0  0.32780  0.25050  0.83623  1.0000
  C   C502      1.0  0.22086  0.25812  0.49299  1.0000
  C   C503      1.0  0.15847  0.38265  0.63050  1.0000
  H   H384      1.0  0.27364  0.28343  0.56257  1.0000
  H   H385      1.0  0.11085  0.43752  0.94201  1.0000
  H   H386      1.0  0.21887  0.30484  0.87125  1.0000
  C   C504      1.0  0.24863  0.26801  0.87581  1.0000
  C   C505      1.0  0.30872  0.23860  0.48337  1.0000
  C   C506      1.0  0.00440  0.39548  0.74587  1.0000
  H   H387      1.0  0.25226  0.25142  0.91310  1.0000
  P   P16       1.0  0.13796  0.34090  0.61492  1.0000
  C   C507      1.0  0.16672  0.26181  0.79131  1.0000
  C   C508      1.0  0.25510  0.28146  0.64346  1.0000
  H   H388      1.0  0.06589  0.45280  0.81045  1.0000
  C   C509      1.0  0.27265  0.28788  0.63363  1.0000
  H   H389      1.0  0.21198  0.29563  0.92057  1.0000
  C   C510      1.0  0.28286  0.24441  0.59250  1.0000
  H   H390      1.0  0.07840  0.43283  0.88683  1.0000
  H   H391      1.0  0.07166  0.29588  0.78766  1.0000
  H   H392      1.0  0.17134  0.28534  0.76990  1.0000
  C   C511      1.0  0.16379  0.26756  0.73517  1.0000
  H   H393      1.0  0.11042  0.36489  0.51647  1.0000
  C   C512      1.0  0.29192  0.25588  0.85558  1.0000
  H   H394      1.0  0.03896  0.46581  0.53756  1.0000
  H   H395      1.0  0.22913  0.24228  0.87920  1.0000
  C   C513      1.0  0.30779  0.25049  0.83579  1.0000
  C   C514      1.0  0.14656  0.35687  0.62142  1.0000
  H   H396      1.0  0.00216  0.32508  0.66379  1.0000
  C   C515      1.0  0.15293  0.30922  0.61314  1.0000
  C   C516      1.0  0.15780  0.36648  0.60041  1.0000
  H   H397      1.0  0.02210  0.35251  0.58641  1.0000
  C   C517      1.0  0.18497  0.26577  0.72820  1.0000
  C   C518      1.0  0.01099  0.42693  0.59156  1.0000
  H   H398      1.0  0.13595  0.27688  0.72005  1.0000
  C   C519      1.0  0.01242  0.35184  0.60601  1.0000
  P   P17       1.0  0.31527  0.25287  0.66661  1.0000
  C   C520      1.0  0.26182  0.26182  0.82149  1.0000
  H   H399      1.0  0.17206  0.38688  0.58856  1.0000
  C   C521      1.0  0.19170  0.26435  0.82382  1.0000
  C   C522      1.0  0.08682  0.28893  0.78462  1.0000
  C   C523      1.0  0.29172  0.26431  0.65789  1.0000
  H   H400      1.0  0.28463  0.26564  0.89118  1.0000
  H   H401      1.0  0.06249  0.48443  0.51812  1.0000
  H   H402      1.0  0.10434  0.47818  0.85846  1.0000
  C   C524      1.0  0.15396  0.45702  0.96543  1.0000
  C   C525      1.0  0.05424  0.45820  0.95780  1.0000
  H   H403      1.0  0.13747  0.46872  0.87261  1.0000
  C   C526      1.0  0.08392  0.25265  0.62185  1.0000
  S   S64       1.0  0.03657  0.38484  0.49505  1.0000
  S   S65       1.0  0.08852  0.48507  0.63609  1.0000
  S   S66       1.0  0.07874  0.47360  0.57221  1.0000
  H   H404      1.0  0.02679  0.42197  0.62390  1.0000
  C   C527      1.0  0.00244  0.46961  0.71614  1.0000
  C   C528      1.0  0.31688  0.26528  0.74543  1.0000
  Fe  Fe30      1.0  0.06840  0.48124  0.61185  1.0000
  C   C529      1.0  0.15578  0.42137  0.96012  1.0000
  H   H405      1.0  0.20144  0.26530  0.83624  1.0000
  H   H406      1.0  0.01276  0.38525  0.75755  1.0000
  C   C530      1.0  0.01356  0.45853  0.58562  1.0000
  C   C531      1.0  0.20591  0.25059  0.51111  1.0000
  H   H407      1.0  0.00288  0.30750  0.48882  1.0000
  H   H408      1.0  0.10069  0.27133  0.60046  1.0000
  C   C532      1.0  0.00798  0.45646  0.49547  1.0000
  H   H409      1.0  0.16409  0.40448  0.93470  1.0000
  H   H410      1.0  0.14394  0.46785  0.69617  1.0000
  C   C533      1.0  0.12433  0.46400  0.88470  1.0000
  C   C534      1.0  0.13204  0.47488  0.70815  1.0000
  H   H411      1.0  0.02392  0.45123  0.93852  1.0000
  C   C535      1.0  0.14619  0.48053  0.93115  1.0000
  H   H412      1.0  0.12383  0.47064  0.96261  1.0000
  C   C536      1.0  0.06016  0.46545  0.80568  1.0000
  H   H413      1.0  0.03382  0.33866  0.84676  1.0000
  H   H414      1.0  0.13529  0.24567  0.57926  1.0000
  Fe  Fe31      1.0  0.05309  0.40478  0.48721  1.0000
  H   H415      1.0  0.15393  0.23814  0.69513  1.0000
  H   H416      1.0  0.02196  0.46061  0.49242  1.0000
  H   H417      1.0  0.00364  0.44764  0.90942  1.0000
  C   C537      1.0  0.08622  0.61953  0.45308  1.0000
  S   S67       1.0  0.04844  0.71006  0.07711  1.0000
  Fe  Fe32      1.0  0.09792  0.52729  0.10015  1.0000
  S   S68       1.0  0.10321  0.55210  0.09394  1.0000
  H   H418      1.0  0.05854  0.60907  0.41436  1.0000
  S   S69       1.0  0.06812  0.52298  0.12582  1.0000
  H   H419      1.0  0.05367  0.58115  0.42920  1.0000
  Fe  Fe33      1.0  0.05855  0.61824  0.19413  1.0000
  S   S70       1.0  0.08965  0.60936  0.20311  1.0000
  S   S71       1.0  0.04725  0.63343  0.15780  1.0000
  Fe  Fe34      1.0  0.03868  0.59794  0.24447  1.0000
  S   S72       1.0  0.06782  0.58741  0.25938  1.0000
  C   C538      1.0  0.05356  0.71071  0.17906  1.0000
  Fe  Fe35      1.0  0.07452  0.61202  0.24508  1.0000
  S   S73       1.0  0.09337  0.62344  0.26086  1.0000
  Fe  Fe36      1.0  0.08122  0.58549  0.21686  1.0000
  S   S74       1.0  0.10099  0.56280  0.20838  1.0000
  S   S75       1.0  0.04385  0.62298  0.23474  1.0000
  S   S76       1.0  0.05192  0.59400  0.20327  1.0000
  Fe  Fe37      1.0  0.07808  0.69934  0.05498  1.0000
  C   C539      1.0  0.01105  0.50082  0.29725  1.0000
  S   S77       1.0  0.09899  0.68235  0.08003  1.0000
  C   C540      1.0  0.02837  0.62321  0.01395  1.0000
  Fe  Fe38      1.0  0.07091  0.66357  0.37320  1.0000
  S   S78       1.0  0.04620  0.67849  0.35253  1.0000
  S   S79       1.0  0.07550  0.63717  0.37696  1.0000
  Fe  Fe39      1.0  0.07932  0.69187  0.38791  1.0000
  S   S80       1.0  0.05518  0.70925  0.36824  1.0000
  S   S81       1.0  0.09862  0.69954  0.40904  1.0000
  Fe  Fe40      1.0  0.03679  0.69032  0.38715  1.0000
  C   C541      1.0  0.02498  0.58624  0.41689  1.0000
  Fe  Fe41      1.0  0.06684  0.69598  0.33508  1.0000
  S   S82       1.0  0.06748  0.70691  0.29133  1.0000
  S   S83       1.0  0.05973  0.67401  0.40969  1.0000
  S   S84       1.0  0.09279  0.68002  0.35289  1.0000
  C   C542      1.0  0.09957  0.59204  0.04245  1.0000
  H   H420      1.0  0.08079  0.72753  0.31520  1.0000
  C   C543      1.0  0.05060  0.56247  0.07568  1.0000
  H   H421      1.0  0.02066  0.58006  0.21398  1.0000
  C   C544      1.0  0.07051  0.72673  0.28043  1.0000
  C   C545      1.0  0.10775  0.66409  0.47591  1.0000
  C   C546      1.0  0.08837  0.62654  0.29358  1.0000
  C   C547      1.0  0.09342  0.64000  0.29728  1.0000
  C   C548      1.0  0.08912  0.64336  0.32276  1.0000
  C   C549      1.0  0.08071  0.63285  0.34501  1.0000
  C   C550      1.0  0.07631  0.61902  0.34156  1.0000
  C   C551      1.0  0.07974  0.61602  0.31575  1.0000
  H   H422      1.0  0.10039  0.64804  0.28027  1.0000
  H   H423      1.0  0.09268  0.65398  0.32522  1.0000
  H   H424      1.0  0.06992  0.61080  0.35870  1.0000
  H   H425      1.0  0.07604  0.60551  0.31303  1.0000
  C   C552      1.0  0.06180  0.64716  0.13742  1.0000
  C   C553      1.0  0.07998  0.64835  0.14295  1.0000
  C   C554      1.0  0.09174  0.65896  0.12510  1.0000
  C   C555      1.0  0.08496  0.66865  0.10226  1.0000
  C   C556      1.0  0.06664  0.66752  0.09716  1.0000
  C   C557      1.0  0.05524  0.65669  0.11450  1.0000
  H   H426      1.0  0.08510  0.64097  0.16070  1.0000
  H   H427      1.0  0.10596  0.65965  0.12911  1.0000
  H   H428      1.0  0.06115  0.67491  0.07981  1.0000
  H   H429      1.0  0.04110  0.65588  0.11037  1.0000
  H   H430      1.0  0.03873  0.60372  0.04450  1.0000
  C   C558      1.0  0.03333  0.67620  0.17939  1.0000
  C   C559      1.0  0.09632  0.58449  0.00310  1.0000
  C   C560      1.0  0.12352  0.60412  0.12037  1.0000
  C   C561      1.0  0.01340  0.61365  0.39617  1.0000
  C   C562      1.0  0.06289  0.51326  0.30775  1.0000
  C   C563      1.0  0.05656  0.55147  0.03645  1.0000
  H   H431      1.0  0.00891  0.66037  0.02424  1.0000
  H   H432      1.0  0.13209  0.60527  0.05378  1.0000
  C   C564      1.0  0.03579  0.55477  0.03701  1.0000
  C   C565      1.0  0.99924  0.70659  0.35450  1.0000
  C   C566      1.0  0.06596  0.70344  0.45047  1.0000
  C   C567      1.0  0.08613  0.70482  0.43976  1.0000
  C   C568      1.0  0.09657  0.71053  0.45370  1.0000
  C   C569      1.0  0.07214  0.64306  0.47122  1.0000
  C   C570      1.0  0.00891  0.68933  0.46962  1.0000
  H   H433      1.0  0.05773  0.69920  0.43977  1.0000
  S   S85       1.0  0.00406  0.69443  0.40609  1.0000
  H   H434      1.0  0.10328  0.58840  0.06217  1.0000
  C   C571      1.0  0.04252  0.59660  0.00739  1.0000
  C   C572      1.0  0.10201  0.56027  0.17625  1.0000
  C   C573      1.0  0.10686  0.54497  0.17155  1.0000
  C   C574      1.0  0.10699  0.54257  0.14639  1.0000
  C   C575      1.0  0.10297  0.55543  0.12543  1.0000
  C   C576      1.0  0.09848  0.57084  0.12993  1.0000
  C   C577      1.0  0.09766  0.57323  0.15551  1.0000
  H   H435      1.0  0.11021  0.53489  0.18749  1.0000
  H   H436      1.0  0.11041  0.53070  0.14331  1.0000
  H   H437      1.0  0.09518  0.58086  0.11393  1.0000
  H   H438      1.0  0.09365  0.58504  0.15930  1.0000
  H   H439      1.0  0.00195  0.57753  0.18205  1.0000
  C   C578      1.0  0.15748  0.49321  0.15764  1.0000
  C   C579      1.0  0.03564  0.58028  0.13226  1.0000
  H   H440      1.0  0.06532  0.65445  0.03197  1.0000
  C   C580      1.0  0.05012  0.49276  0.34421  1.0000
  C   C581      1.0  0.10473  0.63894  0.02689  1.0000
  H   H441      1.0  0.00707  0.60564  0.34720  1.0000
  S   S86       1.0  0.06464  0.69186  0.02703  1.0000
  H   H442      1.0  0.11827  0.62690  0.99411  1.0000
  H   H443      1.0  0.03334  0.67123  0.29397  1.0000
  C   C582      1.0  0.00454  0.58367  0.21766  1.0000
  P   P18       1.0  0.01192  0.57147  0.10553  1.0000
  C   C583      1.0  0.12532  0.65003  0.98484  1.0000
  C   C584      1.0  0.01591  0.69445  0.24812  1.0000
  C   C585      1.0  0.12405  0.60746  0.07322  1.0000
  S   S87       1.0  0.03860  0.51514  0.07898  1.0000
  C   C586      1.0  0.02528  0.70377  0.25702  1.0000
  H   H444      1.0  0.10616  0.60132  0.47513  1.0000
  C   C587      1.0  0.01397  0.72672  0.43680  1.0000
  H   H445      1.0  0.03722  0.69838  0.26820  1.0000
  H   H446      1.0  0.00927  0.71997  0.42587  1.0000
  C   C588      1.0  0.06454  0.53531  0.23369  1.0000
  H   H447      1.0  0.01630  0.53772  0.10913  1.0000
  C   C589      1.0  0.09302  0.60805  0.03113  1.0000
  C   C590      1.0  0.10389  0.61299  0.12363  1.0000
  H   H448      1.0  0.18684  0.49944  0.14185  1.0000
  H   H449      1.0  0.08127  0.62425  0.99779  1.0000
  C   C591      1.0  0.02396  0.53177  0.25124  1.0000
  C   C592      1.0  0.02963  0.56541  0.07690  1.0000
  H   H450      1.0  0.03305  0.62972  0.39380  1.0000
  H   H451      1.0  0.01370  0.71011  0.35081  1.0000
  C   C593      1.0  0.06394  0.55551  0.05555  1.0000
  Fe  Fe42      1.0  0.03525  0.70447  0.04718  1.0000
  H   H452      1.0  0.01124  0.70576  0.00900  1.0000
  H   H453      1.0  0.02592  0.50376  0.29191  1.0000
  S   S88       1.0  0.11617  0.50532  0.12115  1.0000
  C   C594      1.0  0.00714  0.66865  0.32519  1.0000
  H   H454      1.0  0.16579  0.67742  0.11292  1.0000
  C   C595      1.0  0.08914  0.60033  0.99210  1.0000
  H   H455      1.0  0.06328  0.65497  0.46921  1.0000
  H   H456      1.0  0.08802  0.61322  0.43740  1.0000
  Fe  Fe43      1.0  0.05275  0.73247  0.04731  1.0000
  C   C596      1.0  0.03196  0.50353  0.34975  1.0000
  H   H457      1.0  0.01820  0.55645  0.25384  1.0000
  C   C597      1.0  0.02541  0.56857  0.13205  1.0000
  H   H458      1.0  0.04855  0.49135  0.17159  1.0000
  H   H459      1.0  0.03328  0.62471  0.34291  1.0000
  C   C598      1.0  0.08696  0.71473  0.47830  1.0000
  C   C599      1.0  0.06561  0.49782  0.32317  1.0000
  C   C600      1.0  0.08713  0.61204  0.00629  1.0000
  H   H460      1.0  0.04651  0.67522  0.18755  1.0000
  H   H461      1.0  0.02346  0.62077  0.10350  1.0000
  C   C601      1.0  0.13765  0.73544  0.30808  1.0000
  H   H462      1.0  0.11214  0.71170  0.44544  1.0000
  H   H463      1.0  0.00064  0.50181  0.24004  1.0000
  C   C602      1.0  0.11298  0.66492  0.01975  1.0000
  Fe  Fe44      1.0  0.11064  0.49331  0.09235  1.0000
  H   H464      1.0  0.07486  0.51709  0.29146  1.0000
  H   H465      1.0  0.13423  0.72404  0.31954  1.0000
  H   H466      1.0  0.04962  0.64310  0.30513  1.0000
  H   H467      1.0  0.03004  0.55118  0.02272  1.0000
  H   H468      1.0  0.01955  0.54498  0.15165  1.0000
  S   S89       1.0  0.00781  0.59163  0.26350  1.0000
  H   H469      1.0  0.16859  0.68795  0.15068  1.0000
  H   H470      1.0  0.11191  0.67543  0.02709  1.0000
  C   C603      1.0  0.10958  0.71365  0.21615  1.0000
  C   C604      1.0  0.10048  0.71784  0.19367  1.0000
  C   C605      1.0  0.17848  0.49056  0.15475  1.0000
  P   P19       1.0  0.09464  0.70285  0.18100  1.0000
  C   C606      1.0  0.11713  0.69518  0.15882  1.0000
  C   C607      1.0  0.08674  0.68648  0.20670  1.0000
  C   C608      1.0  0.08648  0.67241  0.19959  1.0000
  C   C609      1.0  0.07839  0.66025  0.21868  1.0000
  C   C610      1.0  0.07072  0.66197  0.24500  1.0000
  C   C611      1.0  0.07141  0.67572  0.25241  1.0000
  C   C612      1.0  0.07877  0.68814  0.23318  1.0000
  C   C613      1.0  0.11572  0.68905  0.13756  1.0000
  C   C614      1.0  0.13325  0.68276  0.12104  1.0000
  C   C615      1.0  0.15228  0.68242  0.12567  1.0000
  C   C616      1.0  0.15384  0.68836  0.14688  1.0000
  C   C617      1.0  0.13636  0.69468  0.16343  1.0000
  C   C618      1.0  0.07339  0.71136  0.16456  1.0000
  C   C619      1.0  0.01048  0.59794  0.40500  1.0000
  C   C620      1.0  0.15361  0.73626  0.28596  1.0000
  H   H471      1.0  0.07998  0.55252  0.05561  1.0000
  C   C621      1.0  0.05293  0.62172  0.07815  1.0000
  H   H472      1.0  0.07987  0.48987  0.31877  1.0000
  C   C622      1.0  0.07402  0.63456  0.45164  1.0000
  C   C623      1.0  0.01592  0.67135  0.19613  1.0000
  C   C624      1.0  0.07641  0.71839  0.13721  1.0000
  H   H473      1.0  0.11242  0.70148  0.22701  1.0000
  C   C625      1.0  0.04481  0.52388  0.31347  1.0000
  H   H474      1.0  0.09210  0.67087  0.17924  1.0000
  H   H475      1.0  0.07829  0.64935  0.21324  1.0000
  H   H476      1.0  0.06463  0.65246  0.25974  1.0000
  H   H477      1.0  0.06628  0.67678  0.27310  1.0000
  H   H478      1.0  0.07785  0.69906  0.23910  1.0000
  H   H479      1.0  0.10113  0.68896  0.13379  1.0000
  C   C626      1.0  0.10142  0.58037  0.02831  1.0000
  H   H480      1.0  0.13799  0.69900  0.17993  1.0000
  H   H481      1.0  0.00001  0.65522  0.40073  1.0000
  H   H482      1.0  0.05682  0.56471  0.09092  1.0000
  H   H483      1.0  0.08020  0.53666  0.22693  1.0000
  H   H484      1.0  0.00626  0.56352  0.05800  1.0000
  H   H485      1.0  0.05066  0.70588  0.20037  1.0000
  C   C627      1.0  0.03893  0.51939  0.24272  1.0000
  H   H486      1.0  0.01782  0.68700  0.11992  1.0000
  S   S90       1.0  0.08392  0.72231  0.02743  1.0000
  C   C628      1.0  0.02943  0.54628  0.24930  1.0000
  H   H487      1.0  0.06140  0.72954  0.24310  1.0000
  Fe  Fe45      1.0  0.06757  0.71585  0.00116  1.0000
  C   C629      1.0  0.02237  0.56179  0.05706  1.0000
  C   C630      1.0  0.03670  0.60748  0.02393  1.0000
  C   C631      1.0  0.10375  0.65252  0.03625  1.0000
  H   H488      1.0  0.09565  0.65360  0.05626  1.0000
  H   H489      1.0  0.13207  0.67802  0.10470  1.0000
  Fe  Fe46      1.0  0.06692  0.50968  0.09579  1.0000
  H   H490      1.0  0.05550  0.58681  0.15118  1.0000
  H   H491      1.0  0.99983  0.68082  0.31953  1.0000
  C   C632      1.0  0.06518  0.63129  0.05860  1.0000
  C   C633      1.0  0.07758  0.73401  0.29585  1.0000
  C   C634      1.0  0.03386  0.68211  0.15206  1.0000
  C   C635      1.0  0.06647  0.73518  0.25536  1.0000
  C   C636      1.0  0.02437  0.64360  0.07709  1.0000
  C   C637      1.0  0.13364  0.60139  0.09513  1.0000
  C   C638      1.0  0.02937  0.51902  0.33446  1.0000
  C   C639      1.0  0.00728  0.64251  0.35406  1.0000
  H   H492      1.0  0.06692  0.54532  0.02177  1.0000
  C   C640      1.0  0.04922  0.56354  0.17032  1.0000
  H   H493      1.0  0.13076  0.59923  0.13750  1.0000
  H   H494      1.0  0.04745  0.68574  0.13911  1.0000
  C   C641      1.0  0.03898  0.55184  0.17042  1.0000
  C   C642      1.0  0.04967  0.54794  0.24096  1.0000
  H   H495      1.0  0.06243  0.72884  0.10313  1.0000
  H   H496      1.0  0.04056  0.54075  0.18499  1.0000
  C   C643      1.0  0.03633  0.65302  0.05707  1.0000
  H   H497      1.0  0.10690  0.56808  0.03705  1.0000
  H   H498      1.0  0.06644  0.63976  0.43487  1.0000
  C   C644      1.0  0.02708  0.55432  0.15136  1.0000
  C   C645      1.0  0.01326  0.67312  0.47000  1.0000
  H   H499      1.0  0.99931  0.64243  0.17981  1.0000
  C   C646      1.0  0.01923  0.72022  0.25167  1.0000
  H   H500      1.0  0.09781  0.57536  0.99227  1.0000
  H   H501      1.0  0.02720  0.72706  0.25815  1.0000
  H   H502      1.0  0.05873  0.56153  0.18475  1.0000
  H   H503      1.0  0.00233  0.59294  0.05541  1.0000
  C   C647      1.0  0.10408  0.61599  0.07656  1.0000
  H   H504      1.0  0.03502  0.50840  0.24242  1.0000
  C   C648      1.0  0.04743  0.57779  0.15136  1.0000
  S   S91       1.0  0.09544  0.51582  0.06828  1.0000
  H   H505      1.0  0.09599  0.61510  0.14317  1.0000
  C   C649      1.0  0.05625  0.70791  0.47482  1.0000
  H   H506      1.0  0.14883  0.59444  0.09268  1.0000
  C   C650      1.0  0.11616  0.63757  0.00134  1.0000
  C   C651      1.0  0.09421  0.61895  0.10186  1.0000
  H   H507      1.0  0.99972  0.51417  0.07216  1.0000
  H   H508      1.0  0.07907  0.62582  0.10503  1.0000
  C   C652      1.0  0.03719  0.71614  0.16601  1.0000
  H   H509      1.0  0.03011  0.66530  0.04944  1.0000
  C   C653      1.0  0.03262  0.62791  0.08747  1.0000
  C   C654      1.0  0.03519  0.64735  0.31684  1.0000
  H   H510      1.0  0.12808  0.67659  0.44443  1.0000
  C   C655      1.0  0.09791  0.73365  0.17940  1.0000
  H   H511      1.0  0.05384  0.55913  0.23963  1.0000
  C   C656      1.0  0.05915  0.52110  0.23437  1.0000
  P   P20       1.0  0.09173  0.62346  0.04823  1.0000
  C   C657      1.0  0.05654  0.64685  0.04750  1.0000
  H   H512      1.0  0.00887  0.64862  0.08501  1.0000
  H   H513      1.0  0.05932  0.60968  0.08696  1.0000
  H   H514      1.0  0.16259  0.72545  0.28028  1.0000
  C   C658      1.0  0.04047  0.72236  0.13851  1.0000
  C   C659      1.0  0.99976  0.67790  0.15789  1.0000
  C   C660      1.0  0.04231  0.59021  0.42028  1.0000
  C   C661      1.0  0.04505  0.60591  0.41204  1.0000
  C   C662      1.0  0.03060  0.61761  0.40018  1.0000
  C   C663      1.0  0.01714  0.68285  0.14127  1.0000
  C   C664      1.0  0.02772  0.49908  0.08037  1.0000
  H   H515      1.0  0.10315  0.65932  0.46200  1.0000
  H   H516      1.0  0.00360  0.54679  0.29914  1.0000
  H   H517      1.0  0.02069  0.68170  0.25212  1.0000
  H   H518      1.0  0.02409  0.63146  0.02711  1.0000
  H   H519      1.0  0.02199  0.71543  0.17718  1.0000
  H   H520      1.0  0.09142  0.71957  0.12571  1.0000
  H   H521      1.0  0.12094  0.72207  0.24320  1.0000
  C   C665      1.0  0.02594  0.66319  0.31039  1.0000
  H   H522      1.0  0.14958  0.50423  0.14724  1.0000
  C   C666      1.0  0.12214  0.67383  0.46578  1.0000
  C   C667      1.0  0.09647  0.61290  0.47425  1.0000
  C   C668      1.0  0.00030  0.70163  0.23412  1.0000
  S   S92       1.0  0.00792  0.69361  0.06579  1.0000
  C   C669      1.0  0.06000  0.72375  0.12430  1.0000
  H   H523      1.0  0.01592  0.66675  0.21721  1.0000
  H   H524      1.0  0.07068  0.51152  0.22794  1.0000
  H   H525      1.0  0.00144  0.65161  0.48051  1.0000
  H   H526      1.0  0.04285  0.53590  0.30166  1.0000
  C   C670      1.0  0.00785  0.50211  0.07644  1.0000
  H   H527      1.0  0.03489  0.59121  0.11735  1.0000
  H   H528      1.0  0.02787  0.72639  0.12822  1.0000
  S   S93       1.0  0.08402  0.49301  0.18909  1.0000
  C   C671      1.0  0.02590  0.63700  0.33849  1.0000
  S   S94       1.0  0.03672  0.72795  0.01877  1.0000
  H   H529      1.0  0.01536  0.52726  0.33893  1.0000
  Fe  Fe47      1.0  0.08607  0.50029  0.14481  1.0000
  C   C672      1.0  0.11497  0.72523  0.22502  1.0000
  C   C673      1.0  0.12354  0.66378  0.99394  1.0000
  H   H530      1.0  0.04908  0.58445  0.01517  1.0000
  H   H531      1.0  0.02281  0.57409  0.42338  1.0000
  H   H532      1.0  0.01973  0.50009  0.36578  1.0000
  C   C674      1.0  0.02598  0.62825  0.98718  1.0000
  H   H533      1.0  0.17443  0.69488  0.47478  1.0000
  C   C675      1.0  0.03053  0.73414  0.42464  1.0000
  H   H534      1.0  0.03868  0.73284  0.40477  1.0000
  H   H535      1.0  0.09697  0.48789  0.26717  1.0000
  H   H536      1.0  0.02831  0.66765  0.46147  1.0000
  H   H537      1.0  0.07829  0.49348  0.37270  1.0000
  H   H538      1.0  0.13899  0.68836  0.47493  1.0000
  C   C676      1.0  0.00030  0.54263  0.11377  1.0000
  H   H539      1.0  0.02091  0.69599  0.46112  1.0000
  H   H540      1.0  0.09153  0.73719  0.16153  1.0000
  C   C677      1.0  0.00381  0.72776  0.46300  1.0000
  H   H541      1.0  0.09427  0.49212  0.41020  1.0000
  C   C678      1.0  0.00318  0.72747  0.23828  1.0000
  H   H542      1.0  0.00490  0.72275  0.08995  1.0000
  C   C679      1.0  0.00970  0.73723  0.47613  1.0000
  H   H543      1.0  0.02706  0.63145  0.61273  1.0000
  H   H544      1.0  0.09659  0.64195  0.86655  1.0000
  C   C680      1.0  0.06667  0.71361  0.48875  1.0000
  C   C681      1.0  0.15723  0.60122  0.78701  1.0000
  H   H545      1.0  0.29708  0.67592  0.56087  1.0000
  H   H546      1.0  0.05041  0.58350  0.64416  1.0000
  S   S95       1.0  0.02979  0.69665  0.81752  1.0000
  H   H547      1.0  0.06289  0.60945  0.60128  1.0000
  Fe  Fe48      1.0  0.06536  0.50696  0.64269  1.0000
  S   S96       1.0  0.06934  0.53193  0.64009  1.0000
  H   H548      1.0  0.11697  0.64836  0.82144  1.0000
  C   C682      1.0  0.04032  0.50317  0.50105  1.0000
  Fe  Fe49      1.0  0.10172  0.69273  0.57964  1.0000
  C   C683      1.0  0.03813  0.62700  0.72182  1.0000
  S   S97       1.0  0.12226  0.66914  0.58046  1.0000
  H   H549      1.0  0.03524  0.55237  0.68935  1.0000
  S   S98       1.0  0.10608  0.71218  0.54349  1.0000
  C   C684      1.0  0.17984  0.64965  0.57034  1.0000
  S   S99       1.0  0.03983  0.65358  0.80982  1.0000
  Fe  Fe50      1.0  0.12590  0.57117  0.70535  1.0000
  S   S100      1.0  0.09641  0.58388  0.72547  1.0000
  S   S101      1.0  0.12878  0.54587  0.70182  1.0000
  Fe  Fe51      1.0  0.14698  0.59978  0.69453  1.0000
  S   S102      1.0  0.11892  0.61462  0.71314  1.0000
  S   S103      1.0  0.17671  0.60846  0.67635  1.0000
  Fe  Fe52      1.0  0.11538  0.59271  0.74500  1.0000
  S   S104      1.0  0.10826  0.59444  0.78815  1.0000
  Fe  Fe53      1.0  0.10288  0.60434  0.69173  1.0000
  S   S105      1.0  0.07885  0.61937  0.66983  1.0000
  S   S106      1.0  0.14463  0.57821  0.72798  1.0000
  S   S107      1.0  0.13119  0.59112  0.67009  1.0000
  S   S108      1.0  0.23552  0.69527  0.66003  1.0000
  S   S109      1.0  0.22161  0.69723  0.72263  1.0000
  Fe  Fe54      1.0  0.21389  0.68464  0.69551  1.0000
  S   S110      1.0  0.21471  0.65799  0.70728  1.0000
  S   S111      1.0  0.18706  0.70311  0.68568  1.0000
  C   C685      1.0  0.11619  0.61960  0.87814  1.0000
  C   C686      1.0  0.18569  0.62287  0.68570  1.0000
  C   C687      1.0  0.17310  0.63616  0.69471  1.0000
  C   C688      1.0  0.18167  0.64762  0.70020  1.0000
  C   C689      1.0  0.20279  0.64565  0.69711  1.0000
  C   C690      1.0  0.21503  0.63211  0.68902  1.0000
  C   C691      1.0  0.20664  0.62110  0.68269  1.0000
  H   H550      1.0  0.15687  0.63766  0.69719  1.0000
  H   H551      1.0  0.17192  0.65767  0.70751  1.0000
  H   H552      1.0  0.23124  0.63018  0.68731  1.0000
  H   H553      1.0  0.21649  0.61090  0.67589  1.0000
  C   C692      1.0  0.05928  0.63746  0.80341  1.0000
  C   C693      1.0  0.05865  0.62927  0.78443  1.0000
  C   C694      1.0  0.07406  0.61639  0.77900  1.0000
  C   C695      1.0  0.08955  0.61112  0.79364  1.0000
  C   C696      1.0  0.08999  0.61913  0.81297  1.0000
  C   C697      1.0  0.07515  0.63254  0.81739  1.0000
  H   H554      1.0  0.04640  0.63312  0.77361  1.0000
  H   H555      1.0  0.07377  0.61029  0.76393  1.0000
  H   H556      1.0  0.10196  0.61506  0.82426  1.0000
  H   H557      1.0  0.07567  0.63883  0.83206  1.0000
  C   C698      1.0  0.11012  0.65513  0.60465  1.0000
  C   C699      1.0  0.08936  0.65581  0.60768  1.0000
  C   C700      1.0  0.07960  0.64495  0.62801  1.0000
  C   C701      1.0  0.09067  0.63338  0.64513  1.0000
  C   C702      1.0  0.11142  0.63269  0.64198  1.0000
  C   C703      1.0  0.12118  0.64343  0.62159  1.0000
  H   H558      1.0  0.08090  0.66440  0.59399  1.0000
  H   H559      1.0  0.06361  0.64541  0.63036  1.0000
  H   H560      1.0  0.12007  0.62396  0.65525  1.0000
  H   H561      1.0  0.13722  0.64281  0.61933  1.0000
  C   C704      1.0  0.16439  0.72244  0.61347  1.0000
  H   H562      1.0  0.15760  0.57851  0.77976  1.0000
  H   H563      1.0  0.16519  0.71412  0.63232  1.0000
  Fe  Fe55      1.0  0.08644  0.68733  0.81717  1.0000
  C   C705      1.0  0.08662  0.53555  0.65639  1.0000
  C   C706      1.0  0.08717  0.55124  0.65616  1.0000
  C   C707      1.0  0.10004  0.55454  0.66997  1.0000
  C   C708      1.0  0.11274  0.54215  0.68378  1.0000
  C   C709      1.0  0.11256  0.52646  0.68345  1.0000
  C   C710      1.0  0.09950  0.52318  0.66987  1.0000
  H   H564      1.0  0.07748  0.56086  0.64545  1.0000
  H   H565      1.0  0.10015  0.56666  0.66991  1.0000
  H   H566      1.0  0.12255  0.51682  0.69370  1.0000
  H   H567      1.0  0.09950  0.51112  0.66954  1.0000
  H   H568      1.0  0.19262  0.62410  0.75497  1.0000
  C   C711      1.0  0.19516  0.68149  0.60334  1.0000
  C   C712      1.0  0.25639  0.62773  0.61242  1.0000
  C   C713      1.0  0.02095  0.67282  0.62788  1.0000
  C   C714      1.0  0.03143  0.66971  0.60307  1.0000
  C   C715      1.0  0.00057  0.65941  0.89065  1.0000
  H   H569      1.0  0.03790  0.67888  0.58789  1.0000
  C   C716      1.0  0.02530  0.64287  0.61740  1.0000
  H   H570      1.0  0.13520  0.49013  0.92256  1.0000
  C   C717      1.0  0.16026  0.72605  0.89867  1.0000
  Fe  Fe56      1.0  0.05138  0.67371  0.81544  1.0000
  C   C718      1.0  0.16216  0.67189  0.64159  1.0000
  H   H571      1.0  0.07943  0.65910  0.70341  1.0000
  H   H572      1.0  0.06073  0.65885  0.75014  1.0000
  H   H573      1.0  0.05377  0.49437  0.96894  1.0000
  S   S112      1.0  0.04084  0.71331  0.64548  1.0000
  H   H574      1.0  0.04216  0.65234  0.57888  1.0000
  C   C719      1.0  0.13556  0.72005  0.76521  1.0000
  H   H575      1.0  0.22216  0.64097  0.56735  1.0000
  C   C720      1.0  0.11853  0.69793  0.67506  1.0000
  C   C721      1.0  0.01402  0.60965  0.74227  1.0000
  C   C722      1.0  0.08226  0.63643  0.49269  1.0000
  H   H576      1.0  0.03881  0.51048  0.78705  1.0000
  C   C723      1.0  0.06585  0.52024  0.73766  1.0000
  H   H577      1.0  0.13594  0.67761  0.69710  1.0000
  C   C724      1.0  0.04221  0.71019  0.90550  1.0000
  H   H578      1.0  0.03624  0.64048  0.68234  1.0000
  S   S113      1.0  0.08112  0.71796  0.95734  1.0000
  H   H579      1.0  0.17173  0.48817  0.90218  1.0000
  Fe  Fe57      1.0  0.05409  0.70788  0.78788  1.0000
  C   C725      1.0  0.04485  0.72007  0.94313  1.0000
  H   H580      1.0  0.06961  0.50964  0.81444  1.0000
  C   C726      1.0  0.02953  0.60435  0.65371  1.0000
  C   C727      1.0  0.05205  0.51620  0.72634  1.0000
  H   H581      1.0  0.06154  0.67133  0.66576  1.0000
  H   H582      1.0  0.15329  0.71916  0.48907  1.0000
  C   C728      1.0  0.18247  0.67362  0.59676  1.0000
  C   C729      1.0  0.18127  0.72911  0.59897  1.0000
  H   H583      1.0  0.26261  0.61618  0.60771  1.0000
  C   C730      1.0  0.16388  0.69779  0.54917  1.0000
  H   H584      1.0  0.04556  0.59312  0.96766  1.0000
  C   C731      1.0  0.17706  0.62341  0.59802  1.0000
  C   C732      1.0  0.16609  0.62102  0.58107  1.0000
  C   C733      1.0  0.16181  0.63293  0.55892  1.0000
  C   C734      1.0  0.16847  0.64725  0.55369  1.0000
  H   H585      1.0  0.17980  0.61440  0.61575  1.0000
  H   H586      1.0  0.16054  0.61007  0.58548  1.0000
  H   H587      1.0  0.15288  0.63124  0.54614  1.0000
  H   H588      1.0  0.16405  0.65653  0.53724  1.0000
  H   H589      1.0  0.15499  0.66399  0.61077  1.0000
  P   P21       1.0  0.18806  0.66827  0.56475  1.0000
  H   H590      1.0  0.25876  0.63877  0.55016  1.0000
  H   H591      1.0  0.15540  0.72900  0.96307  1.0000
  C   C735      1.0  0.19156  0.68418  0.62913  1.0000
  H   H592      1.0  0.16197  0.67876  0.79870  1.0000
  C   C736      1.0  0.17576  0.68397  0.54134  1.0000
  C   C737      1.0  0.24404  0.67833  0.52743  1.0000
  H   H593      1.0  0.16069  0.69898  0.56976  1.0000
  C   C738      1.0  0.17149  0.69567  0.49554  1.0000
  H   H594      1.0  0.13053  0.64736  0.90505  1.0000
  H   H595      1.0  0.20786  0.68548  0.58884  1.0000
  C   C739      1.0  0.21501  0.66628  0.55187  1.0000
  C   C740      1.0  0.15459  0.69016  0.78893  1.0000
  C   C741      1.0  0.16550  0.66942  0.61576  1.0000
  C   C742      1.0  0.16611  0.70057  0.77027  1.0000
  H   H596      1.0  0.10700  0.61674  0.89790  1.0000
  H   H597      1.0  0.03210  0.62103  0.94935  1.0000
  C   C743      1.0  0.11030  0.63377  0.86054  1.0000
  S   S114      1.0  0.06825  0.69670  0.58352  1.0000
  Fe  Fe58      1.0  0.06678  0.71296  0.61008  1.0000
  H   H598      1.0  0.20138  0.69024  0.63416  1.0000
  H   H599      1.0  0.14712  0.72115  0.53633  1.0000
  C   C744      1.0  0.17529  0.67913  0.64835  1.0000
  Fe  Fe59      1.0  0.02992  0.49042  0.65120  1.0000
  C   C745      1.0  0.22800  0.65151  0.55633  1.0000
  C   C746      1.0  0.18513  0.61405  0.76137  1.0000
  C   C747      1.0  0.01264  0.62639  0.69805  1.0000
  H   H600      1.0  0.04181  0.69419  0.98255  1.0000
  C   C748      1.0  0.01030  0.66952  0.89697  1.0000
  C   C749      1.0  0.02177  0.67700  0.71758  1.0000
  C   C750      1.0  0.03370  0.65474  0.59792  1.0000
  H   H601      1.0  0.13393  0.64899  0.96509  1.0000
  P   P22       1.0  0.01611  0.64887  0.97454  1.0000
  C   C751      1.0  0.06341  0.66409  0.70742  1.0000
  S   S115      1.0  0.06501  0.67416  0.84948  1.0000
  C   C752      1.0  0.15611  0.71046  0.53021  1.0000
  C   C753      1.0  0.03267  0.67740  0.69125  1.0000
  Fe  Fe60      1.0  0.04538  0.69825  0.84884  1.0000
  H   H602      1.0  0.28540  0.63406  0.60512  1.0000
  H   H603      1.0  0.19198  0.63937  0.60647  1.0000
  S   S116      1.0  0.06795  0.71147  0.81940  1.0000
  C   C754      1.0  0.30255  0.65979  0.59807  1.0000
  H   H604      1.0  0.00058  0.71415  0.52462  1.0000
  H   H605      1.0  0.08239  0.49155  0.71275  1.0000
  C   C755      1.0  0.06583  0.71492  0.93786  1.0000
  C   C756      1.0  0.06049  0.71237  0.71261  1.0000
  H   H606      1.0  0.04131  0.60955  0.65642  1.0000
  C   C757      1.0  0.16152  0.72891  0.82889  1.0000
  H   H607      1.0  0.01491  0.68084  0.98191  1.0000
  H   H608      1.0  0.17544  0.73721  0.91753  1.0000
  H   H609      1.0  0.03772  0.72584  0.95965  1.0000
  H   H610      1.0  0.05013  0.50405  0.73038  1.0000
  H   H611      1.0  0.04098  0.64086  0.52196  1.0000
  C   C758      1.0  0.12393  0.70917  0.78230  1.0000
  C   C759      1.0  0.13200  0.65967  0.89988  1.0000
  C   C760      1.0  0.17967  0.68307  0.51433  1.0000
  C   C761      1.0  0.14936  0.68015  0.90009  1.0000
  Fe  Fe61      1.0  0.10193  0.72692  0.57369  1.0000
  H   H612      1.0  0.07036  0.69933  0.88371  1.0000
  H   H613      1.0  0.22552  0.62424  0.62214  1.0000
  C   C762      1.0  0.05991  0.70961  0.68771  1.0000
  C   C763      1.0  0.03247  0.48774  0.80942  1.0000
  H   H614      1.0  0.00094  0.68279  0.54170  1.0000
  H   H615      1.0  0.23635  0.70621  0.55809  1.0000
  C   C764      1.0  0.12190  0.63736  0.83481  1.0000
  H   H616      1.0  0.20083  0.69226  0.81113  1.0000
  S   S117      1.0  0.20476  0.72399  0.60922  1.0000
  H   H617      1.0  0.01688  0.49239  0.81744  1.0000
  H   H618      1.0  0.18237  0.69713  0.76540  1.0000
  H   H619      1.0  0.03048  0.69518  0.53677  1.0000
  H   H620      1.0  0.03774  0.61124  0.76049  1.0000
  S   S118      1.0  0.02729  0.70743  0.88529  1.0000
  C   C765      1.0  0.03277  0.68326  0.53376  1.0000
  C   C766      1.0  0.12108  0.68678  0.87758  1.0000
  C   C767      1.0  0.15663  0.71568  0.75891  1.0000
  H   H621      1.0  0.07296  0.70619  0.72248  1.0000
  C   C768      1.0  0.06796  0.53617  0.73185  1.0000
  C   C769      1.0  0.04513  0.72343  0.72427  1.0000
  H   H622      1.0  0.01570  0.69708  0.75522  1.0000
  C   C770      1.0  0.09724  0.48844  0.71763  1.0000
  C   C771      1.0  0.04323  0.54353  0.70349  1.0000
  C   C772      1.0  0.04103  0.52778  0.70903  1.0000
  H   H623      1.0  0.10766  0.71243  0.78636  1.0000
  H   H624      1.0  0.24548  0.72890  0.56793  1.0000
  C   C773      1.0  0.03556  0.65944  0.97331  1.0000
  C   C774      1.0  0.01506  0.66633  0.92230  1.0000
  H   H625      1.0  0.08224  0.52480  0.83768  1.0000
  C   C775      1.0  0.05284  0.66382  0.73368  1.0000
  H   H626      1.0  0.12827  0.73171  0.75628  1.0000
  C   C776      1.0  0.06506  0.49189  0.78137  1.0000
  C   C777      1.0  0.00138  0.70487  0.75312  1.0000
  H   H627      1.0  0.11320  0.69106  0.66499  1.0000
  H   H628      1.0  0.12250  0.70558  0.93158  1.0000
  C   C778      1.0  0.03303  0.71760  0.92706  1.0000
  H   H629      1.0  0.11096  0.69517  0.86563  1.0000
  C   C779      1.0  0.07493  0.70737  0.91652  1.0000
  C   C780      1.0  0.19351  0.60099  0.74954  1.0000
  C   C781      1.0  0.13426  0.71234  0.92829  1.0000
  C   C782      1.0  0.11886  0.67094  0.88514  1.0000
  C   C783      1.0  0.01981  0.58252  0.64374  1.0000
  S   S119      1.0  0.04714  0.50436  0.61489  1.0000
  C   C784      1.0  0.05331  0.67087  0.68621  1.0000
  H   H630      1.0  0.20212  0.71867  0.78118  1.0000
  H   H631      1.0  0.15760  0.65554  0.91857  1.0000
  C   C785      1.0  0.14638  0.72655  0.60333  1.0000
  C   C786      1.0  0.03892  0.65263  0.52547  1.0000
  H   H632      1.0  0.01679  0.72150  0.93123  1.0000
  H   H633      1.0  0.02407  0.66923  0.75934  1.0000
  C   C787      1.0  0.03475  0.58956  0.64684  1.0000
  S   S120      1.0  0.05370  0.72004  0.51840  1.0000
  H   H634      1.0  0.10300  0.61616  0.50986  1.0000
  S   S121      1.0  0.07447  0.68485  0.78310  1.0000
  C   C788      1.0  0.25686  0.66359  0.53207  1.0000
  H   H635      1.0  0.14790  0.69340  0.72034  1.0000
  P   P23       1.0  0.13991  0.71184  0.87455  1.0000
  S   S122      1.0  0.17097  0.72916  0.73681  1.0000
  C   C789      1.0  0.13639  0.69151  0.88489  1.0000
  H   H636      1.0  0.30775  0.67773  0.68358  1.0000
  H   H637      1.0  0.27300  0.66255  0.52445  1.0000
  H   H638      1.0  0.12391  0.49162  0.76149  1.0000
  H   H639      1.0  0.05141  0.63125  0.72215  1.0000
  H   H640      1.0  0.21353  0.69127  0.53399  1.0000
  C   C790      1.0  0.24884  0.65021  0.54654  1.0000
  H   H641      1.0  0.20729  0.60108  0.73446  1.0000
  H   H642      1.0  0.10727  0.66743  0.87873  1.0000
  C   C791      1.0  0.09930  0.66092  0.50340  1.0000
  C   C792      1.0  0.09127  0.51452  0.77736  1.0000
  C   C793      1.0  0.10755  0.52224  0.76443  1.0000
  C   C794      1.0  0.11450  0.53094  0.77761  1.0000
  C   C795      1.0  0.10541  0.53183  0.80402  1.0000
  C   C796      1.0  0.08942  0.52393  0.81730  1.0000
  C   C797      1.0  0.02930  0.63233  0.69921  1.0000
  H   H643      1.0  0.07870  0.53983  0.73951  1.0000
  H   H644      1.0  0.11643  0.63803  0.54337  1.0000
  C   C798      1.0  0.04365  0.71753  0.67499  1.0000
  C   C799      1.0  0.05652  0.54775  0.71514  1.0000
  H   H645      1.0  0.30453  0.73068  0.82123  1.0000
  C   C800      1.0  0.19086  0.71739  0.79957  1.0000
  C   C801      1.0  0.01484  0.64586  0.64250  1.0000
  S   S123      1.0  0.21592  0.72979  0.67504  1.0000
  C   C802      1.0  0.22322  0.67970  0.53740  1.0000
  H   H646      1.0  0.17277  0.68093  0.66844  1.0000
  C   C803      1.0  0.18370  0.58814  0.75622  1.0000
  H   H647      1.0  0.31296  0.64226  0.63128  1.0000
  H   H648      1.0  0.11443  0.52202  0.74372  1.0000
  H   H649      1.0  0.12662  0.53732  0.76693  1.0000
  H   H650      1.0  0.11057  0.53889  0.81397  1.0000
  C   C804      1.0  0.13807  0.69924  0.70618  1.0000
  H   H651      1.0  0.09507  0.71924  0.48876  1.0000
  C   C805      1.0  0.00511  0.61499  0.71975  1.0000
  Fe  Fe62      1.0  0.19619  0.71653  0.70976  1.0000
  P   P24       1.0  0.15472  0.63173  0.79340  1.0000
  C   C806      1.0  0.13794  0.64380  0.77160  1.0000
  C   C807      1.0  0.13950  0.62678  0.82644  1.0000
  C   C808      1.0  0.14555  0.61271  0.84442  1.0000
  C   C809      1.0  0.13385  0.60910  0.87012  1.0000
  C   C810      1.0  0.13476  0.66032  0.76705  1.0000
  C   C811      1.0  0.11987  0.66969  0.75320  1.0000
  C   C812      1.0  0.10827  0.66270  0.74316  1.0000
  C   C813      1.0  0.11138  0.64624  0.74745  1.0000
  C   C814      1.0  0.12616  0.63680  0.76159  1.0000
  C   C815      1.0  0.17342  0.64212  0.79573  1.0000
  C   C816      1.0  0.17844  0.64084  0.82051  1.0000
  C   C817      1.0  0.19294  0.64883  0.82221  1.0000
  C   C818      1.0  0.20255  0.65816  0.79923  1.0000
  C   C819      1.0  0.19757  0.65958  0.77460  1.0000
  C   C820      1.0  0.18312  0.65158  0.77280  1.0000
  H   H652      1.0  0.14275  0.60134  0.80065  1.0000
  H   H653      1.0  0.15930  0.60454  0.83856  1.0000
  H   H654      1.0  0.13843  0.59809  0.88371  1.0000
  H   H655      1.0  0.14316  0.66598  0.77518  1.0000
  H   H656      1.0  0.11686  0.68241  0.75112  1.0000
  H   H657      1.0  0.09657  0.67005  0.73268  1.0000
  H   H658      1.0  0.10193  0.64077  0.74053  1.0000
  H   H659      1.0  0.12789  0.62407  0.76529  1.0000
  H   H660      1.0  0.17122  0.63373  0.83859  1.0000
  H   H661      1.0  0.19671  0.64780  0.84134  1.0000
  H   H662      1.0  0.21383  0.66434  0.80040  1.0000
  H   H663      1.0  0.20482  0.66698  0.75684  1.0000
  H   H664      1.0  0.17948  0.65285  0.75350  1.0000
  C   C821      1.0  0.08230  0.51533  0.80403  1.0000
  S   S124      1.0  0.27397  0.71232  0.68158  1.0000
  C   C822      1.0  0.16697  0.61420  0.78042  1.0000
  C   C823      1.0  0.06319  0.70508  0.90026  1.0000
  H   H665      1.0  0.31316  0.72108  0.66739  1.0000
  H   H666      1.0  0.00589  0.72014  0.77583  1.0000
  S   S125      1.0  0.04649  0.49448  0.67954  1.0000
  C   C824      1.0  0.08585  0.63445  0.54782  1.0000
  C   C825      1.0  0.19004  0.70249  0.81641  1.0000
  C   C826      1.0  0.10514  0.66805  0.52037  1.0000
  H   H667      1.0  0.05875  0.55988  0.71018  1.0000
  C   C827      1.0  0.01270  0.66092  0.64758  1.0000
  P   P25       1.0  0.08106  0.64794  0.51673  1.0000
  C   C828      1.0  0.17476  0.70071  0.83929  1.0000
  C   C829      1.0  0.07109  0.62588  0.56418  1.0000
  C   C830      1.0  0.07445  0.61578  0.58849  1.0000
  C   C831      1.0  0.09269  0.61395  0.59655  1.0000
  C   C832      1.0  0.10770  0.62201  0.58010  1.0000
  C   C833      1.0  0.10444  0.63207  0.55572  1.0000
  C   C834      1.0  0.05572  0.65940  0.52326  1.0000
  H   H668      1.0  0.07783  0.68169  0.97133  1.0000
  S   S126      1.0  0.11951  0.68096  0.81780  1.0000
  C   C835      1.0  0.10113  0.49346  0.73862  1.0000
  C   C836      1.0  0.11260  0.71441  0.66990  1.0000
  C   C837      1.0  0.05245  0.67487  0.52723  1.0000
  C   C838      1.0  0.13351  0.69437  0.79474  1.0000
  Fe  Fe63      1.0  0.07232  0.71735  0.54936  1.0000
  H   H669      1.0  0.26873  0.72431  0.59909  1.0000
  H   H670      1.0  0.09850  0.66618  0.54154  1.0000
  H   H671      1.0  0.12432  0.68291  0.52344  1.0000
  C   C839      1.0  0.11956  0.72344  0.68268  1.0000
  C   C840      1.0  0.13216  0.71569  0.70106  1.0000
  C   C841      1.0  0.11357  0.72598  0.83947  1.0000
  H   H672      1.0  0.05690  0.62698  0.55839  1.0000
  C   C842      1.0  0.09459  0.62133  0.49395  1.0000
  H   H673      1.0  0.09512  0.60645  0.61574  1.0000
  H   H674      1.0  0.12168  0.62077  0.58667  1.0000
  H   H675      1.0  0.99969  0.67601  0.80087  1.0000
  H   H676      1.0  0.09109  0.70325  0.91262  1.0000
  C   C843      1.0  0.14724  0.66428  0.90741  1.0000
  H   H677      1.0  0.07168  0.70107  0.67871  1.0000
  H   H678      1.0  0.25572  0.73486  0.71691  1.0000
  H   H679      1.0  0.06494  0.68061  0.52535  1.0000
  H   H680      1.0  0.01408  0.67991  0.88221  1.0000
  C   C844      1.0  0.22745  0.64703  0.62697  1.0000
  C   C845      1.0  0.23550  0.63228  0.62041  1.0000
  C   C846      1.0  0.26128  0.65277  0.61771  1.0000
  C   C847      1.0  0.24027  0.65717  0.62592  1.0000
  P   P26       1.0  0.27773  0.66584  0.61721  1.0000
  C   C848      1.0  0.28014  0.66512  0.65086  1.0000
  C   C849      1.0  0.29557  0.67137  0.65495  1.0000
  C   C850      1.0  0.29654  0.67205  0.68073  1.0000
  C   C851      1.0  0.28243  0.66617  0.70269  1.0000
  C   C852      1.0  0.26753  0.65936  0.69894  1.0000
  C   C853      1.0  0.26640  0.65878  0.67317  1.0000
  C   C854      1.0  0.26779  0.68588  0.60127  1.0000
  C   C855      1.0  0.25489  0.68861  0.58318  1.0000
  C   C856      1.0  0.24706  0.70407  0.57101  1.0000
  C   C857      1.0  0.25224  0.71692  0.57649  1.0000
  C   C858      1.0  0.26524  0.71433  0.59415  1.0000
  C   C859      1.0  0.27309  0.69891  0.60638  1.0000
  H   H681      1.0  0.21128  0.65033  0.63399  1.0000
  H   H682      1.0  0.23382  0.66832  0.63207  1.0000
  H   H683      1.0  0.31350  0.71439  0.74891  1.0000
  H   H684      1.0  0.30647  0.67624  0.63818  1.0000
  C   C860      1.0  0.03267  0.61736  0.97038  1.0000
  H   H685      1.0  0.28280  0.66719  0.72254  1.0000
  H   H686      1.0  0.25641  0.65495  0.71592  1.0000
  H   H687      1.0  0.25439  0.65380  0.67090  1.0000
  H   H688      1.0  0.25056  0.67887  0.57878  1.0000
  Fe  Fe64      1.0  0.20894  0.71458  0.65192  1.0000
  Fe  Fe65      1.0  0.24108  0.70966  0.68602  1.0000
  P   P27       1.0  0.08100  0.50501  0.75873  1.0000
  C   C861      1.0  0.03054  0.61565  0.74330  1.0000
  C   C862      1.0  0.11973  0.67762  0.51018  1.0000
  H   H689      1.0  0.18981  0.57832  0.74623  1.0000
  C   C863      1.0  0.18395  0.63762  0.59267  1.0000
  H   H690      1.0  0.14945  0.66801  0.65631  1.0000
  C   C864      1.0  0.01619  0.67629  0.53658  1.0000
  C   C865      1.0  0.16560  0.58823  0.77507  1.0000
  C   C866      1.0  0.26927  0.63792  0.61105  1.0000
  S   S127      1.0  0.10009  0.70695  0.60963  1.0000
  H   H691      1.0  0.08492  0.60352  0.97272  1.0000
  C   C867      1.0  0.01928  0.66096  0.53255  1.0000
  C   C868      1.0  0.13131  0.69037  0.69311  1.0000
  H   H692      1.0  0.02396  0.57100  0.63857  1.0000
  H   H693      1.0  0.10258  0.71998  0.65598  1.0000
  H   H694      1.0  0.00712  0.48963  0.72764  1.0000
  H   H695      1.0  0.02239  0.67454  0.92663  1.0000
  C   C869      1.0  0.03206  0.66997  0.73880  1.0000
  C   C870      1.0  0.31342  0.72977  0.80159  1.0000
  H   H696      1.0  0.01255  0.55679  0.60311  1.0000
  H   H697      1.0  0.25022  0.68874  0.51627  1.0000
  H   H698      1.0  0.28268  0.69740  0.62043  1.0000
  H   H699      1.0  0.13346  0.72132  0.61439  1.0000
  H   H700      1.0  0.13764  0.72241  0.71120  1.0000
  H   H701      1.0  0.15673  0.73531  0.67019  1.0000
  H   H702      1.0  0.16135  0.68354  0.90582  1.0000
  C   C871      1.0  0.32707  0.66200  0.55615  1.0000
  C   C872      1.0  0.28333  0.72663  0.69110  1.0000
  H   H703      1.0  0.12880  0.71330  0.96981  1.0000
  H   H704      1.0  0.03136  0.52451  0.69901  1.0000
  C   C873      1.0  0.17661  0.73058  0.80581  1.0000
  H   H705      1.0  0.18918  0.67267  0.50780  1.0000
  H   H706      1.0  0.29442  0.71591  0.79481  1.0000
  H   H707      1.0  0.17404  0.68897  0.85142  1.0000
  P   P28       1.0  0.00302  0.63101  0.66761  1.0000
  H   H708      1.0  0.02550  0.68288  0.67439  1.0000
  C   C874      1.0  0.01016  0.65289  0.94160  1.0000
  H   H709      1.0  0.08740  0.73215  0.72730  1.0000
  C   C875      1.0  0.00927  0.61231  0.65737  1.0000
  C   C876      1.0  0.07125  0.66045  0.96583  1.0000
  C   C877      1.0  0.15271  0.72561  0.94618  1.0000
  H   H710      1.0  0.31736  0.72274  0.92054  1.0000
  C   C878      1.0  0.04061  0.60153  0.98061  1.0000
  C   C879      1.0  0.02018  0.50792  0.49805  1.0000
  C   C880      1.0  0.09584  0.73537  0.83192  1.0000
  C   C881      1.0  0.11717  0.72457  0.86503  1.0000
  C   C882      1.0  0.30762  0.72134  0.78670  1.0000
  C   C883      1.0  0.06610  0.67544  0.97183  1.0000
  H   H711      1.0  0.01937  0.68446  0.63175  1.0000
  C   C884      1.0  0.05605  0.65247  0.96651  1.0000
  H   H712      1.0  0.06029  0.64092  0.96159  1.0000
  H   H713      1.0  0.08702  0.65511  0.96050  1.0000
  C   C885      1.0  0.04491  0.49793  0.79213  1.0000
  H   H714      1.0  0.09318  0.73615  0.81225  1.0000
  C   C886      1.0  0.03054  0.67483  0.97802  1.0000
  C   C887      1.0  0.12056  0.48853  0.74481  1.0000
  C   C888      1.0  0.04577  0.68256  0.97799  1.0000
  C   C889      1.0  0.30778  0.66675  0.57082  1.0000
  H   H715      1.0  0.12441  0.71961  0.82552  1.0000
  C   C890      1.0  0.14533  0.71709  0.90243  1.0000
  C   C891      1.0  0.16027  0.71391  0.84563  1.0000
  C   C892      1.0  0.00657  0.49760  0.50984  1.0000
  C   C893      1.0  0.13784  0.71668  0.95004  1.0000
  C   C894      1.0  0.30369  0.72823  0.68116  1.0000
  C   C895      1.0  0.15969  0.70936  0.50351  1.0000
  C   C896      1.0  0.27135  0.73595  0.70897  1.0000
  C   C897      1.0  0.32106  0.72780  0.89932  1.0000
  H   H716      1.0  0.00839  0.60064  0.75875  1.0000
  H   H717      1.0  0.00633  0.52949  0.62302  1.0000
  C   C898      1.0  0.31676  0.64788  0.61032  1.0000
  C   C899      1.0  0.00011  0.64288  0.93514  1.0000
  C   C900      1.0  0.31844  0.72037  0.76090  1.0000
  S   S128      1.0  0.04556  0.72812  0.75451  1.0000
  H   H718      1.0  0.01554  0.73430  0.67751  1.0000
  S   S129      1.0  0.06822  0.73422  0.57613  1.0000
  H   H719      1.0  0.16900  0.72987  0.87895  1.0000
  H   H720      1.0  0.00568  0.65015  0.74183  1.0000
  H   H721      1.0  0.33111  0.66752  0.53520  1.0000
  C   C901      1.0  0.02822  0.72826  0.68707  1.0000
  C   C902      1.0  0.02924  0.73151  0.71116  1.0000
  C   C903      1.0  0.16395  0.73025  0.92053  1.0000
  H   H722      1.0  0.01316  0.73396  0.82428  1.0000
  H   H723      1.0  0.10502  0.73202  0.90276  1.0000
  H   H724      1.0  0.00638  0.65563  0.53459  1.0000
  H   H725      1.0  0.00479  0.66339  0.66684  1.0000
  C   C904      1.0  0.10284  0.73293  0.88282  1.0000
  H   H726      1.0  0.00090  0.71021  0.67710  1.0000
  H   H727      1.0  0.99963  0.52258  0.73076  1.0000
  H   H728      1.0  0.13056  0.67348  0.98119  1.0000
  H   H729      1.0  0.05080  0.51125  0.49243  1.0000
  C   C905      1.0  0.99957  0.59027  0.64764  1.0000
  C   C906      1.0  0.04695  0.48801  0.51540  1.0000
  C   C907      1.0  0.12820  0.68053  0.48292  1.0000
  H   H730      1.0  0.01504  0.51967  0.48690  1.0000
  H   H731      1.0  0.04056  0.70709  0.48275  1.0000
  H   H732      1.0  0.01074  0.77847  0.21011  1.0000
  C   C908      1.0  0.32860  0.92617  0.33581  1.0000
  S   S130      1.0  0.04241  0.75526  0.06167  1.0000
  Fe  Fe66      1.0  0.08524  0.78890  0.14721  1.0000
  S   S131      1.0  0.06996  0.81427  0.13608  1.0000
  S   S132      1.0  0.10131  0.77356  0.11766  1.0000
  Fe  Fe67      1.0  0.07824  0.78924  0.20599  1.0000
  S   S133      1.0  0.06290  0.81477  0.19946  1.0000
  S   S134      1.0  0.08385  0.77672  0.24729  1.0000
  H   H733      1.0  0.03639  0.77883  0.09224  1.0000
  Fe  Fe68      1.0  0.08762  0.81867  0.16316  1.0000
  S   S135      1.0  0.10478  0.83921  0.14878  1.0000
  S   S136      1.0  0.06070  0.78215  0.18213  1.0000
  S   S137      1.0  0.10423  0.79363  0.17186  1.0000
  C   C909      1.0  0.24239  0.94761  0.23909  1.0000
  H   H734      1.0  0.12437  0.87835  0.31368  1.0000
  C   C910      1.0  0.30392  0.86090  0.34623  1.0000
  C   C911      1.0  0.21859  0.97697  0.22104  1.0000
  C   C912      1.0  0.22566  0.88724  0.26665  1.0000
  S   S138      1.0  0.30437  0.88466  0.27028  1.0000
  P   P29       1.0  0.04800  0.80172  0.00046  1.0000
  C   C913      1.0  0.07415  0.89407  0.32600  1.0000
  H   H735      1.0  0.32569  0.91293  0.17130  1.0000
  H   H736      1.0  0.08221  0.80415  0.07088  1.0000
  H   H737      1.0  0.26654  0.95631  0.20817  1.0000
  H   H738      1.0  0.06445  0.76760  0.01028  1.0000
  H   H739      1.0  0.25541  0.83189  0.00122  1.0000
  C   C914      1.0  0.31963  0.81765  0.18370  1.0000
  H   H740      1.0  0.02170  0.77796  0.02352  1.0000
  C   C915      1.0  0.32276  0.91845  0.39159  1.0000
  H   H741      1.0  0.22627  0.92433  0.22863  1.0000
  C   C916      1.0  0.21793  0.94316  0.17387  1.0000
  C   C917      1.0  0.27964  0.92432  0.22659  1.0000
  C   C918      1.0  0.32534  0.96037  0.24796  1.0000
  H   H742      1.0  0.26166  0.89784  0.28797  1.0000
  H   H743      1.0  0.31512  0.78735  0.06577  1.0000
  H   H744      1.0  0.01477  0.75907  0.11723  1.0000
  H   H745      1.0  0.02322  0.82434  0.03276  1.0000
  Fe  Fe69      1.0  0.23830  0.85605  0.20762  1.0000
  S   S139      1.0  0.20807  0.87167  0.21661  1.0000
  S   S140      1.0  0.25611  0.84265  0.23966  1.0000
  Fe  Fe70      1.0  0.23541  0.85982  0.15009  1.0000
  S   S141      1.0  0.20513  0.87619  0.15423  1.0000
  S   S142      1.0  0.24851  0.84973  0.11334  1.0000
  Fe  Fe71      1.0  0.21902  0.88749  0.17722  1.0000
  S   S143      1.0  0.21141  0.91387  0.17638  1.0000
  Fe  Fe72      1.0  0.19694  0.85905  0.19284  1.0000
  S   S144      1.0  0.16917  0.84731  0.20925  1.0000
  S   S145      1.0  0.25001  0.87245  0.16968  1.0000
  S   S146      1.0  0.22648  0.84212  0.18732  1.0000
  H   H746      1.0  0.03153  0.75108  0.47482  1.0000
  H   H747      1.0  0.11529  0.75001  0.21860  1.0000
  C   C919      1.0  0.24669  0.92642  0.15232  1.0000
  C   C920      1.0  0.22678  0.92849  0.16709  1.0000
  H   H748      1.0  0.25363  0.91526  0.14650  1.0000
  C   C921      1.0  0.26456  0.93244  0.28086  1.0000
  C   C922      1.0  0.27422  0.93895  0.32497  1.0000
  C   C923      1.0  0.32325  0.80530  0.17021  1.0000
  C   C924      1.0  0.13895  0.89211  0.24162  1.0000
  H   H749      1.0  0.17110  0.92444  0.20432  1.0000
  H   H750      1.0  0.32064  0.94982  0.12152  1.0000
  H   H751      1.0  0.24342  0.91939  0.31051  1.0000
  C   C925      1.0  0.22208  0.95141  0.25169  1.0000
  H   H752      1.0  0.29415  0.95308  0.29571  1.0000
  C   C926      1.0  0.10539  0.78864  0.01621  1.0000
  C   C927      1.0  0.28882  0.88590  0.45287  1.0000
  H   H753      1.0  0.27813  0.94138  0.34190  1.0000
  C   C928      1.0  0.26668  0.96181  0.06617  1.0000
  C   C929      1.0  0.32191  0.84605  0.02568  1.0000
  C   C930      1.0  0.32250  0.92655  0.11566  1.0000
  C   C931      1.0  0.26189  0.97483  0.04586  1.0000
  H   H754      1.0  0.31089  0.79358  0.14882  1.0000
  H   H755      1.0  0.27293  0.88945  0.45208  1.0000
  H   H756      1.0  0.30692  0.92874  0.11362  1.0000
  C   C932      1.0  0.31648  0.83044  0.09982  1.0000
  C   C933      1.0  0.30836  0.84295  0.11307  1.0000
  C   C934      1.0  0.28736  0.84848  0.11840  1.0000
  C   C935      1.0  0.27455  0.84195  0.10948  1.0000
  C   C936      1.0  0.28269  0.82933  0.09648  1.0000
  C   C937      1.0  0.30356  0.82340  0.09214  1.0000
  H   H757      1.0  0.31826  0.84839  0.11920  1.0000
  H   H758      1.0  0.28121  0.85809  0.12874  1.0000
  H   H759      1.0  0.27285  0.82410  0.08986  1.0000
  H   H760      1.0  0.30979  0.81370  0.08211  1.0000
  Fe  Fe73      1.0  0.33222  0.96738  0.14446  1.0000
  C   C938      1.0  0.25494  0.92634  0.30701  1.0000
  H   H761      1.0  0.32065  0.94460  0.22649  1.0000
  H   H762      1.0  0.13850  0.82592  0.32365  1.0000
  C   C939      1.0  0.02575  0.77573  0.26782  1.0000
  C   C940      1.0  0.22050  0.90110  0.24797  1.0000
  C   C941      1.0  0.22982  0.91400  0.24411  1.0000
  H   H763      1.0  0.24417  0.94537  0.40552  1.0000
  H   H764      1.0  0.16905  0.86687  0.25253  1.0000
  C   C942      1.0  0.28552  0.94648  0.03287  1.0000
  H   H765      1.0  0.21575  0.93142  0.41283  1.0000
  C   C943      1.0  0.10890  0.85702  0.23911  1.0000
  H   H766      1.0  0.05445  0.89956  0.29782  1.0000
  C   C944      1.0  0.09280  0.86596  0.20061  1.0000
  C   C945      1.0  0.27834  0.94768  0.05975  1.0000
  H   H767      1.0  0.03367  0.78175  0.27619  1.0000
  S   S147      1.0  0.25980  0.97075  0.13803  1.0000
  S   S148      1.0  0.30706  0.95759  0.17513  1.0000
  C   C946      1.0  0.14506  0.83488  0.30800  1.0000
  H   H768      1.0  0.28862  0.90654  0.00077  1.0000
  C   C947      1.0  0.16208  0.85811  0.26801  1.0000
  H   H769      1.0  0.02122  0.75744  0.30339  1.0000
  H   H770      1.0  0.05020  0.74811  0.42932  1.0000
  C   C948      1.0  0.17455  0.84518  0.28109  1.0000
  C   C949      1.0  0.29385  0.87200  0.25935  1.0000
  C   C950      1.0  0.29420  0.85619  0.27273  1.0000
  C   C951      1.0  0.28274  0.84715  0.26641  1.0000
  C   C952      1.0  0.27132  0.85378  0.24631  1.0000
  C   C953      1.0  0.27162  0.86938  0.23234  1.0000
  C   C954      1.0  0.28274  0.87847  0.23897  1.0000
  H   H771      1.0  0.30261  0.85115  0.28860  1.0000
  H   H772      1.0  0.28235  0.83514  0.27748  1.0000
  H   H773      1.0  0.26275  0.87470  0.21703  1.0000
  H   H774      1.0  0.28233  0.89069  0.22866  1.0000
  C   C955      1.0  0.12406  0.84061  0.16414  1.0000
  C   C956      1.0  0.13413  0.85352  0.15417  1.0000
  C   C957      1.0  0.14857  0.85546  0.16711  1.0000
  C   C958      1.0  0.15282  0.84460  0.19042  1.0000
  C   C959      1.0  0.14302  0.83155  0.19992  1.0000
  C   C960      1.0  0.12903  0.82939  0.18662  1.0000
  H   H775      1.0  0.13037  0.86226  0.13675  1.0000
  H   H776      1.0  0.15589  0.86561  0.15956  1.0000
  H   H777      1.0  0.14585  0.82317  0.21793  1.0000
  H   H778      1.0  0.12150  0.81936  0.19434  1.0000
  C   C961      1.0  0.06954  0.75081  0.24566  1.0000
  C   C962      1.0  0.07742  0.75788  0.26049  1.0000
  C   C963      1.0  0.08117  0.74954  0.28577  1.0000
  C   C964      1.0  0.24849  0.95373  0.15153  1.0000
  H   H779      1.0  0.06650  0.75711  0.22627  1.0000
  H   H780      1.0  0.08709  0.75501  0.29743  1.0000
  C   C965      1.0  0.25990  0.92950  0.32897  1.0000
  C   C966      1.0  0.05927  0.76093  0.07568  1.0000
  C   C967      1.0  0.07959  0.75340  0.07306  1.0000
  C   C968      1.0  0.09242  0.75735  0.08602  1.0000
  C   C969      1.0  0.08496  0.76875  0.10172  1.0000
  C   C970      1.0  0.06473  0.77648  0.10396  1.0000
  C   C971      1.0  0.05201  0.77277  0.09053  1.0000
  C   C972      1.0  0.06973  0.89489  0.30123  1.0000
  C   C973      1.0  0.01083  0.75754  0.13881  1.0000
  H   H781      1.0  0.05891  0.78540  0.11586  1.0000
  H   H782      1.0  0.09276  0.89019  0.18000  1.0000
  H   H783      1.0  0.10127  0.75735  0.17722  1.0000
  C   C974      1.0  0.09860  0.85403  0.22188  1.0000
  H   H784      1.0  0.22274  0.90263  0.41379  1.0000
  C   C975      1.0  0.10790  0.81608  0.29458  1.0000
  C   C976      1.0  0.09214  0.81942  0.28071  1.0000
  C   C977      1.0  0.09443  0.81258  0.25894  1.0000
  C   C978      1.0  0.11247  0.80247  0.25093  1.0000
  C   C979      1.0  0.12839  0.79905  0.26470  1.0000
  C   C980      1.0  0.12596  0.80589  0.28668  1.0000
  P   P30       1.0  0.15033  0.78406  0.25708  1.0000
  C   C981      1.0  0.14591  0.76505  0.27794  1.0000
  C   C982      1.0  0.15394  0.78277  0.22255  1.0000
  C   C983      1.0  0.14376  0.77303  0.21570  1.0000
  C   C984      1.0  0.14718  0.77143  0.18923  1.0000
  C   C985      1.0  0.16027  0.77988  0.16929  1.0000
  C   C986      1.0  0.17001  0.78992  0.17577  1.0000
  C   C987      1.0  0.16693  0.79135  0.20229  1.0000
  C   C988      1.0  0.32964  0.87656  0.45642  1.0000
  H   H785      1.0  0.00334  0.74366  0.28430  1.0000
  C   C989      1.0  0.06729  0.80299  0.04039  1.0000
  C   C990      1.0  0.30592  0.85603  0.03861  1.0000
  C   C991      1.0  0.12988  0.76409  0.30023  1.0000
  C   C992      1.0  0.17288  0.78912  0.26144  1.0000
  C   C993      1.0  0.18923  0.77722  0.26843  1.0000
  C   C994      1.0  0.20735  0.78119  0.26921  1.0000
  C   C995      1.0  0.20938  0.79704  0.26268  1.0000
  C   C996      1.0  0.19318  0.80895  0.25587  1.0000
  C   C997      1.0  0.17492  0.80505  0.25571  1.0000
  H   H786      1.0  0.10588  0.82106  0.31188  1.0000
  H   H787      1.0  0.07800  0.82706  0.28705  1.0000
  H   H788      1.0  0.08206  0.81474  0.24857  1.0000
  H   H789      1.0  0.11361  0.79701  0.23446  1.0000
  H   H790      1.0  0.13777  0.80296  0.29816  1.0000
  H   H791      1.0  0.13301  0.76680  0.23079  1.0000
  H   H792      1.0  0.13929  0.76395  0.18397  1.0000
  H   H793      1.0  0.16262  0.77881  0.14876  1.0000
  H   H794      1.0  0.17987  0.79665  0.16018  1.0000
  H   H795      1.0  0.17454  0.79926  0.20680  1.0000
  H   H796      1.0  0.31584  0.89761  0.05873  1.0000
  H   H797      1.0  0.17579  0.82349  0.31102  1.0000
  H   H798      1.0  0.29098  0.91807  0.16308  1.0000
  H   H799      1.0  0.09730  0.88748  0.34957  1.0000
  H   H800      1.0  0.12010  0.77462  0.30585  1.0000
  H   H801      1.0  0.18820  0.76486  0.27303  1.0000
  H   H802      1.0  0.21992  0.77194  0.27455  1.0000
  H   H803      1.0  0.22353  0.80013  0.26279  1.0000
  H   H804      1.0  0.19480  0.82126  0.25031  1.0000
  H   H805      1.0  0.16263  0.81455  0.25057  1.0000
  H   H806      1.0  0.30212  0.92025  0.25093  1.0000
  H   H807      1.0  0.10809  0.75142  0.08413  1.0000
  H   H808      1.0  0.31825  0.94311  0.05644  1.0000
  C   C998      1.0  0.31287  0.91610  0.18669  1.0000
  C   C999      1.0  0.24012  0.88629  0.28154  1.0000
  H   H809      1.0  0.25251  0.92471  0.34907  1.0000
  C   C1000     1.0  0.14097  0.85951  0.27468  1.0000
  C   C1001     1.0  0.13254  0.84781  0.29492  1.0000
  H   H810      1.0  0.11327  0.74865  0.33217  1.0000
  C   C1002     1.0  0.02055  0.75446  0.18109  1.0000
  H   H811      1.0  0.10986  0.89599  0.21104  1.0000
  C   C1003     1.0  0.32964  0.87308  0.20298  1.0000
  C   C1004     1.0  0.32435  0.86951  0.18172  1.0000
  C   C1005     1.0  0.32698  0.85373  0.18003  1.0000
  C   C1006     1.0  0.01317  0.77355  0.23035  1.0000
  C   C1007     1.0  0.11196  0.74096  0.21102  1.0000
  C   C1008     1.0  0.32934  0.94608  0.23967  1.0000
  H   H812      1.0  0.27550  0.86914  0.03960  1.0000
  H   H813      1.0  0.03234  0.75311  0.19207  1.0000
  C   C1009     1.0  0.01881  0.76202  0.28307  1.0000
  H   H814      1.0  0.26145  0.96268  0.08697  1.0000
  H   H815      1.0  0.27154  0.86093  0.00002  1.0000
  C   C1010     1.0  0.28844  0.81198  0.16449  1.0000
  C   C1011     1.0  0.28453  0.82380  0.17896  1.0000
  C   C1012     1.0  0.29998  0.82658  0.18868  1.0000
  C   C1013     1.0  0.02558  0.75654  0.15329  1.0000
  C   C1014     1.0  0.11307  0.87216  0.23551  1.0000
  C   C1015     1.0  0.23892  0.97339  0.20884  1.0000
  C   C1016     1.0  0.15773  0.75098  0.27092  1.0000
  H   H816      1.0  0.32064  0.91571  0.41319  1.0000
  C   C1017     1.0  0.12585  0.74934  0.31524  1.0000
  H   H817      1.0  0.25792  0.88781  0.40739  1.0000
  H   H818      1.0  0.32732  0.88520  0.20475  1.0000
  H   H819      1.0  0.31819  0.87897  0.16657  1.0000
  H   H820      1.0  0.32298  0.85115  0.16330  1.0000
  C   C1018     1.0  0.23121  0.92497  0.40985  1.0000
  H   H821      1.0  0.12011  0.78290  0.00707  1.0000
  H   H822      1.0  0.09098  0.78772  0.98536  1.0000
  C   C1019     1.0  0.24424  0.91319  0.25916  1.0000
  H   H823      1.0  0.24492  0.87527  0.29495  1.0000
  S   S149      1.0  0.31212  0.98428  0.11798  1.0000
  C   C1020     1.0  0.06016  0.77109  0.99090  1.0000
  H   H824      1.0  0.27653  0.81023  0.15629  1.0000
  H   H825      1.0  0.26961  0.83104  0.18238  1.0000
  H   H826      1.0  0.29645  0.83573  0.20007  1.0000
  C   C1021     1.0  0.20368  0.81721  0.17239  1.0000
  C   C1022     1.0  0.22051  0.80492  0.17204  1.0000
  C   C1023     1.0  0.22948  0.79954  0.14846  1.0000
  C   C1024     1.0  0.22167  0.80652  0.12522  1.0000
  C   C1025     1.0  0.20517  0.81927  0.12524  1.0000
  C   C1026     1.0  0.19603  0.82438  0.14911  1.0000
  P   P31       1.0  0.19424  0.82757  0.09583  1.0000
  C   C1027     1.0  0.18209  0.84803  0.09461  1.0000
  C   C1028     1.0  0.21378  0.82825  0.06602  1.0000
  C   C1029     1.0  0.23291  0.83063  0.06655  1.0000
  C   C1030     1.0  0.24790  0.83179  0.04332  1.0000
  C   C1031     1.0  0.24381  0.83087  0.01925  1.0000
  C   C1032     1.0  0.22462  0.82893  0.01838  1.0000
  C   C1033     1.0  0.20958  0.82776  0.04164  1.0000
  C   C1034     1.0  0.16441  0.85427  0.08409  1.0000
  C   C1035     1.0  0.15541  0.87024  0.08250  1.0000
  C   C1036     1.0  0.16429  0.88018  0.09066  1.0000
  C   C1037     1.0  0.18226  0.87419  0.10022  1.0000
  C   C1038     1.0  0.19115  0.85818  0.10225  1.0000
  C   C1039     1.0  0.17653  0.81530  0.09755  1.0000
  C   C1040     1.0  0.18259  0.80219  0.08544  1.0000
  C   C1041     1.0  0.16866  0.79283  0.08679  1.0000
  C   C1042     1.0  0.14870  0.79642  0.10046  1.0000
  C   C1043     1.0  0.14281  0.80914  0.11327  1.0000
  C   C1044     1.0  0.15673  0.81835  0.11227  1.0000
  H   H827      1.0  0.19659  0.82129  0.19071  1.0000
  H   H828      1.0  0.22656  0.79960  0.19006  1.0000
  H   H829      1.0  0.22857  0.80204  0.10725  1.0000
  H   H830      1.0  0.18291  0.83381  0.14981  1.0000
  H   H831      1.0  0.23616  0.83184  0.08483  1.0000
  H   H832      1.0  0.26260  0.83363  0.04404  1.0000
  C   C1045     1.0  0.31997  0.84131  0.00323  1.0000
  H   H833      1.0  0.19464  0.82671  0.04051  1.0000
  H   H834      1.0  0.15751  0.84690  0.07706  1.0000
  H   H835      1.0  0.14151  0.87488  0.07496  1.0000
  H   H836      1.0  0.15732  0.89256  0.08941  1.0000
  H   H837      1.0  0.18936  0.88200  0.10597  1.0000
  H   H838      1.0  0.20516  0.85377  0.10959  1.0000
  H   H839      1.0  0.19803  0.79916  0.07502  1.0000
  H   H840      1.0  0.17328  0.78278  0.07728  1.0000
  H   H841      1.0  0.13782  0.78925  0.10148  1.0000
  H   H842      1.0  0.12739  0.81191  0.12402  1.0000
  H   H843      1.0  0.15191  0.82795  0.12281  1.0000
  C   C1046     1.0  0.25511  0.90040  0.40667  1.0000
  S   S150      1.0  0.32465  0.89697  0.10896  1.0000
  C   C1047     1.0  0.28331  0.94549  0.29901  1.0000
  H   H844      1.0  0.30741  0.85934  0.05623  1.0000
  H   H845      1.0  0.26161  0.92574  0.19784  1.0000
  H   H846      1.0  0.22107  0.96708  0.17036  1.0000
  C   C1048     1.0  0.30778  0.80266  0.16024  1.0000
  C   C1049     1.0  0.10480  0.88356  0.28509  1.0000
  C   C1050     1.0  0.31590  0.91671  0.21149  1.0000
  C   C1051     1.0  0.23516  0.90876  0.41037  1.0000
  C   C1052     1.0  0.27128  0.90825  0.40224  1.0000
  H   H847      1.0  0.09564  0.84231  0.22436  1.0000
  Fe  Fe74      1.0  0.30640  0.97734  0.19449  1.0000
  H   H848      1.0  0.12921  0.90558  0.27284  1.0000
  H   H849      1.0  0.11573  0.79101  0.05002  1.0000
  H   H850      1.0  0.28507  0.94794  0.25706  1.0000
  C   C1053     1.0  0.25083  0.95881  0.21790  1.0000
  C   C1054     1.0  0.08406  0.80071  0.05204  1.0000
  H   H851      1.0  0.20248  0.94504  0.18479  1.0000
  H   H852      1.0  0.32205  0.86546  0.39715  1.0000
  P   P32       1.0  0.30088  0.92806  0.02542  1.0000
  C   C1055     1.0  0.25741  0.93911  0.14430  1.0000
  H   H853      1.0  0.21546  0.94307  0.26852  1.0000
  C   C1056     1.0  0.33032  0.93849  0.12008  1.0000
  S   S151      1.0  0.30573  0.97558  0.23785  1.0000
  H   H854      1.0  0.06231  0.89809  0.34180  1.0000
  C   C1057     1.0  0.09708  0.88101  0.19670  1.0000
  C   C1058     1.0  0.31471  0.87457  0.47956  1.0000
  C   C1059     1.0  0.33018  0.93506  0.04658  1.0000
  C   C1060     1.0  0.28041  0.95955  0.01255  1.0000
  H   H855      1.0  0.21909  0.87702  0.26882  1.0000
  H   H856      1.0  0.19443  0.96879  0.25201  1.0000
  H   H857      1.0  0.22132  0.82853  0.99960  1.0000
  P   P33       1.0  0.25786  0.92917  0.25206  1.0000
  C   C1061     1.0  0.24953  0.89915  0.27762  1.0000
  C   C1062     1.0  0.09386  0.88808  0.33037  1.0000
  H   H858      1.0  0.01915  0.79941  0.13768  1.0000
  Fe  Fe75      1.0  0.28673  0.97553  0.15010  1.0000
  C   C1063     1.0  0.29328  0.91913  0.18200  1.0000
  S   S152      1.0  0.01245  0.81539  0.18164  1.0000
  C   C1064     1.0  0.29047  0.87531  0.34187  1.0000
  C   C1065     1.0  0.02256  0.78165  0.24168  1.0000
  C   C1066     1.0  0.16606  0.83354  0.30102  1.0000
  C   C1067     1.0  0.01546  0.78800  0.03281  1.0000
  H   H859      1.0  0.28232  0.87817  0.32567  1.0000
  H   H860      1.0  0.24125  0.90419  0.07398  1.0000
  C   C1068     1.0  0.27672  0.92339  0.20175  1.0000
  H   H861      1.0  0.27937  0.93078  0.39906  1.0000
  H   H862      1.0  0.27808  0.89750  0.35340  1.0000
  Fe  Fe76      1.0  0.04667  0.80794  0.17335  1.0000
  H   H863      1.0  0.24250  0.78996  0.14820  1.0000
  C   C1069     1.0  0.28811  0.88623  0.35769  1.0000
  C   C1070     1.0  0.32620  0.92617  0.03071  1.0000
  C   C1071     1.0  0.30377  0.88808  0.42952  1.0000
  H   H864      1.0  0.05276  0.80830  0.05054  1.0000
  H   H865      1.0  0.20984  0.90170  0.23569  1.0000
  C   C1072     1.0  0.00340  0.80039  0.14749  1.0000
  H   H866      1.0  0.27236  0.93775  0.13191  1.0000
  H   H867      1.0  0.15240  0.88145  0.20726  1.0000
  H   H868      1.0  0.08116  0.89048  0.26180  1.0000
  C   C1073     1.0  0.10365  0.74514  0.18807  1.0000
  C   C1074     1.0  0.00696  0.75937  0.24515  1.0000
  C   C1075     1.0  0.31625  0.91535  0.35048  1.0000
  H   H869      1.0  0.17257  0.90218  0.18371  1.0000
  C   C1076     1.0  0.02489  0.80119  0.02546  1.0000
  C   C1077     1.0  0.08874  0.79121  0.00417  1.0000
  C   C1078     1.0  0.06941  0.79807  0.01650  1.0000
  H   H870      1.0  0.02749  0.79250  0.23005  1.0000
  C   C1079     1.0  0.29913  0.88278  0.37820  1.0000
  C   C1080     1.0  0.31496  0.85738  0.36649  1.0000
  C   C1081     1.0  0.00901  0.75408  0.27200  1.0000
  C   C1082     1.0  0.27828  0.94244  0.27707  1.0000
  C   C1083     1.0  0.16207  0.91547  0.21472  1.0000
  C   C1084     1.0  0.25757  0.90271  0.07026  1.0000
  H   H871      1.0  0.04106  0.75695  0.14312  1.0000
  H   H872      1.0  0.26118  0.88059  0.09903  1.0000
  H   H873      1.0  0.31132  0.81231  0.03196  1.0000
  C   C1085     1.0  0.29936  0.92059  0.23153  1.0000
  C   C1086     1.0  0.28785  0.86147  0.02932  1.0000
  H   H874      1.0  0.08534  0.74436  0.06146  1.0000
  C   C1087     1.0  0.31274  0.86830  0.38228  1.0000
  C   C1088     1.0  0.21017  0.96600  0.24252  1.0000
  H   H875      1.0  0.16986  0.75140  0.25349  1.0000
  C   C1089     1.0  0.10914  0.88287  0.31001  1.0000
  C   C1090     1.0  0.16283  0.90292  0.20305  1.0000
  H   H876      1.0  0.08542  0.86339  0.18682  1.0000
  H   H877      1.0  0.25846  0.92474  0.04159  1.0000
  C   C1091     1.0  0.31344  0.91121  0.37847  1.0000
  P   P34       1.0  0.29703  0.89746  0.39728  1.0000
  C   C1092     1.0  0.26719  0.92450  0.40201  1.0000
  H   H878      1.0  0.11374  0.84745  0.25490  1.0000
  C   C1093     1.0  0.10301  0.79332  0.04023  1.0000
  H   H879      1.0  0.14952  0.92602  0.24893  1.0000
  C   C1094     1.0  0.01631  0.81399  0.03813  1.0000
  C   C1095     1.0  0.26878  0.88939  0.08438  1.0000
  C   C1096     1.0  0.30354  0.92669  0.99113  1.0000
  H   H880      1.0  0.28199  0.93772  0.07586  1.0000
  C   C1097     1.0  0.14991  0.91634  0.23988  1.0000
  C   C1098     1.0  0.08497  0.88969  0.28081  1.0000
  C   C1099     1.0  0.26737  0.91432  0.05201  1.0000
  C   C1100     1.0  0.24723  0.93282  0.40572  1.0000
  H   H881      1.0  0.11629  0.84880  0.30070  1.0000
  H   H882      1.0  0.25295  0.98579  0.05100  1.0000
  H   H883      1.0  0.30991  0.82227  0.24622  1.0000
  C   C1101     1.0  0.28980  0.88760  0.07996  1.0000
  H   H884      1.0  0.29854  0.87758  0.09144  1.0000
  H   H885      1.0  0.19085  0.84418  0.27552  1.0000
  C   C1102     1.0  0.15140  0.89124  0.21644  1.0000
  H   H886      1.0  0.28534  0.95892  0.99174  1.0000
  P   P35       1.0  0.12467  0.87668  0.25901  1.0000
  C   C1103     1.0  0.22857  0.95567  0.16595  1.0000
  C   C1104     1.0  0.13841  0.90468  0.25336  1.0000
  C   C1105     1.0  0.29963  0.89907  0.06150  1.0000
  C   C1106     1.0  0.28849  0.91262  0.04776  1.0000
  C   C1107     1.0  0.10701  0.88416  0.21417  1.0000
  C   C1108     1.0  0.26867  0.97369  0.01907  1.0000
  C   C1109     1.0  0.30145  0.84654  0.99444  1.0000
  H   H887      1.0  0.33090  0.92902  0.31421  1.0000
  C   C1110     1.0  0.29653  0.91473  0.98516  1.0000
  H   H888      1.0  0.32580  0.84636  0.36943  1.0000
  C   C1111     1.0  0.02640  0.74451  0.46401  1.0000
  H   H889      1.0  0.30759  0.80519  0.29152  1.0000
  C   C1112     1.0  0.32422  0.88318  0.43152  1.0000
  C   C1113     1.0  0.00056  0.75384  0.19460  1.0000
  H   H890      1.0  0.24539  0.98177  0.19189  1.0000
  C   C1114     1.0  0.32608  0.80470  0.03172  1.0000
  H   H891      1.0  0.26483  0.98380  0.00338  1.0000
  C   C1115     1.0  0.29430  0.87916  0.47777  1.0000
  C   C1116     1.0  0.32159  0.81192  0.25013  1.0000
  C   C1117     1.0  0.03692  0.74285  0.43837  1.0000
  C   C1118     1.0  0.32021  0.80222  0.27575  1.0000
  H   H892      1.0  0.30906  0.91025  0.33973  1.0000
  C   C1119     1.0  0.28563  0.85678  0.00716  1.0000
  H   H893      1.0  0.33106  0.91386  0.21535  1.0000
  H   H894      1.0  0.30615  0.85262  0.33350  1.0000
  C   C1120     1.0  0.32815  0.79051  0.05086  1.0000
  H   H895      1.0  0.07038  0.74756  0.98319  1.0000
  C   C1121     1.0  0.14497  0.77606  0.62249  1.0000
  H   H896      1.0  0.29804  0.84087  0.65249  1.0000
  H   H897      1.0  0.29924  0.75267  0.84910  1.0000
  C   C1122     1.0  0.10509  0.75046  0.70826  1.0000
  C   C1123     1.0  0.02582  0.84441  0.95538  1.0000
  C   C1124     1.0  0.06317  0.82828  0.96828  1.0000
  C   C1125     1.0  0.13294  0.75390  0.65557  1.0000
  H   H898      1.0  0.07357  0.74800  0.88959  1.0000
  H   H899      1.0  0.16086  0.75326  0.54679  1.0000
  H   H900      1.0  0.11363  0.77499  0.63774  1.0000
  C   C1126     1.0  0.10620  0.76751  0.73680  1.0000
  C   C1127     1.0  0.07868  0.75611  0.61807  1.0000
  C   C1128     1.0  0.05878  0.75880  0.63218  1.0000
  P   P36       1.0  0.11214  0.74474  0.67639  1.0000
  C   C1129     1.0  0.08662  0.74668  0.75428  1.0000
  H   H901      1.0  0.08178  0.75710  0.59662  1.0000
  C   C1130     1.0  0.11198  0.76312  0.71203  1.0000
  H   H902      1.0  0.32433  0.94111  0.55562  1.0000
  H   H903      1.0  0.32685  0.94226  0.92802  1.0000
  H   H904      1.0  0.01694  0.76282  0.97660  1.0000
  C   C1131     1.0  0.04593  0.79096  0.95599  1.0000
  H   H905      1.0  0.06070  0.75486  0.93911  1.0000
  C   C1132     1.0  0.30621  0.73819  0.88631  1.0000
  H   H906      1.0  0.29368  0.81278  0.78515  1.0000
  C   C1133     1.0  0.31465  0.93653  0.97035  1.0000
  C   C1134     1.0  0.31251  0.77447  0.78017  1.0000
  H   H907      1.0  0.11003  0.74951  0.62037  1.0000
  C   C1135     1.0  0.06352  0.75968  0.97567  1.0000
  C   C1136     1.0  0.02741  0.82932  0.97212  1.0000
  H   H908      1.0  0.17737  0.77391  0.61078  1.0000
  H   H909      1.0  0.04495  0.78268  0.92151  1.0000
  H   H910      1.0  0.03914  0.80298  0.94793  1.0000
  C   C1137     1.0  0.04923  0.77947  0.94088  1.0000
  C   C1138     1.0  0.14503  0.73777  0.57928  1.0000
  C   C1139     1.0  0.31831  0.93465  0.94398  1.0000
  C   C1140     1.0  0.33128  0.90767  0.71648  1.0000
  C   C1141     1.0  0.32150  0.91757  0.61812  1.0000
  C   C1142     1.0  0.32344  0.84654  0.66196  1.0000
  H   H911      1.0  0.19281  0.74525  0.56349  1.0000
  H   H912      1.0  0.32754  0.74018  0.68075  1.0000
  C   C1143     1.0  0.30653  0.85003  0.65020  1.0000
  C   C1144     1.0  0.15307  0.74665  0.65707  1.0000
  H   H913      1.0  0.06753  0.75217  0.69487  1.0000
  C   C1145     1.0  0.31192  0.73908  0.68870  1.0000
  H   H914      1.0  0.01136  0.85067  0.95041  1.0000
  H   H915      1.0  0.07776  0.82225  0.97300  1.0000
  C   C1146     1.0  0.17989  0.74004  0.57477  1.0000
  H   H916      1.0  0.32079  0.94544  0.97468  1.0000
  C   C1147     1.0  0.16896  0.75395  0.64109  1.0000
  H   H917      1.0  0.29097  0.74119  0.89742  1.0000
  C   C1148     1.0  0.09105  0.75057  0.65936  1.0000
  H   H918      1.0  0.32856  0.91214  0.73454  1.0000
  H   H919      1.0  0.06732  0.75014  0.84438  1.0000
  H   H920      1.0  0.32579  0.81555  0.89391  1.0000
  H   H921      1.0  0.03951  0.75951  0.67079  1.0000
  S   S153      1.0  0.30976  0.76147  0.71849  1.0000
  C   C1149     1.0  0.09472  0.75188  0.63160  1.0000
  C   C1150     1.0  0.07099  0.75339  0.67343  1.0000
  H   H922      1.0  0.12191  0.76958  0.69601  1.0000
  C   C1151     1.0  0.12901  0.76889  0.63869  1.0000
  H   H923      1.0  0.32794  0.83474  0.67347  1.0000
  C   C1152     1.0  0.31207  0.87692  0.63182  1.0000
  H   H924      1.0  0.08882  0.76285  0.77695  1.0000
  H   H925      1.0  0.31901  0.86949  0.49886  1.0000
  C   C1153     1.0  0.05809  0.76384  0.95069  1.0000
  H   H926      1.0  0.11172  0.77720  0.73964  1.0000
  S   S154      1.0  0.33002  0.87274  0.84750  1.0000
  H   H927      1.0  0.04634  0.76166  0.62174  1.0000
  H   H928      1.0  0.29587  0.79427  0.75617  1.0000
  C   C1154     1.0  0.27968  0.74657  0.71691  1.0000
  H   H929      1.0  0.28794  0.86782  0.62563  1.0000
  H   H930      1.0  0.00853  0.74985  0.94548  1.0000
  C   C1155     1.0  0.32905  0.87350  0.64369  1.0000
  H   H931      1.0  0.15047  0.73926  0.83322  1.0000
  H   H932      1.0  0.14184  0.78738  0.60893  1.0000
  C   C1156     1.0  0.32486  0.83318  0.91550  1.0000
  C   C1157     1.0  0.05152  0.78688  0.98108  1.0000
  H   H933      1.0  0.32649  0.84815  0.94042  1.0000
  C   C1158     1.0  0.09340  0.75937  0.75786  1.0000
  C   C1159     1.0  0.16495  0.76853  0.62356  1.0000
  H   H934      1.0  0.31357  0.76677  0.76693  1.0000
  C   C1160     1.0  0.30086  0.86520  0.63511  1.0000
  H   H935      1.0  0.30755  0.88852  0.61978  1.0000
  H   H936      1.0  0.30907  0.80334  0.82544  1.0000
  H   H937      1.0  0.18446  0.74811  0.64187  1.0000
  H   H938      1.0  0.29891  0.84268  0.97803  1.0000
  H   H939      1.0  0.32008  0.84302  0.89988  1.0000
  C   C1161     1.0  0.05495  0.75756  0.65980  1.0000
  H   H940      1.0  0.31457  0.92088  0.91800  1.0000
  C   C1162     1.0  0.32173  0.76909  0.80253  1.0000
  C   C1163     1.0  0.31680  0.93056  0.59763  1.0000
  C   C1164     1.0  0.06153  0.84337  0.95154  1.0000
  H   H941      1.0  0.32619  0.87589  0.69640  1.0000
  H   H942      1.0  0.17697  0.74202  0.79223  1.0000
  C   C1165     1.0  0.08492  0.74213  0.87536  1.0000
  H   H943      1.0  0.28275  0.87756  0.49576  1.0000
  C   C1166     1.0  0.33069  0.74089  0.84433  1.0000
  C   C1167     1.0  0.32012  0.77953  0.81912  1.0000
  C   C1168     1.0  0.32812  0.81769  0.91213  1.0000
  C   C1169     1.0  0.16180  0.74455  0.56527  1.0000
  H   H944      1.0  0.07474  0.84883  0.94360  1.0000
  C   C1170     1.0  0.09265  0.74210  0.72970  1.0000
  S   S155      1.0  0.12260  0.74420  0.56631  1.0000
  H   H945      1.0  0.00169  0.73902  0.49571  1.0000
  C   C1171     1.0  0.30234  0.79014  0.77403  1.0000
  C   C1172     1.0  0.31130  0.92271  0.93826  1.0000
  H   H946      1.0  0.04162  0.86315  0.93220  1.0000
  H   H947      1.0  0.31956  0.87767  0.97703  1.0000
  H   H948      1.0  0.30486  0.94041  0.60207  1.0000
  C   C1173     1.0  0.30105  0.80052  0.79039  1.0000
  C   C1174     1.0  0.08138  0.74329  0.84996  1.0000
  H   H949      1.0  0.29547  0.90329  0.95436  1.0000
  C   C1175     1.0  0.30973  0.79517  0.81310  1.0000
  C   C1176     1.0  0.33012  0.88718  0.69472  1.0000
  H   H950      1.0  0.31996  0.88634  0.73704  1.0000
  C   C1177     1.0  0.04287  0.85144  0.94511  1.0000
  C   C1178     1.0  0.31098  0.74471  0.85893  1.0000
  H   H951      1.0  0.07666  0.74032  0.77046  1.0000
  S   S156      1.0  0.32683  0.88033  0.91997  1.0000
  H   H952      1.0  0.31286  0.91747  0.63824  1.0000
  C   C1179     1.0  0.29997  0.74830  0.70676  1.0000
  H   H953      1.0  0.01743  0.74013  0.71990  1.0000
  H   H954      1.0  0.32738  0.77574  0.83624  1.0000
  H   H955      1.0  0.27029  0.75355  0.73096  1.0000
  C   C1180     1.0  0.30040  0.91280  0.95881  1.0000
  C   C1181     1.0  0.00258  0.75904  0.98116  1.0000
  H   H956      1.0  0.01407  0.82401  0.97986  1.0000
  C   C1182     1.0  0.32768  0.93095  0.57148  1.0000
  C   C1183     1.0  0.33011  0.73733  0.79072  1.0000
  C   C1184     1.0  0.32647  0.89309  0.71789  1.0000
  C   C1185     1.0  0.04609  0.82118  0.97879  1.0000
  C   C1186     1.0  0.32842  0.83605  0.93854  1.0000
  H   H957      1.0  0.33160  0.97802  0.75927  1.0000
  H   H958      1.0  0.33234  0.95163  0.78894  1.0000
  S   S157      1.0  0.53858  0.07458  0.24287  1.0000
  Fe  Fe77      1.0  0.50795  0.12706  0.19276  1.0000
  S   S158      1.0  0.51216  0.11970  0.23514  1.0000
  S   S159      1.0  0.47716  0.13730  0.18302  1.0000
  Fe  Fe78      1.0  0.55321  0.12204  0.17031  1.0000
  S   S160      1.0  0.56110  0.11416  0.21101  1.0000
  S   S161      1.0  0.57849  0.12212  0.13441  1.0000
  Fe  Fe79      1.0  0.53632  0.10015  0.22059  1.0000
  Fe  Fe80      1.0  0.53628  0.13439  0.22123  1.0000
  S   S162      1.0  0.53726  0.15587  0.23531  1.0000
  S   S163      1.0  0.53022  0.10656  0.17905  1.0000
  S   S164      1.0  0.53038  0.14312  0.17961  1.0000
  Fe  Fe81      1.0  0.39377  0.09579  0.18267  1.0000
  S   S165      1.0  0.38271  0.08818  0.15249  1.0000
  S   S166      1.0  0.42633  0.08657  0.18673  1.0000
  Fe  Fe82      1.0  0.35186  0.11291  0.20496  1.0000
  H   H959      1.0  0.43022  0.99084  0.12597  1.0000
  C   C1187     1.0  0.47542  0.00041  0.44882  1.0000
  Fe  Fe83      1.0  0.35677  0.08235  0.18580  1.0000
  H   H960      1.0  0.49831  0.15042  0.27927  1.0000
  Fe  Fe84      1.0  0.36449  0.11295  0.14578  1.0000
  S   S167      1.0  0.36254  0.12673  0.10366  1.0000
  S   S168      1.0  0.36907  0.08830  0.21684  1.0000
  S   S169      1.0  0.37768  0.12107  0.17339  1.0000
  Fe  Fe85      1.0  0.54635  0.21436  0.34685  1.0000
  S   S170      1.0  0.56457  0.19202  0.36708  1.0000
  H   H961      1.0  0.52222  0.17077  0.46798  1.0000
  Fe  Fe86      1.0  0.50663  0.20394  0.37428  1.0000
  S   S171      1.0  0.52147  0.18101  0.39713  1.0000
  S   S172      1.0  0.47265  0.21066  0.38042  1.0000
  Fe  Fe87      1.0  0.54142  0.19526  0.40428  1.0000
  S   S173      1.0  0.55155  0.18952  0.44396  1.0000
  Fe  Fe88      1.0  0.54327  0.17966  0.35826  1.0000
  S   S174      1.0  0.55331  0.15560  0.34777  1.0000
  S   S175      1.0  0.52464  0.21848  0.38484  1.0000
  S   S176      1.0  0.52692  0.20178  0.33456  1.0000
  C   C1188     1.0  0.49912  0.19989  0.98371  1.0000
  C   C1189     1.0  0.49752  0.18990  0.45918  1.0000
  Fe  Fe89      1.0  0.39726  0.18167  0.32747  1.0000
  S   S177      1.0  0.38030  0.16533  0.36029  1.0000
  S   S178      1.0  0.43127  0.17866  0.31941  1.0000
  Fe  Fe90      1.0  0.36555  0.16289  0.32867  1.0000
  S   S179      1.0  0.36318  0.13798  0.32863  1.0000
  Fe  Fe91      1.0  0.35610  0.18683  0.36423  1.0000
  H   H962      1.0  0.37723  0.01730  0.15302  1.0000
  S   S180      1.0  0.38446  0.17759  0.29531  1.0000
  C   C1190     1.0  0.44804  0.13718  0.09779  1.0000
  C   C1191     1.0  0.59410  0.21778  0.42045  1.0000
  H   H963      1.0  0.37080  0.16430  0.16889  1.0000
  S   S181      1.0  0.39846  0.23247  0.03361  1.0000
  H   H964      1.0  0.45337  0.20200  0.01446  1.0000
  H   H965      1.0  0.50722  0.19850  0.44967  1.0000
  C   C1192     1.0  0.57330  0.05396  0.18248  1.0000
  S   S182      1.0  0.55430  0.21525  0.07021  1.0000
  Fe  Fe92      1.0  0.57425  0.23323  0.05073  1.0000
  H   H966      1.0  0.35471  0.02398  0.25182  1.0000
  S   S183      1.0  0.38153  0.19576  0.07724  1.0000
  C   C1193     1.0  0.47109  0.99341  0.47606  1.0000
  C   C1194     1.0  0.57081  0.23356  0.39193  1.0000
  H   H967      1.0  0.34607  0.99821  0.25364  1.0000
  S   S184      1.0  0.34872  0.21699  0.27016  1.0000
  Fe  Fe93      1.0  0.36023  0.19836  0.30410  1.0000
  C   C1195     1.0  0.38923  0.99323  0.14740  1.0000
  S   S185      1.0  0.34707  0.05850  0.19807  1.0000
  H   H968      1.0  0.53259  0.22708  0.12621  1.0000
  H   H969      1.0  0.41766  0.22033  0.08162  1.0000
  H   H970      1.0  0.53135  0.15722  0.05269  1.0000
  C   C1196     1.0  0.51771  0.19058  0.01965  1.0000
  H   H971      1.0  0.43844  0.23240  0.03515  1.0000
  H   H972      1.0  0.56081  0.23428  0.37869  1.0000
  C   C1197     1.0  0.37001  0.99290  0.22068  1.0000
  S   S186      1.0  0.59080  0.22093  0.01733  1.0000
  C   C1198     1.0  0.46118  0.20151  0.36381  1.0000
  C   C1199     1.0  0.47293  0.19183  0.34642  1.0000
  C   C1200     1.0  0.46357  0.18490  0.33291  1.0000
  C   C1201     1.0  0.44242  0.18734  0.33708  1.0000
  C   C1202     1.0  0.43065  0.19675  0.35488  1.0000
  C   C1203     1.0  0.44002  0.20400  0.36794  1.0000
  H   H973      1.0  0.48923  0.18969  0.34331  1.0000
  H   H974      1.0  0.47275  0.17756  0.31926  1.0000
  H   H975      1.0  0.41433  0.19858  0.35840  1.0000
  H   H976      1.0  0.43080  0.21142  0.38142  1.0000
  S   S187      1.0  0.40877  0.20549  0.99811  1.0000
  C   C1204     1.0  0.36786  0.14593  0.09599  1.0000
  C   C1205     1.0  0.36591  0.15382  0.11637  1.0000
  C   C1206     1.0  0.37016  0.16910  0.11010  1.0000
  C   C1207     1.0  0.37646  0.17660  0.08354  1.0000
  C   C1208     1.0  0.37862  0.16874  0.06303  1.0000
  C   C1209     1.0  0.37411  0.15345  0.06926  1.0000
  H   H977      1.0  0.36073  0.14829  0.13693  1.0000
  H   H978      1.0  0.36835  0.17524  0.12584  1.0000
  H   H979      1.0  0.38383  0.17438  0.04248  1.0000
  H   H980      1.0  0.37575  0.14735  0.05343  1.0000
  H   H981      1.0  0.58776  0.12025  0.02911  1.0000
  C   C1210     1.0  0.35105  0.11831  0.27461  1.0000
  C   C1211     1.0  0.35747  0.12033  0.29656  1.0000
  C   C1212     1.0  0.35312  0.13527  0.30301  1.0000
  C   C1213     1.0  0.33452  0.14584  0.26691  1.0000
  H   H982      1.0  0.60484  0.23628  0.24708  1.0000
  C   C1214     1.0  0.38122  0.98764  0.10892  1.0000
  H   H983      1.0  0.36656  0.11048  0.30784  1.0000
  C   C1215     1.0  0.56241  0.06530  0.19749  1.0000
  H   H984      1.0  0.56310  0.07766  0.18947  1.0000
  H   H985      1.0  0.58242  0.05766  0.16299  1.0000
  C   C1216     1.0  0.54262  0.15496  0.26638  1.0000
  C   C1217     1.0  0.54472  0.16897  0.27170  1.0000
  C   C1218     1.0  0.54796  0.16918  0.29666  1.0000
  C   C1219     1.0  0.54948  0.15527  0.31634  1.0000
  C   C1220     1.0  0.54801  0.14105  0.31080  1.0000
  C   C1221     1.0  0.54440  0.14091  0.28581  1.0000
  H   H986      1.0  0.54370  0.17974  0.25650  1.0000
  H   H987      1.0  0.54952  0.18005  0.30061  1.0000
  H   H988      1.0  0.54919  0.13027  0.32605  1.0000
  H   H989      1.0  0.54263  0.13009  0.28176  1.0000
  C   C1222     1.0  0.57853  0.13859  0.10754  1.0000
  C   C1223     1.0  0.56674  0.15358  0.10975  1.0000
  C   C1224     1.0  0.56725  0.16625  0.08718  1.0000
  C   C1225     1.0  0.57943  0.16379  0.06256  1.0000
  C   C1226     1.0  0.59119  0.14886  0.06067  1.0000
  C   C1227     1.0  0.59086  0.13638  0.08304  1.0000
  H   H990      1.0  0.55734  0.15540  0.12873  1.0000
  H   H991      1.0  0.55811  0.17778  0.08874  1.0000
  C   C1228     1.0  0.37811  0.16690  0.18257  1.0000
  H   H992      1.0  0.60005  0.12488  0.08127  1.0000
  C   C1229     1.0  0.46363  0.12301  0.18318  1.0000
  C   C1230     1.0  0.44491  0.12794  0.17532  1.0000
  C   C1231     1.0  0.43356  0.11680  0.17588  1.0000
  C   C1232     1.0  0.44089  0.10066  0.18428  1.0000
  C   C1233     1.0  0.45989  0.09568  0.19153  1.0000
  C   C1234     1.0  0.47129  0.10685  0.19091  1.0000
  H   H993      1.0  0.43918  0.14036  0.16875  1.0000
  H   H994      1.0  0.41916  0.12069  0.16978  1.0000
  H   H995      1.0  0.46568  0.08318  0.19794  1.0000
  H   H996      1.0  0.48586  0.10294  0.19669  1.0000
  C   C1235     1.0  0.39658  0.15735  0.18698  1.0000
  H   H997      1.0  0.49507  0.16491  0.05090  1.0000
  H   H998      1.0  0.58769  0.02099  0.08640  1.0000
  H   H999      1.0  0.35505  0.10690  0.26917  1.0000
  C   C1236     1.0  0.53722  0.21930  0.45571  1.0000
  C   C1237     1.0  0.54632  0.20352  0.46418  1.0000
  H   H1000     1.0  0.44832  0.22132  0.27224  1.0000
  C   C1238     1.0  0.55106  0.06060  0.22300  1.0000
  H   H1001     1.0  0.61358  0.98878  0.00987  1.0000
  H   H1002     1.0  0.53293  0.22316  0.43640  1.0000
  H   H1003     1.0  0.59873  0.04170  0.29192  1.0000
  C   C1239     1.0  0.41972  0.17019  0.41055  1.0000
  C   C1240     1.0  0.39831  0.17286  0.21740  1.0000
  C   C1241     1.0  0.36943  0.17948  0.19567  1.0000
  Fe  Fe94      1.0  0.41736  0.22885  0.99405  1.0000
  C   C1242     1.0  0.43473  0.22690  0.13222  1.0000
  H   H1004     1.0  0.42109  0.15288  0.20757  1.0000
  H   H1005     1.0  0.60186  0.12377  0.18793  1.0000
  C   C1243     1.0  0.55561  0.99553  0.09805  1.0000
  C   C1244     1.0  0.48614  0.14970  0.27043  1.0000
  C   C1245     1.0  0.48265  0.16010  0.24648  1.0000
  C   C1246     1.0  0.46731  0.15891  0.23472  1.0000
  C   C1247     1.0  0.45531  0.14748  0.24700  1.0000
  C   C1248     1.0  0.45854  0.13712  0.27123  1.0000
  C   C1249     1.0  0.47436  0.13809  0.28256  1.0000
  P   P37       1.0  0.44371  0.12186  0.28684  1.0000
  C   C1250     1.0  0.43050  0.12367  0.32027  1.0000
  C   C1251     1.0  0.42435  0.12331  0.26849  1.0000
  C   C1252     1.0  0.40792  0.13603  0.26906  1.0000
  C   C1253     1.0  0.39272  0.13744  0.25513  1.0000
  C   C1254     1.0  0.39371  0.12616  0.24060  1.0000
  C   C1255     1.0  0.40960  0.11317  0.24070  1.0000
  C   C1256     1.0  0.42494  0.11173  0.25447  1.0000
  C   C1257     1.0  0.41595  0.11428  0.33375  1.0000
  C   C1258     1.0  0.40497  0.11586  0.35926  1.0000
  C   C1259     1.0  0.40849  0.12677  0.37154  1.0000
  C   C1260     1.0  0.42285  0.13623  0.35817  1.0000
  C   C1261     1.0  0.43361  0.13487  0.33252  1.0000
  C   C1262     1.0  0.46124  0.10332  0.28649  1.0000
  C   C1263     1.0  0.47311  0.10032  0.26205  1.0000
  H   H1006     1.0  0.47690  0.12081  0.09438  1.0000
  H   H1007     1.0  0.54741  0.17693  0.01060  1.0000
  C   C1264     1.0  0.40680  0.16041  0.20415  1.0000
  C   C1265     1.0  0.46358  0.09200  0.31017  1.0000
  H   H1008     1.0  0.49217  0.16878  0.23679  1.0000
  H   H1009     1.0  0.46497  0.16654  0.21576  1.0000
  H   H1010     1.0  0.44399  0.14648  0.23709  1.0000
  H   H1011     1.0  0.47760  0.12984  0.30074  1.0000
  H   H1012     1.0  0.40676  0.14482  0.28046  1.0000
  H   H1013     1.0  0.38011  0.14732  0.25555  1.0000
  H   H1014     1.0  0.38196  0.12735  0.22965  1.0000
  H   H1015     1.0  0.41001  0.10417  0.23011  1.0000
  H   H1016     1.0  0.43694  0.10147  0.25411  1.0000
  H   H1017     1.0  0.41264  0.10609  0.32419  1.0000
  H   H1018     1.0  0.39316  0.10907  0.36901  1.0000
  H   H1019     1.0  0.42511  0.14514  0.36714  1.0000
  H   H1020     1.0  0.44377  0.14297  0.32226  1.0000
  H   H1021     1.0  0.47172  0.10907  0.24366  1.0000
  C   C1266     1.0  0.46640  0.99451  0.15578  1.0000
  H   H1022     1.0  0.45487  0.09416  0.32933  1.0000
  C   C1267     1.0  0.59396  0.13895  0.99467  1.0000
  H   H1023     1.0  0.45174  0.16393  0.39570  1.0000
  H   H1024     1.0  0.46148  0.17336  0.42960  1.0000
  H   H1025     1.0  0.59984  0.00839  0.22944  1.0000
  S   S188      1.0  0.33994  0.18329  0.33485  1.0000
  H   H1026     1.0  0.52664  0.00168  0.33800  1.0000
  H   H1027     1.0  0.38897  0.17869  0.42849  1.0000
  H   H1028     1.0  0.39636  0.22855  0.33446  1.0000
  H   H1029     1.0  0.33860  0.07919  0.27340  1.0000
  C   C1268     1.0  0.58770  0.19394  0.25155  1.0000
  H   H1030     1.0  0.47944  0.06910  0.32747  1.0000
  H   H1031     1.0  0.33621  0.16141  0.20230  1.0000
  P   P38       1.0  0.45855  0.15504  0.08844  1.0000
  C   C1269     1.0  0.44394  0.16757  0.11124  1.0000
  C   C1270     1.0  0.48520  0.15046  0.08998  1.0000
  C   C1271     1.0  0.49188  0.13992  0.11229  1.0000
  C   C1272     1.0  0.51247  0.13566  0.11306  1.0000
  C   C1273     1.0  0.52666  0.14177  0.09147  1.0000
  C   C1274     1.0  0.42648  0.98931  0.16848  1.0000
  C   C1275     1.0  0.49960  0.15677  0.06845  1.0000
  C   C1276     1.0  0.42530  0.17701  0.10651  1.0000
  C   C1277     1.0  0.41316  0.18585  0.12495  1.0000
  C   C1278     1.0  0.41945  0.18535  0.14826  1.0000
  C   C1279     1.0  0.43794  0.17601  0.15315  1.0000
  C   C1280     1.0  0.45023  0.16729  0.13460  1.0000
  C   C1281     1.0  0.45533  0.18153  0.04680  1.0000
  H   H1032     1.0  0.48117  0.13470  0.12890  1.0000
  H   H1033     1.0  0.51741  0.12749  0.13039  1.0000
  H   H1034     1.0  0.49573  0.08378  0.24206  1.0000
  C   C1282     1.0  0.61946  0.21152  0.46858  1.0000
  H   H1035     1.0  0.41993  0.17737  0.08876  1.0000
  H   H1036     1.0  0.39882  0.19304  0.12118  1.0000
  H   H1037     1.0  0.40987  0.19208  0.16259  1.0000
  H   H1038     1.0  0.44254  0.17517  0.17166  1.0000
  H   H1039     1.0  0.46431  0.16002  0.13902  1.0000
  H   H1040     1.0  0.45595  0.18830  0.06079  1.0000
  H   H1041     1.0  0.64747  0.21597  0.10183  1.0000
  H   H1042     1.0  0.33983  0.06988  0.14323  1.0000
  H   H1043     1.0  0.50799  0.02301  0.45038  1.0000
  H   H1044     1.0  0.40267  0.01746  0.18465  1.0000
  H   H1045     1.0  0.47519  0.23171  0.32678  1.0000
  H   H1046     1.0  0.46315  0.98973  0.24978  1.0000
  C   C1283     1.0  0.43209  0.21896  0.11398  1.0000
  H   H1047     1.0  0.46834  0.99763  0.43495  1.0000
  C   C1284     1.0  0.45592  0.99247  0.18227  1.0000
  P   P39       1.0  0.45269  0.21769  0.15399  1.0000
  C   C1285     1.0  0.44088  0.20974  0.18783  1.0000
  C   C1286     1.0  0.47185  0.20290  0.13917  1.0000
  C   C1287     1.0  0.47839  0.18784  0.15434  1.0000
  C   C1288     1.0  0.49323  0.17670  0.14234  1.0000
  C   C1289     1.0  0.50214  0.18065  0.11535  1.0000
  C   C1290     1.0  0.49558  0.19551  0.10004  1.0000
  C   C1291     1.0  0.48029  0.20641  0.11179  1.0000
  C   C1292     1.0  0.45267  0.20391  0.20772  1.0000
  C   C1293     1.0  0.44356  0.19908  0.23449  1.0000
  C   C1294     1.0  0.42261  0.20042  0.24169  1.0000
  C   C1295     1.0  0.41076  0.20654  0.22213  1.0000
  C   C1296     1.0  0.41981  0.21115  0.19526  1.0000
  C   C1297     1.0  0.48924  0.22959  0.23078  1.0000
  C   C1298     1.0  0.37963  0.02197  0.21860  1.0000
  C   C1299     1.0  0.59598  0.99796  0.07648  1.0000
  C   C1300     1.0  0.42171  0.22367  0.30278  1.0000
  H   H1048     1.0  0.36248  0.00680  0.08644  1.0000
  H   H1049     1.0  0.65433  0.07103  0.21291  1.0000
  H   H1050     1.0  0.48650  0.23304  0.11952  1.0000
  C   C1301     1.0  0.56047  0.13362  0.01582  1.0000
  H   H1051     1.0  0.52598  0.99404  0.38691  1.0000
  H   H1052     1.0  0.44027  0.20709  0.11312  1.0000
  C   C1302     1.0  0.34721  0.20453  0.46687  1.0000
  H   H1053     1.0  0.47196  0.18444  0.17524  1.0000
  H   H1054     1.0  0.49787  0.16499  0.15405  1.0000
  H   H1055     1.0  0.51413  0.17221  0.10636  1.0000
  H   H1056     1.0  0.50241  0.19877  0.07911  1.0000
  H   H1057     1.0  0.47518  0.21773  0.09952  1.0000
  H   H1058     1.0  0.46886  0.20339  0.20262  1.0000
  H   H1059     1.0  0.45265  0.19452  0.24983  1.0000
  H   H1060     1.0  0.41556  0.19698  0.26254  1.0000
  H   H1061     1.0  0.39446  0.20803  0.22795  1.0000
  H   H1062     1.0  0.41652  0.21392  0.29958  1.0000
  C   C1303     1.0  0.35424  0.22326  0.17814  1.0000
  C   C1304     1.0  0.65867  0.06095  0.22842  1.0000
  C   C1305     1.0  0.41945  0.22655  0.09573  1.0000
  C   C1306     1.0  0.63326  0.21061  0.14357  1.0000
  H   H1063     1.0  0.49172  0.22298  0.47524  1.0000
  C   C1307     1.0  0.59089  0.02073  0.28772  1.0000
  C   C1308     1.0  0.59907  0.03452  0.27809  1.0000
  P   P40       1.0  0.61887  0.05649  0.23873  1.0000
  C   C1309     1.0  0.60427  0.07203  0.25573  1.0000
  C   C1310     1.0  0.58318  0.07359  0.26328  1.0000
  C   C1311     1.0  0.57156  0.08612  0.27494  1.0000
  C   C1312     1.0  0.58091  0.09719  0.27925  1.0000
  C   C1313     1.0  0.60192  0.09573  0.27188  1.0000
  C   C1314     1.0  0.61359  0.08323  0.26009  1.0000
  C   C1315     1.0  0.61949  0.06363  0.20328  1.0000
  H   H1064     1.0  0.46527  0.99539  0.11506  1.0000
  C   C1316     1.0  0.63466  0.06137  0.15737  1.0000
  C   C1317     1.0  0.62038  0.07437  0.14816  1.0000
  C   C1318     1.0  0.60575  0.08201  0.16639  1.0000
  C   C1319     1.0  0.60525  0.07670  0.19382  1.0000
  H   H1065     1.0  0.58412  0.01746  0.30868  1.0000
  H   H1066     1.0  0.53362  0.23106  0.29275  1.0000
  C   C1320     1.0  0.36376  0.01658  0.23818  1.0000
  H   H1067     1.0  0.57565  0.06532  0.25956  1.0000
  H   H1068     1.0  0.55522  0.08739  0.28010  1.0000
  H   H1069     1.0  0.57186  0.10697  0.28810  1.0000
  H   H1070     1.0  0.60911  0.10440  0.27510  1.0000
  H   H1071     1.0  0.60203  0.20622  0.42885  1.0000
  H   H1072     1.0  0.44059  0.21141  0.42398  1.0000
  S   S189      1.0  0.54627  0.21811  0.01057  1.0000
  H   H1073     1.0  0.62039  0.07843  0.12695  1.0000
  H   H1074     1.0  0.59438  0.09183  0.15931  1.0000
  H   H1075     1.0  0.59339  0.08263  0.20743  1.0000
  Fe  Fe95      1.0  0.53332  0.23096  0.04388  1.0000
  C   C1321     1.0  0.63758  0.23429  0.42209  1.0000
  C   C1322     1.0  0.41282  0.23479  0.47907  1.0000
  C   C1323     1.0  0.56949  0.20375  0.25996  1.0000
  C   C1324     1.0  0.65049  0.03879  0.26434  1.0000
  H   H1076     1.0  0.50285  0.21646  0.19975  1.0000
  H   H1077     1.0  0.48791  0.20496  0.02304  1.0000
  H   H1078     1.0  0.53993  0.99469  0.10634  1.0000
  C   C1325     1.0  0.55013  0.04453  0.23309  1.0000
  H   H1079     1.0  0.64524  0.04580  0.19168  1.0000
  H   H1080     1.0  0.53590  0.14932  0.99901  1.0000
  C   C1326     1.0  0.61712  0.20482  0.16215  1.0000
  C   C1327     1.0  0.45586  0.16514  0.05484  1.0000
  Fe  Fe96      1.0  0.56915  0.20421  0.03507  1.0000
  C   C1328     1.0  0.60747  0.03905  0.25079  1.0000
  H   H1081     1.0  0.48177  0.99663  0.15095  1.0000
  H   H1082     1.0  0.51902  0.19027  0.03975  1.0000
  C   C1329     1.0  0.43722  0.99118  0.14191  1.0000
  H   H1083     1.0  0.55070  0.12675  0.03141  1.0000
  C   C1330     1.0  0.44012  0.16871  0.41100  1.0000
  H   H1084     1.0  0.65722  0.22253  0.19653  1.0000
  C   C1331     1.0  0.58136  0.12993  0.01449  1.0000
  C   C1332     1.0  0.55215  0.14641  0.99745  1.0000
  C   C1333     1.0  0.44558  0.17413  0.43031  1.0000
  C   C1334     1.0  0.56234  0.00916  0.09760  1.0000
  C   C1335     1.0  0.48558  0.22936  0.25826  1.0000
  S   S190      1.0  0.58019  0.17863  0.03321  1.0000
  H   H1085     1.0  0.54135  0.04082  0.25280  1.0000
  C   C1336     1.0  0.50029  0.19893  0.01013  1.0000
  C   C1337     1.0  0.33565  0.18778  0.02483  1.0000
  C   C1338     1.0  0.48873  0.01106  0.43955  1.0000
  H   H1086     1.0  0.37043  0.22705  0.10129  1.0000
  C   C1339     1.0  0.38623  0.99813  0.20119  1.0000
  C   C1340     1.0  0.45436  0.16449  0.00973  1.0000
  H   H1087     1.0  0.40600  0.17486  0.23135  1.0000
  H   H1088     1.0  0.64438  0.21443  0.15031  1.0000
  H   H1089     1.0  0.54861  0.21125  0.20532  1.0000
  H   H1090     1.0  0.46197  0.09687  0.11040  1.0000
  H   H1091     1.0  0.60074  0.14699  0.04178  1.0000
  C   C1341     1.0  0.59130  0.01123  0.27025  1.0000
  H   H1092     1.0  0.42801  0.98858  0.20925  1.0000
  C   C1342     1.0  0.52024  0.15239  0.06924  1.0000
  C   C1343     1.0  0.46063  0.12214  0.09941  1.0000
  C   C1344     1.0  0.53413  0.23020  0.47208  1.0000
  H   H1093     1.0  0.51695  0.18260  0.17114  1.0000
  H   H1094     1.0  0.57718  0.23441  0.22707  1.0000
  H   H1095     1.0  0.40297  0.14760  0.17694  1.0000
  H   H1096     1.0  0.57949  0.16397  0.22416  1.0000
  H   H1097     1.0  0.63992  0.03146  0.27686  1.0000
  H   H1098     1.0  0.54932  0.17467  0.18559  1.0000
  C   C1345     1.0  0.50283  0.20182  0.26598  1.0000
  H   H1099     1.0  0.50868  0.20877  0.14060  1.0000
  H   H1100     1.0  0.58477  0.00064  0.27752  1.0000
  C   C1346     1.0  0.45538  0.15665  0.03616  1.0000
  C   C1347     1.0  0.45411  0.18932  0.02049  1.0000
  H   H1101     1.0  0.41677  0.14958  0.10122  1.0000
  C   C1348     1.0  0.43058  0.18097  0.44949  1.0000
  P   P41       1.0  0.61491  0.23052  0.44616  1.0000
  S   S191      1.0  0.36160  0.22328  0.01547  1.0000
  H   H1102     1.0  0.41554  0.16645  0.39506  1.0000
  C   C1349     1.0  0.49243  0.21531  0.27576  1.0000
  H   H1103     1.0  0.55975  0.02086  0.22562  1.0000
  C   C1350     1.0  0.33983  0.13116  0.25948  1.0000
  P   P42       1.0  0.34645  0.19276  0.18816  1.0000
  H   H1104     1.0  0.60586  0.18224  0.22043  1.0000
  H   H1105     1.0  0.59830  0.18894  0.26490  1.0000
  C   C1351     1.0  0.40475  0.17722  0.42927  1.0000
  C   C1352     1.0  0.45384  0.18080  0.00190  1.0000
  H   H1106     1.0  0.39956  0.12832  0.39094  1.0000
  C   C1353     1.0  0.60785  0.02939  0.23343  1.0000
  H   H1107     1.0  0.50003  0.06390  0.28375  1.0000
  C   C1354     1.0  0.45710  0.99379  0.13562  1.0000
  C   C1355     1.0  0.59990  0.01552  0.24319  1.0000
  C   C1356     1.0  0.52742  0.19070  0.16451  1.0000
  C   C1357     1.0  0.52273  0.20541  0.14763  1.0000
  C   C1358     1.0  0.42695  0.13824  0.10315  1.0000
  H   H1108     1.0  0.45586  0.14399  0.04193  1.0000
  H   H1109     1.0  0.45388  0.15793  0.99537  1.0000
  C   C1359     1.0  0.41016  0.18284  0.44837  1.0000
  C   C1360     1.0  0.54588  0.18621  0.17282  1.0000
  H   H1110     1.0  0.47056  0.20646  0.45166  1.0000
  C   C1361     1.0  0.37086  0.21427  0.42734  1.0000
  H   H1111     1.0  0.42479  0.09903  0.12129  1.0000
  H   H1112     1.0  0.61380  0.03258  0.21222  1.0000
  C   C1362     1.0  0.36577  0.22606  0.12277  1.0000
  H   H1113     1.0  0.54117  0.21712  0.24993  1.0000
  C   C1363     1.0  0.43603  0.98991  0.18864  1.0000
  H   H1114     1.0  0.34985  0.18552  0.03141  1.0000
  C   C1364     1.0  0.45384  0.23406  0.02798  1.0000
  C   C1365     1.0  0.35888  0.00209  0.23913  1.0000
  C   C1366     1.0  0.36278  0.21303  0.45474  1.0000
  H   H1115     1.0  0.58759  0.13522  0.22837  1.0000
  H   H1116     1.0  0.34482  0.20507  0.98996  1.0000
  C   C1367     1.0  0.53632  0.21578  0.13953  1.0000
  C   C1368     1.0  0.49772  0.01471  0.45752  1.0000
  C   C1369     1.0  0.41867  0.12452  0.11126  1.0000
  H   H1117     1.0  0.40243  0.12539  0.11562  1.0000
  Fe  Fe97      1.0  0.56654  0.23589  0.99535  1.0000
  C   C1370     1.0  0.39081  0.01282  0.20015  1.0000
  C   C1371     1.0  0.55550  0.20985  0.24316  1.0000
  C   C1372     1.0  0.55969  0.19650  0.16475  1.0000
  C   C1373     1.0  0.34781  0.19863  0.42409  1.0000
  H   H1118     1.0  0.33786  0.15939  0.29352  1.0000
  P   P43       1.0  0.43713  0.18848  0.47422  1.0000
  C   C1374     1.0  0.37044  0.00310  0.10292  1.0000
  C   C1375     1.0  0.59109  0.14291  0.20889  1.0000
  C   C1376     1.0  0.58664  0.15933  0.20641  1.0000
  C   C1377     1.0  0.55979  0.20637  0.21781  1.0000
  H   H1119     1.0  0.61136  0.99940  0.06752  1.0000
  C   C1378     1.0  0.55474  0.21144  0.14820  1.0000
  H   H1120     1.0  0.49198  0.01655  0.41848  1.0000
  C   C1379     1.0  0.43991  0.22780  0.28750  1.0000
  C   C1380     1.0  0.45224  0.10845  0.10804  1.0000
  C   C1381     1.0  0.36464  0.23068  0.25351  1.0000
  C   C1382     1.0  0.36343  0.20707  0.41204  1.0000
  S   S192      1.0  0.37435  0.20362  0.33398  1.0000
  C   C1383     1.0  0.46411  0.18320  0.47232  1.0000
  H   H1121     1.0  0.62161  0.20772  0.08642  1.0000
  C   C1384     1.0  0.59895  0.13647  0.18617  1.0000
  C   C1385     1.0  0.57799  0.19638  0.20925  1.0000
  H   H1122     1.0  0.36987  0.20800  0.39097  1.0000
  C   C1386     1.0  0.43305  0.21785  0.43954  1.0000
  C   C1387     1.0  0.58250  0.01040  0.08670  1.0000
  H   H1123     1.0  0.56509  0.21968  0.14182  1.0000
  C   C1388     1.0  0.64451  0.05167  0.24422  1.0000
  S   S193      1.0  0.56307  0.23370  0.32144  1.0000
  H   H1124     1.0  0.64688  0.21026  0.41609  1.0000
  C   C1389     1.0  0.41037  0.23188  0.32249  1.0000
  C   C1390     1.0  0.59036  0.16949  0.18116  1.0000
  P   P44       1.0  0.58282  0.19077  0.17733  1.0000
  C   C1391     1.0  0.43128  0.10964  0.11414  1.0000
  C   C1392     1.0  0.37976  0.18247  0.21299  1.0000
  S   S194      1.0  0.33828  0.18939  0.40547  1.0000
  H   H1125     1.0  0.59325  0.19752  0.11869  1.0000
  H   H1126     1.0  0.51484  0.19173  0.23110  1.0000
  H   H1127     1.0  0.34331  0.17824  0.24587  1.0000
  C   C1393     1.0  0.60216  0.14644  0.16095  1.0000
  C   C1394     1.0  0.58103  0.21882  0.40354  1.0000
  C   C1395     1.0  0.36956  0.01377  0.11855  1.0000
  C   C1396     1.0  0.57244  0.03788  0.19250  1.0000
  C   C1397     1.0  0.59192  0.19021  0.22635  1.0000
  C   C1398     1.0  0.33873  0.05011  0.17688  1.0000
  H   H1128     1.0  0.64579  0.05529  0.14323  1.0000
  C   C1399     1.0  0.46374  0.23359  0.15602  1.0000
  H   H1129     1.0  0.54263  0.13826  0.09200  1.0000
  C   C1400     1.0  0.47666  0.19437  0.46035  1.0000
  C   C1401     1.0  0.59783  0.16286  0.15840  1.0000
  C   C1402     1.0  0.53388  0.18305  0.00293  1.0000
  C   C1403     1.0  0.50600  0.17427  0.46955  1.0000
  H   H1130     1.0  0.36159  0.20216  0.13016  1.0000
  C   C1404     1.0  0.42906  0.20973  0.46629  1.0000
  C   C1405     1.0  0.60441  0.20095  0.12606  1.0000
  H   H1131     1.0  0.60734  0.14145  0.14323  1.0000
  C   C1406     1.0  0.63427  0.05603  0.18482  1.0000
  H   H1132     1.0  0.61608  0.20433  0.18306  1.0000
  S   S195      1.0  0.55198  0.99217  0.20902  1.0000
  H   H1133     1.0  0.37548  0.15084  0.47442  1.0000
  H   H1134     1.0  0.62977  0.08249  0.25416  1.0000
  C   C1407     1.0  0.49998  0.21614  0.22098  1.0000
  C   C1408     1.0  0.60269  0.19973  0.15356  1.0000
  C   C1409     1.0  0.33293  0.18356  0.17313  1.0000
  H   H1135     1.0  0.37334  0.19214  0.22327  1.0000
  H   H1136     1.0  0.57876  0.20812  0.39954  1.0000
  H   H1137     1.0  0.50766  0.19097  0.27981  1.0000
  Fe  Fe98      1.0  0.38742  0.21053  0.03565  1.0000
  S   S196      1.0  0.58739  0.02393  0.17370  1.0000
  C   C1410     1.0  0.63506  0.21145  0.11632  1.0000
  C   C1411     1.0  0.47750  0.07777  0.30921  1.0000
  H   H1138     1.0  0.59973  0.17025  0.13853  1.0000
  H   H1139     1.0  0.39847  0.18883  0.46214  1.0000
  C   C1412     1.0  0.35410  0.21065  0.16689  1.0000
  H   H1140     1.0  0.38609  0.22123  0.27946  1.0000
  C   C1413     1.0  0.62061  0.20666  0.10762  1.0000
  C   C1414     1.0  0.56051  0.03322  0.21769  1.0000
  C   C1415     1.0  0.37877  0.00888  0.14081  1.0000
  S   S197      1.0  0.33736  0.10649  0.17663  1.0000
  Fe  Fe99      1.0  0.58120  0.99904  0.18518  1.0000
  C   C1416     1.0  0.48904  0.07479  0.28466  1.0000
  H   H1141     1.0  0.38277  0.03356  0.21711  1.0000
  C   C1417     1.0  0.65039  0.22204  0.41045  1.0000
  H   H1142     1.0  0.58816  0.20916  0.47841  1.0000
  C   C1418     1.0  0.36064  0.21196  0.13920  1.0000
  C   C1419     1.0  0.50672  0.20223  0.23859  1.0000
  H   H1143     1.0  0.41026  0.21628  0.18060  1.0000
  C   C1420     1.0  0.34143  0.14797  0.28833  1.0000
  H   H1144     1.0  0.45827  0.23406  0.06686  1.0000
  H   H1145     1.0  0.36121  0.02577  0.11381  1.0000
  H   H1146     1.0  0.38307  0.22070  0.41795  1.0000
  H   H1147     1.0  0.55195  0.01868  0.10590  1.0000
  C   C1421     1.0  0.48672  0.08603  0.26110  1.0000
  H   H1148     1.0  0.56608  0.20645  0.27966  1.0000
  C   C1422     1.0  0.33620  0.05819  0.15104  1.0000
  H   H1149     1.0  0.48925  0.21454  0.29711  1.0000
  C   C1423     1.0  0.38231  0.23001  0.26215  1.0000
  H   H1150     1.0  0.61011  0.13626  0.99395  1.0000
  H   H1151     1.0  0.35024  0.22223  0.19960  1.0000
  C   C1424     1.0  0.33965  0.19744  0.45151  1.0000
  H   H1152     1.0  0.46322  0.99309  0.19775  1.0000
  C   C1425     1.0  0.53532  0.99045  0.34653  1.0000
  S   S198      1.0  0.49996  0.23601  0.06033  1.0000
  C   C1426     1.0  0.33409  0.03494  0.18669  1.0000
  H   H1153     1.0  0.49177  0.99807  0.25906  1.0000
  C   C1427     1.0  0.48546  0.23644  0.03714  1.0000
  C   C1428     1.0  0.46519  0.23482  0.04602  1.0000
  C   C1429     1.0  0.42725  0.23430  0.43262  1.0000
  C   C1430     1.0  0.59686  0.23156  0.42615  1.0000
  C   C1431     1.0  0.33270  0.19897  0.00141  1.0000
  C   C1432     1.0  0.63858  0.20519  0.47522  1.0000
  H   H1154     1.0  0.65112  0.21128  0.46614  1.0000
  C   C1433     1.0  0.46258  0.23525  0.00085  1.0000
  S   S199      1.0  0.37284  0.22202  0.47310  1.0000
  H   H1155     1.0  0.33613  0.05213  0.27200  1.0000
  H   H1156     1.0  0.33549  0.02875  0.20680  1.0000
  H   H1157     1.0  0.45518  0.23493  0.48095  1.0000
  C   C1434     1.0  0.49363  0.16308  0.48132  1.0000
  C   C1435     1.0  0.60319  0.20395  0.48219  1.0000
  H   H1158     1.0  0.66541  0.19905  0.78619  1.0000
  C   C1436     1.0  0.45254  0.23285  0.90716  1.0000
  S   S200      1.0  0.55025  0.20927  0.58121  1.0000
  C   C1437     1.0  0.51926  0.17766  0.72103  1.0000
  H   H1159     1.0  0.34452  0.12600  0.77187  1.0000
  Fe  Fe100     1.0  0.55553  0.22226  0.60928  1.0000
  C   C1438     1.0  0.41297  0.16314  0.56029  1.0000
  S   S201      1.0  0.53358  0.21348  0.81341  1.0000
  H   H1160     1.0  0.43921  0.19232  0.52660  1.0000
  C   C1439     1.0  0.34387  0.16264  0.69342  1.0000
  C   C1440     1.0  0.43887  0.18274  0.62880  1.0000
  C   C1441     1.0  0.40544  0.09808  0.61211  1.0000
  C   C1442     1.0  0.33982  0.00282  0.68509  1.0000
  S   S202      1.0  0.56764  0.13813  0.68728  1.0000
  S   S203      1.0  0.39755  0.16737  0.79850  1.0000
  C   C1443     1.0  0.37396  0.11198  0.58382  1.0000
  Fe  Fe101     1.0  0.38657  0.11676  0.68059  1.0000
  S   S204      1.0  0.37053  0.10041  0.67099  1.0000
  S   S205      1.0  0.40172  0.13599  0.65221  1.0000
  Fe  Fe102     1.0  0.37810  0.10310  0.74010  1.0000
  S   S206      1.0  0.36180  0.08532  0.73568  1.0000
  S   S207      1.0  0.38260  0.10390  0.78041  1.0000
  Fe  Fe103     1.0  0.38674  0.08178  0.70031  1.0000
  S   S208      1.0  0.40688  0.05856  0.69386  1.0000
  Fe  Fe104     1.0  0.34691  0.10576  0.70709  1.0000
  C   C1444     1.0  0.51214  0.17340  0.53928  1.0000
  S   S209      1.0  0.40432  0.09788  0.70729  1.0000
  S   S210      1.0  0.36180  0.12351  0.71401  1.0000
  H   H1161     1.0  0.59567  0.15887  0.96162  1.0000
  H   H1162     1.0  0.53195  0.15795  0.51439  1.0000
  H   H1163     1.0  0.34834  0.99976  0.66638  1.0000
  H   H1164     1.0  0.36923  0.18705  0.60472  1.0000
  H   H1165     1.0  0.55891  0.18649  0.49589  1.0000
  H   H1166     1.0  0.34588  0.16387  0.85760  1.0000
  C   C1445     1.0  0.53364  0.17999  0.75666  1.0000
  C   C1446     1.0  0.40631  0.01839  0.73565  1.0000
  S   S211      1.0  0.38341  0.01196  0.63920  1.0000
  H   H1167     1.0  0.54594  0.17663  0.76737  1.0000
  S   S212      1.0  0.60058  0.03054  0.62731  1.0000
  C   C1447     1.0  0.37758  0.09558  0.59459  1.0000
  S   S213      1.0  0.51824  0.00438  0.64355  1.0000
  H   H1168     1.0  0.52051  0.17251  0.70422  1.0000
  C   C1448     1.0  0.41591  0.16683  0.51252  1.0000
  C   C1449     1.0  0.58569  0.15179  0.97634  1.0000
  C   C1450     1.0  0.48011  0.99699  0.49424  1.0000
  Fe  Fe105     1.0  0.59109  0.23426  0.56985  1.0000
  C   C1451     1.0  0.61839  0.15583  0.82816  1.0000
  Fe  Fe106     1.0  0.33950  0.21454  0.78485  1.0000
  C   C1452     1.0  0.38051  0.21919  0.66388  1.0000
  C   C1453     1.0  0.38555  0.01861  0.74338  1.0000
  H   H1169     1.0  0.61936  0.16819  0.82018  1.0000
  C   C1454     1.0  0.35997  0.16650  0.52989  1.0000
  C   C1455     1.0  0.62653  0.18366  0.74326  1.0000
  H   H1170     1.0  0.38293  0.13407  0.58114  1.0000
  H   H1171     1.0  0.65014  0.11774  0.62273  1.0000
  C   C1456     1.0  0.48561  0.23100  0.81684  1.0000
  C   C1457     1.0  0.48471  0.99683  0.63599  1.0000
  C   C1458     1.0  0.49518  0.98785  0.54426  1.0000
  C   C1459     1.0  0.65793  0.23129  0.73591  1.0000
  H   H1172     1.0  0.42660  0.00595  0.60697  1.0000
  H   H1173     1.0  0.50133  0.22340  0.70555  1.0000
  H   H1174     1.0  0.47683  0.00811  0.64074  1.0000
  C   C1460     1.0  0.62403  0.99067  0.71674  1.0000
  H   H1175     1.0  0.58996  0.20029  0.70572  1.0000
  C   C1461     1.0  0.49712  0.21523  0.62487  1.0000
  C   C1462     1.0  0.40178  0.11440  0.60179  1.0000
  C   C1463     1.0  0.38602  0.12135  0.58788  1.0000
  H   H1176     1.0  0.37344  0.07849  0.51564  1.0000
  P   P45       1.0  0.35129  0.00463  0.75663  1.0000
  H   H1177     1.0  0.54815  0.16443  0.72947  1.0000
  C   C1464     1.0  0.34872  0.16873  0.74040  1.0000
  C   C1465     1.0  0.53493  0.17315  0.73522  1.0000
  C   C1466     1.0  0.40008  0.04627  0.67766  1.0000
  C   C1467     1.0  0.41421  0.03289  0.67166  1.0000
  C   C1468     1.0  0.40913  0.02228  0.66008  1.0000
  C   C1469     1.0  0.38994  0.02509  0.65404  1.0000
  C   C1470     1.0  0.37593  0.03872  0.65938  1.0000
  C   C1471     1.0  0.38093  0.04927  0.67133  1.0000
  H   H1178     1.0  0.42912  0.03060  0.67623  1.0000
  H   H1179     1.0  0.42023  0.01211  0.65538  1.0000
  H   H1180     1.0  0.48979  0.19319  0.62489  1.0000
  H   H1181     1.0  0.36997  0.05961  0.67583  1.0000
  C   C1472     1.0  0.34103  0.08522  0.52588  1.0000
  C   C1473     1.0  0.65036  0.12674  0.58052  1.0000
  H   H1182     1.0  0.44020  0.01120  0.50864  1.0000
  C   C1474     1.0  0.35210  0.16874  0.61106  1.0000
  C   C1475     1.0  0.35095  0.15292  0.62227  1.0000
  C   C1476     1.0  0.36617  0.14301  0.63504  1.0000
  C   C1477     1.0  0.38276  0.14879  0.63639  1.0000
  C   C1478     1.0  0.38391  0.16469  0.62535  1.0000
  C   C1479     1.0  0.36848  0.17471  0.61281  1.0000
  H   H1183     1.0  0.54166  0.98882  0.57217  1.0000
  H   H1184     1.0  0.36507  0.13085  0.64350  1.0000
  H   H1185     1.0  0.39652  0.16936  0.62663  1.0000
  C   C1480     1.0  0.59966  0.13618  0.85771  1.0000
  C   C1481     1.0  0.33967  0.16221  0.84189  1.0000
  C   C1482     1.0  0.55185  0.19866  0.48926  1.0000
  H   H1186     1.0  0.33806  0.23594  0.92052  1.0000
  H   H1187     1.0  0.35312  0.13746  0.84668  1.0000
  H   H1188     1.0  0.60831  0.14367  0.59655  1.0000
  C   C1483     1.0  0.62531  0.18340  0.50730  1.0000
  C   C1484     1.0  0.39266  0.15021  0.79274  1.0000
  C   C1485     1.0  0.38794  0.14996  0.76866  1.0000
  C   C1486     1.0  0.38455  0.13587  0.76459  1.0000
  C   C1487     1.0  0.38626  0.12196  0.78452  1.0000
  C   C1488     1.0  0.39135  0.12223  0.80836  1.0000
  C   C1489     1.0  0.39472  0.13624  0.81235  1.0000
  H   H1189     1.0  0.38752  0.16051  0.75300  1.0000
  H   H1190     1.0  0.38085  0.13578  0.74597  1.0000
  H   H1191     1.0  0.39287  0.11153  0.82375  1.0000
  H   H1192     1.0  0.39879  0.13628  0.83080  1.0000
  H   H1193     1.0  0.34049  0.09840  0.78047  1.0000
  S   S214      1.0  0.53616  0.21856  0.65080  1.0000
  C   C1490     1.0  0.59471  0.03275  0.67970  1.0000
  C   C1491     1.0  0.60011  0.04006  0.65285  1.0000
  C   C1492     1.0  0.60615  0.05477  0.64628  1.0000
  C   C1493     1.0  0.60748  0.06186  0.66654  1.0000
  C   C1494     1.0  0.33534  0.03646  0.75615  1.0000
  H   H1194     1.0  0.61030  0.06050  0.62551  1.0000
  H   H1195     1.0  0.61262  0.07299  0.66142  1.0000
  Fe  Fe107     1.0  0.36145  0.22065  0.51737  1.0000
  C   C1495     1.0  0.53042  0.16364  0.53074  1.0000
  C   C1496     1.0  0.51668  0.19130  0.76407  1.0000
  H   H1196     1.0  0.41073  0.12177  0.60533  1.0000
  H   H1197     1.0  0.58101  0.16546  0.78127  1.0000
  C   C1497     1.0  0.40813  0.99985  0.81809  1.0000
  C   C1498     1.0  0.41858  0.21830  0.48602  1.0000
  H   H1198     1.0  0.48289  0.22850  0.83850  1.0000
  H   H1199     1.0  0.41197  0.02898  0.73376  1.0000
  C   C1499     1.0  0.54208  0.22529  0.67588  1.0000
  C   C1500     1.0  0.54273  0.21512  0.70096  1.0000
  C   C1501     1.0  0.63061  0.17328  0.62857  1.0000
  H   H1200     1.0  0.59432  0.21191  0.95343  1.0000
  H   H1201     1.0  0.50029  0.15091  0.48890  1.0000
  H   H1202     1.0  0.42423  0.20434  0.93761  1.0000
  H   H1203     1.0  0.42682  0.18867  0.64233  1.0000
  C   C1502     1.0  0.56740  0.16451  0.64761  1.0000
  H   H1204     1.0  0.52718  0.18454  0.87268  1.0000
  H   H1205     1.0  0.55618  0.17044  0.66189  1.0000
  H   H1206     1.0  0.56634  0.01591  0.73303  1.0000
  C   C1503     1.0  0.60614  0.18988  0.50131  1.0000
  S   S215      1.0  0.54464  0.16859  0.82252  1.0000
  C   C1504     1.0  0.39464  0.22579  0.67021  1.0000
  H   H1207     1.0  0.34006  0.03834  0.73455  1.0000
  C   C1505     1.0  0.52968  0.99403  0.76260  1.0000
  C   C1506     1.0  0.51378  0.00354  0.75032  1.0000
  H   H1208     1.0  0.52442  0.15679  0.87667  1.0000
  H   H1209     1.0  0.65687  0.21394  0.85246  1.0000
  C   C1507     1.0  0.65250  0.01587  0.63689  1.0000
  C   C1508     1.0  0.51039  0.18140  0.55963  1.0000
  H   H1210     1.0  0.39576  0.07608  0.61737  1.0000
  H   H1211     1.0  0.36901  0.17432  0.67376  1.0000
  H   H1212     1.0  0.60118  0.99246  0.75223  1.0000
  C   C1509     1.0  0.51197  0.00094  0.56529  1.0000
  H   H1213     1.0  0.53463  0.13595  0.91489  1.0000
  C   C1510     1.0  0.47173  0.22302  0.90356  1.0000
  C   C1511     1.0  0.60303  0.23554  0.69975  1.0000
  H   H1214     1.0  0.44462  0.16535  0.80226  1.0000
  H   H1215     1.0  0.36990  0.17631  0.48820  1.0000
  C   C1512     1.0  0.64010  0.99695  0.69895  1.0000
  C   C1513     1.0  0.65346  0.13942  0.55879  1.0000
  S   S216      1.0  0.37514  0.20175  0.54856  1.0000
  C   C1514     1.0  0.59690  0.14947  0.61076  1.0000
  C   C1515     1.0  0.33624  0.14516  0.81502  1.0000
  H   H1216     1.0  0.33994  0.13351  0.81084  1.0000
  C   C1516     1.0  0.55159  0.01264  0.73820  1.0000
  C   C1517     1.0  0.36626  0.13768  0.51455  1.0000
  C   C1518     1.0  0.59380  0.21180  0.69641  1.0000
  C   C1519     1.0  0.54884  0.20954  0.50555  1.0000
  H   H1217     1.0  0.48267  0.01048  0.55571  1.0000
  C   C1520     1.0  0.57191  0.18565  0.93986  1.0000
  Fe  Fe108     1.0  0.37523  0.22112  0.56828  1.0000
  C   C1521     1.0  0.36699  0.16573  0.50304  1.0000
  C   C1522     1.0  0.59700  0.19509  0.90149  1.0000
  C   C1523     1.0  0.66404  0.18728  0.56471  1.0000
  Fe  Fe109     1.0  0.55082  0.99482  0.64673  1.0000
  P   P46       1.0  0.47419  0.98808  0.52943  1.0000
  H   H1218     1.0  0.61197  0.21240  0.90637  1.0000
  C   C1524     1.0  0.57353  0.12358  0.82236  1.0000
  C   C1525     1.0  0.38821  0.00593  0.82911  1.0000
  H   H1219     1.0  0.62739  0.17270  0.52265  1.0000
  H   H1220     1.0  0.59341  0.18425  0.51216  1.0000
  C   C1526     1.0  0.46979  0.01466  0.75358  1.0000
  C   C1527     1.0  0.46670  0.02224  0.72758  1.0000
  C   C1528     1.0  0.45202  0.03599  0.72344  1.0000
  C   C1529     1.0  0.44018  0.04225  0.74516  1.0000
  C   C1530     1.0  0.44281  0.03462  0.77111  1.0000
  C   C1531     1.0  0.45749  0.02084  0.77537  1.0000
  H   H1221     1.0  0.48514  0.22794  0.89359  1.0000
  C   C1532     1.0  0.53131  0.17549  0.88969  1.0000
  H   H1222     1.0  0.46335  0.15867  0.49162  1.0000
  H   H1223     1.0  0.40228  0.02395  0.58035  1.0000
  H   H1224     1.0  0.57993  0.17790  0.90229  1.0000
  C   C1533     1.0  0.43758  0.01001  0.53004  1.0000
  C   C1534     1.0  0.66415  0.03881  0.67788  1.0000
  C   C1535     1.0  0.59584  0.23381  0.65822  1.0000
  H   H1225     1.0  0.53892  0.03243  0.71012  1.0000
  H   H1226     1.0  0.50565  0.02479  0.72076  1.0000
  H   H1227     1.0  0.48977  0.00355  0.80974  1.0000
  C   C1536     1.0  0.45027  0.22739  0.72719  1.0000
  H   H1228     1.0  0.59187  0.03412  0.72055  1.0000
  H   H1229     1.0  0.38148  0.01811  0.82156  1.0000
  S   S217      1.0  0.61595  0.12858  0.71738  1.0000
  H   H1230     1.0  0.47578  0.01763  0.71038  1.0000
  H   H1231     1.0  0.44965  0.04177  0.70335  1.0000
  H   H1232     1.0  0.42873  0.05288  0.74179  1.0000
  H   H1233     1.0  0.43345  0.03945  0.78792  1.0000
  H   H1234     1.0  0.45910  0.01517  0.79562  1.0000
  C   C1537     1.0  0.42941  0.12812  0.72125  1.0000
  C   C1538     1.0  0.43374  0.11437  0.74055  1.0000
  C   C1539     1.0  0.45233  0.11039  0.74865  1.0000
  C   C1540     1.0  0.46649  0.12033  0.73788  1.0000
  C   C1541     1.0  0.46199  0.13442  0.71910  1.0000
  C   C1542     1.0  0.44352  0.13806  0.71040  1.0000
  P   P47       1.0  0.47916  0.14822  0.70706  1.0000
  C   C1543     1.0  0.46365  0.16775  0.70716  1.0000
  C   C1544     1.0  0.49579  0.14422  0.73054  1.0000
  C   C1545     1.0  0.48837  0.14859  0.75537  1.0000
  C   C1546     1.0  0.50105  0.14566  0.77365  1.0000
  C   C1547     1.0  0.52111  0.13793  0.76763  1.0000
  C   C1548     1.0  0.52840  0.13295  0.74348  1.0000
  C   C1549     1.0  0.51584  0.13603  0.72499  1.0000
  C   C1550     1.0  0.46822  0.18087  0.68682  1.0000
  C   C1551     1.0  0.45531  0.19565  0.68623  1.0000
  C   C1552     1.0  0.43778  0.19744  0.70591  1.0000
  C   C1553     1.0  0.43331  0.18453  0.72642  1.0000
  C   C1554     1.0  0.44617  0.16980  0.72714  1.0000
  C   C1555     1.0  0.49324  0.14685  0.67364  1.0000
  C   C1556     1.0  0.48704  0.13895  0.65816  1.0000
  C   C1557     1.0  0.49799  0.13787  0.63242  1.0000
  C   C1558     1.0  0.51494  0.14496  0.62168  1.0000
  C   C1559     1.0  0.52118  0.15290  0.63685  1.0000
  C   C1560     1.0  0.51045  0.15379  0.66273  1.0000
  H   H1235     1.0  0.41505  0.13111  0.71476  1.0000
  H   H1236     1.0  0.42267  0.10677  0.74921  1.0000
  H   H1237     1.0  0.45557  0.09974  0.76368  1.0000
  H   H1238     1.0  0.48067  0.11715  0.74475  1.0000
  H   H1239     1.0  0.43978  0.14878  0.69570  1.0000
  H   H1240     1.0  0.47277  0.15418  0.76074  1.0000
  H   H1241     1.0  0.49539  0.14941  0.79251  1.0000
  H   H1242     1.0  0.53106  0.13582  0.78163  1.0000
  H   H1243     1.0  0.54396  0.12686  0.73895  1.0000
  H   H1244     1.0  0.52198  0.13198  0.70648  1.0000
  H   H1245     1.0  0.48157  0.17974  0.67130  1.0000
  H   H1246     1.0  0.45873  0.20574  0.67041  1.0000
  H   H1247     1.0  0.42758  0.20880  0.70523  1.0000
  H   H1248     1.0  0.41971  0.18583  0.74169  1.0000
  H   H1249     1.0  0.44209  0.15997  0.74312  1.0000
  H   H1250     1.0  0.47376  0.13364  0.66580  1.0000
  H   H1251     1.0  0.49326  0.13158  0.62077  1.0000
  H   H1252     1.0  0.52341  0.14413  0.60173  1.0000
  H   H1253     1.0  0.53456  0.15816  0.62873  1.0000
  H   H1254     1.0  0.51571  0.15983  0.67420  1.0000
  C   C1561     1.0  0.51170  0.05741  0.63867  1.0000
  C   C1562     1.0  0.52718  0.06509  0.63851  1.0000
  C   C1563     1.0  0.54717  0.05929  0.62681  1.0000
  P   P48       1.0  0.52154  0.08122  0.65546  1.0000
  C   C1564     1.0  0.53729  0.09577  0.63910  1.0000
  C   C1565     1.0  0.49607  0.09176  0.65333  1.0000
  C   C1566     1.0  0.48264  0.09678  0.67548  1.0000
  C   C1567     1.0  0.46266  0.10406  0.67366  1.0000
  C   C1568     1.0  0.45617  0.10708  0.64953  1.0000
  C   C1569     1.0  0.46970  0.10277  0.62707  1.0000
  C   C1570     1.0  0.48958  0.09514  0.62893  1.0000
  C   C1571     1.0  0.54099  0.10544  0.65380  1.0000
  C   C1572     1.0  0.55319  0.11669  0.64132  1.0000
  C   C1573     1.0  0.56139  0.11871  0.61398  1.0000
  C   C1574     1.0  0.55721  0.10951  0.59899  1.0000
  C   C1575     1.0  0.54508  0.09814  0.61144  1.0000
  C   C1576     1.0  0.52536  0.07223  0.68914  1.0000
  C   C1577     1.0  0.51007  0.06559  0.70850  1.0000
  C   C1578     1.0  0.51305  0.05874  0.73461  1.0000
  C   C1579     1.0  0.53152  0.05804  0.74133  1.0000
  C   C1580     1.0  0.54712  0.06398  0.72187  1.0000
  C   C1581     1.0  0.54416  0.07087  0.69580  1.0000
  H   H1255     1.0  0.49634  0.06106  0.64881  1.0000
  H   H1256     1.0  0.55960  0.06433  0.62783  1.0000
  H   H1257     1.0  0.48743  0.09502  0.69419  1.0000
  H   H1258     1.0  0.45210  0.10732  0.69099  1.0000
  H   H1259     1.0  0.44063  0.11274  0.64833  1.0000
  H   H1260     1.0  0.46466  0.10510  0.60835  1.0000
  H   H1261     1.0  0.49982  0.09166  0.61143  1.0000
  H   H1262     1.0  0.53459  0.10425  0.67497  1.0000
  H   H1263     1.0  0.55622  0.12390  0.65293  1.0000
  H   H1264     1.0  0.57089  0.12746  0.60447  1.0000
  H   H1265     1.0  0.56349  0.11113  0.57774  1.0000
  H   H1266     1.0  0.54192  0.09119  0.59948  1.0000
  H   H1267     1.0  0.49590  0.06560  0.70343  1.0000
  H   H1268     1.0  0.50117  0.05374  0.74954  1.0000
  H   H1269     1.0  0.53396  0.05264  0.76147  1.0000
  H   H1270     1.0  0.56161  0.06316  0.72692  1.0000
  H   H1271     1.0  0.55669  0.07499  0.68092  1.0000
  C   C1582     1.0  0.49268  0.20456  0.61289  1.0000
  H   H1272     1.0  0.43258  0.22909  0.52557  1.0000
  C   C1583     1.0  0.43983  0.16691  0.62879  1.0000
  C   C1584     1.0  0.39330  0.08868  0.60859  1.0000
  C   C1585     1.0  0.64130  0.22939  0.59318  1.0000
  S   S218      1.0  0.59778  0.17654  0.57199  1.0000
  H   H1273     1.0  0.60067  0.21536  0.73179  1.0000
  H   H1274     1.0  0.40910  0.02648  0.53110  1.0000
  C   C1586     1.0  0.34830  0.10696  0.55081  1.0000
  H   H1275     1.0  0.41724  0.09277  0.62362  1.0000
  C   C1587     1.0  0.44846  0.22359  0.52266  1.0000
  H   H1276     1.0  0.65621  0.18626  0.49960  1.0000
  C   C1588     1.0  0.52980  0.15984  0.89191  1.0000
  C   C1589     1.0  0.53560  0.14811  0.91344  1.0000
  S   S219      1.0  0.37716  0.20949  0.94643  1.0000
  C   C1590     1.0  0.57430  0.17310  0.62210  1.0000
  Fe  Fe110     1.0  0.54877  0.21814  0.84248  1.0000
  C   C1591     1.0  0.62647  0.22781  0.76748  1.0000
  C   C1592     1.0  0.50229  0.18897  0.72827  1.0000
  C   C1593     1.0  0.55131  0.04676  0.61374  1.0000
  C   C1594     1.0  0.57889  0.15380  0.79268  1.0000
  H   H1277     1.0  0.62893  0.21907  0.54369  1.0000
  H   H1278     1.0  0.55815  0.16801  0.57220  1.0000
  H   H1279     1.0  0.51605  0.19641  0.78080  1.0000
  H   H1280     1.0  0.49030  0.19233  0.71701  1.0000
  C   C1595     1.0  0.63255  0.12791  0.83117  1.0000
  H   H1281     1.0  0.33820  0.07682  0.51629  1.0000
  H   H1282     1.0  0.35089  0.17104  0.75844  1.0000
  C   C1596     1.0  0.48173  0.22013  0.49443  1.0000
  C   C1597     1.0  0.50097  0.19601  0.74970  1.0000
  H   H1283     1.0  0.36989  0.98867  0.80264  1.0000
  C   C1598     1.0  0.51598  0.04477  0.62589  1.0000
  C   C1599     1.0  0.53861  0.17943  0.90899  1.0000
  H   H1284     1.0  0.60525  0.14155  0.76942  1.0000
  Fe  Fe111     1.0  0.55649  0.19100  0.81459  1.0000
  H   H1285     1.0  0.47577  0.21027  0.81565  1.0000
  H   H1286     1.0  0.56666  0.04245  0.60433  1.0000
  C   C1600     1.0  0.56235  0.15211  0.81394  1.0000
  C   C1601     1.0  0.54278  0.15203  0.93290  1.0000
  H   H1287     1.0  0.53996  0.19160  0.90673  1.0000
  C   C1602     1.0  0.38296  0.21697  0.63764  1.0000
  C   C1603     1.0  0.66508  0.17475  0.75542  1.0000
  C   C1604     1.0  0.53272  0.18364  0.97653  1.0000
  H   H1288     1.0  0.56844  0.18558  0.61714  1.0000
  H   H1289     1.0  0.64199  0.12505  0.77848  1.0000
  C   C1605     1.0  0.59253  0.14030  0.78592  1.0000
  H   H1290     1.0  0.59653  0.12850  0.64206  1.0000
  C   C1606     1.0  0.53576  0.03951  0.61329  1.0000
  C   C1607     1.0  0.56470  0.15566  0.97768  1.0000
  H   H1291     1.0  0.54729  0.14272  0.94925  1.0000
  H   H1292     1.0  0.37767  0.19614  0.90310  1.0000
  C   C1608     1.0  0.48159  0.22068  0.80373  1.0000
  C   C1609     1.0  0.54251  0.22997  0.89991  1.0000
  H   H1293     1.0  0.51176  0.01058  0.57436  1.0000
  C   C1610     1.0  0.33877  0.02116  0.77226  1.0000
  C   C1611     1.0  0.54426  0.16776  0.93089  1.0000
  H   H1294     1.0  0.64456  0.11839  0.82556  1.0000
  H   H1295     1.0  0.37574  0.02939  0.74786  1.0000
  C   C1612     1.0  0.49533  0.00066  0.55510  1.0000
  S   S220      1.0  0.44936  0.23291  0.97817  1.0000
  S   S221      1.0  0.57646  0.99928  0.61205  1.0000
  H   H1296     1.0  0.50408  0.03875  0.62622  1.0000
  S   S222      1.0  0.57019  0.19491  0.84583  1.0000
  C   C1613     1.0  0.63386  0.14379  0.81937  1.0000
  C   C1614     1.0  0.47091  0.22245  0.72819  1.0000
  C   C1615     1.0  0.63080  0.17049  0.76356  1.0000
  P   P49       1.0  0.47915  0.21086  0.75858  1.0000
  H   H1297     1.0  0.41544  0.20932  0.82540  1.0000
  C   C1616     1.0  0.35912  0.13835  0.54165  1.0000
  C   C1617     1.0  0.44287  0.20999  0.79560  1.0000
  H   H1298     1.0  0.54606  0.21258  0.74151  1.0000
  S   S223      1.0  0.52933  0.22461  0.88027  1.0000
  Fe  Fe112     1.0  0.61249  0.08592  0.71427  1.0000
  C   C1618     1.0  0.59596  0.03986  0.69982  1.0000
  H   H1299     1.0  0.37365  0.17949  0.71537  1.0000
  H   H1300     1.0  0.64602  0.11644  0.57795  1.0000
  H   H1301     1.0  0.45538  0.14728  0.61049  1.0000
  C   C1619     1.0  0.45911  0.20128  0.78045  1.0000
  C   C1620     1.0  0.42787  0.20254  0.81369  1.0000
  H   H1302     1.0  0.34669  0.18798  0.87267  1.0000
  P   P50       1.0  0.35310  0.12098  0.56665  1.0000
  C   C1621     1.0  0.54733  0.23624  0.71862  1.0000
  C   C1622     1.0  0.65264  0.12745  0.60570  1.0000
  C   C1623     1.0  0.46935  0.16777  0.59287  1.0000
  C   C1624     1.0  0.60299  0.05412  0.69336  1.0000
  H   H1303     1.0  0.54116  0.20302  0.70385  1.0000
  H   H1304     1.0  0.41670  0.18075  0.82978  1.0000
  H   H1305     1.0  0.36862  0.12675  0.50800  1.0000
  C   C1625     1.0  0.42860  0.18644  0.81618  1.0000
  H   H1306     1.0  0.35734  0.17767  0.53593  1.0000
  H   H1307     1.0  0.36799  0.08814  0.59278  1.0000
  C   C1626     1.0  0.45970  0.18513  0.78296  1.0000
  C   C1627     1.0  0.59941  0.22031  0.71121  1.0000
  S   S224      1.0  0.56191  0.00483  0.67395  1.0000
  Fe  Fe113     1.0  0.58867  0.00762  0.64059  1.0000
  C   C1628     1.0  0.63541  0.01683  0.72473  1.0000
  C   C1629     1.0  0.41959  0.00487  0.72901  1.0000
  H   H1308     1.0  0.41682  0.00730  0.80193  1.0000
  H   H1309     1.0  0.63766  0.01981  0.64816  1.0000
  C   C1630     1.0  0.57569  0.14851  0.65498  1.0000
  H   H1310     1.0  0.47195  0.17824  0.77137  1.0000
  C   C1631     1.0  0.37958  0.20825  0.89482  1.0000
  C   C1632     1.0  0.44440  0.17776  0.80063  1.0000
  C   C1633     1.0  0.41991  0.01873  0.54269  1.0000
  H   H1311     1.0  0.59017  0.02138  0.68499  1.0000
  C   C1634     1.0  0.54697  0.16167  0.54263  1.0000
  H   H1312     1.0  0.53911  0.02950  0.60380  1.0000
  H   H1313     1.0  0.41420  0.21240  0.50658  1.0000
  C   C1635     1.0  0.64146  0.19247  0.72918  1.0000
  C   C1636     1.0  0.42977  0.00717  0.58546  1.0000
  C   C1637     1.0  0.50172  0.22972  0.60944  1.0000
  C   C1638     1.0  0.64526  0.19752  0.56421  1.0000
  H   H1314     1.0  0.43871  0.22422  0.74443  1.0000
  C   C1639     1.0  0.38105  0.21751  0.91170  1.0000
  C   C1640     1.0  0.34216  0.18492  0.91534  1.0000
  H   H1315     1.0  0.62473  0.16985  0.61422  1.0000
  S   S225      1.0  0.57888  0.20145  0.78010  1.0000
  C   C1641     1.0  0.54018  0.22539  0.49688  1.0000
  C   C1642     1.0  0.54522  0.16932  0.56325  1.0000
  H   H1316     1.0  0.63828  0.20275  0.71347  1.0000
  C   C1643     1.0  0.45317  0.19108  0.61095  1.0000
  H   H1317     1.0  0.61632  0.17960  0.69181  1.0000
  C   C1644     1.0  0.54837  0.99870  0.75682  1.0000
  H   H1318     1.0  0.55352  0.20567  0.52464  1.0000
  C   C1645     1.0  0.48819  0.99136  0.81304  1.0000
  H   H1319     1.0  0.41311  0.16305  0.49616  1.0000
  Fe  Fe114     1.0  0.34334  0.20317  0.57174  1.0000
  Fe  Fe115     1.0  0.38009  0.19181  0.78428  1.0000
  C   C1646     1.0  0.63666  0.21423  0.78252  1.0000
  H   H1320     1.0  0.37920  0.20718  0.85475  1.0000
  H   H1321     1.0  0.33933  0.10693  0.62338  1.0000
  H   H1322     1.0  0.45195  0.20342  0.61098  1.0000
  S   S226      1.0  0.58740  0.10139  0.73675  1.0000
  P   P51       1.0  0.55353  0.17307  0.95583  1.0000
  H   H1323     1.0  0.42752  0.22960  0.61020  1.0000
  C   C1647     1.0  0.48534  0.22694  0.70526  1.0000
  C   C1648     1.0  0.37786  0.00515  0.74479  1.0000
  C   C1649     1.0  0.53396  0.22979  0.92688  1.0000
  C   C1650     1.0  0.36169  0.17345  0.71610  1.0000
  H   H1324     1.0  0.40769  0.15696  0.58045  1.0000
  C   C1651     1.0  0.55953  0.13699  0.82848  1.0000
  P   P52       1.0  0.48963  0.99733  0.75809  1.0000
  Fe  Fe116     1.0  0.58386  0.20180  0.57289  1.0000
  C   C1652     1.0  0.65797  0.14080  0.60916  1.0000
  C   C1653     1.0  0.38049  0.21449  0.86738  1.0000
  H   H1325     1.0  0.36707  0.21681  0.67854  1.0000
  C   C1654     1.0  0.35916  0.17050  0.69260  1.0000
  C   C1655     1.0  0.59248  0.21840  0.66974  1.0000
  S   S227      1.0  0.39756  0.21152  0.76857  1.0000
  C   C1656     1.0  0.64996  0.16621  0.77026  1.0000
  S   S228      1.0  0.63645  0.09047  0.73157  1.0000
  Fe  Fe117     1.0  0.59404  0.12071  0.70119  1.0000
  H   H1326     1.0  0.54671  0.13565  0.84482  1.0000
  C   C1657     1.0  0.36087  0.08616  0.52553  1.0000
  C   C1658     1.0  0.58900  0.16561  0.60364  1.0000
  H   H1327     1.0  0.36109  0.04100  0.65459  1.0000
  C   C1659     1.0  0.46118  0.22693  0.49769  1.0000
  C   C1660     1.0  0.60126  0.15200  0.84701  1.0000
  H   H1328     1.0  0.45826  0.18712  0.93125  1.0000
  C   C1661     1.0  0.42642  0.17922  0.50787  1.0000
  C   C1662     1.0  0.39977  0.22102  0.61804  1.0000
  S   S229      1.0  0.58904  0.22214  0.53851  1.0000
  C   C1663     1.0  0.58998  0.12520  0.80103  1.0000
  C   C1664     1.0  0.59039  0.14094  0.63658  1.0000
  C   C1665     1.0  0.61536  0.12414  0.84993  1.0000
  H   H1329     1.0  0.37161  0.21255  0.63245  1.0000
  S   S230      1.0  0.60708  0.06114  0.71944  1.0000
  S   S231      1.0  0.35948  0.20085  0.75455  1.0000
  H   H1330     1.0  0.65136  0.18471  0.68098  1.0000
  S   S232      1.0  0.62367  0.20317  0.81145  1.0000
  H   H1331     1.0  0.43557  0.00500  0.72195  1.0000
  H   H1332     1.0  0.48089  0.16181  0.57901  1.0000
  C   C1666     1.0  0.47678  0.20627  0.54109  1.0000
  C   C1667     1.0  0.43755  0.20954  0.92831  1.0000
  C   C1668     1.0  0.45669  0.19985  0.92469  1.0000
  Fe  Fe118     1.0  0.55710  0.22455  0.78165  1.0000
  C   C1669     1.0  0.44725  0.99826  0.57294  1.0000
  S   S233      1.0  0.58898  0.21301  0.60331  1.0000
  C   C1670     1.0  0.41604  0.01734  0.57039  1.0000
  C   C1671     1.0  0.58267  0.18542  0.91360  1.0000
  C   C1672     1.0  0.45620  0.21328  0.54423  1.0000
  C   C1673     1.0  0.57660  0.19499  0.95430  1.0000
  C   C1674     1.0  0.59118  0.20444  0.94231  1.0000
  H   H1333     1.0  0.37999  0.09766  0.53731  1.0000
  S   S234      1.0  0.35890  0.20379  0.81571  1.0000
  P   P53       1.0  0.48708  0.19458  0.56986  1.0000
  H   H1334     1.0  0.36159  0.00108  0.85859  1.0000
  C   C1675     1.0  0.64318  0.21085  0.54341  1.0000
  C   C1676     1.0  0.43054  0.18318  0.52976  1.0000
  H   H1335     1.0  0.51400  0.19349  0.94654  1.0000
  Fe  Fe119     1.0  0.37563  0.22146  0.74092  1.0000
  C   C1677     1.0  0.47379  0.20661  0.91250  1.0000
  C   C1678     1.0  0.39132  0.99155  0.73839  1.0000
  C   C1679     1.0  0.40924  0.15885  0.53862  1.0000
  H   H1336     1.0  0.60284  0.17280  0.65782  1.0000
  H   H1337     1.0  0.48868  0.19918  0.90964  1.0000
  H   H1338     1.0  0.50568  0.20527  0.51324  1.0000
  C   C1680     1.0  0.37019  0.15133  0.49536  1.0000
  C   C1681     1.0  0.63723  0.23656  0.74457  1.0000
  S   S235      1.0  0.61763  0.10493  0.67722  1.0000
  Fe  Fe120     1.0  0.59053  0.20757  0.81140  1.0000
  C   C1682     1.0  0.61815  0.17495  0.65326  1.0000
  H   H1339     1.0  0.49828  0.22606  0.54861  1.0000
  S   S236      1.0  0.40287  0.22014  0.58422  1.0000
  H   H1340     1.0  0.60470  0.19531  0.88088  1.0000
  C   C1683     1.0  0.45496  0.15947  0.61072  1.0000
  H   H1341     1.0  0.42864  0.16047  0.64251  1.0000
  Fe  Fe121     1.0  0.37485  0.22416  0.79790  1.0000
  H   H1342     1.0  0.58608  0.13327  0.87164  1.0000
  H   H1343     1.0  0.49955  0.17504  0.52954  1.0000
  C   C1684     1.0  0.38316  0.23006  0.85642  1.0000
  C   C1685     1.0  0.52879  0.98866  0.56417  1.0000
  C   C1686     1.0  0.53607  0.02197  0.72538  1.0000
  C   C1687     1.0  0.54546  0.22053  0.72226  1.0000
  Fe  Fe122     1.0  0.63931  0.11121  0.69663  1.0000
  H   H1344     1.0  0.61919  0.16363  0.77381  1.0000
  H   H1345     1.0  0.34103  0.20343  0.48804  1.0000
  S   S237      1.0  0.38986  0.23317  0.69953  1.0000
  H   H1346     1.0  0.51964  0.22601  0.93555  1.0000
  C   C1688     1.0  0.42352  0.17538  0.55589  1.0000
  C   C1689     1.0  0.64152  0.19105  0.49429  1.0000
  H   H1347     1.0  0.56130  0.15447  0.53553  1.0000
  Fe  Fe123     1.0  0.61162  0.10758  0.75089  1.0000
  S   S238      1.0  0.60749  0.10827  0.79400  1.0000
  H   H1348     1.0  0.57152  0.11192  0.83399  1.0000
  H   H1349     1.0  0.63231  0.19550  0.58009  1.0000
  C   C1690     1.0  0.49254  0.20843  0.58542  1.0000
  H   H1350     1.0  0.43972  0.23324  0.86369  1.0000
  H   H1351     1.0  0.58897  0.16128  0.85289  1.0000
  C   C1691     1.0  0.62565  0.17893  0.67231  1.0000
  C   C1692     1.0  0.48956  0.20989  0.51602  1.0000
  H   H1352     1.0  0.61397  0.11186  0.85782  1.0000
  C   C1693     1.0  0.60118  0.20465  0.91583  1.0000
  C   C1694     1.0  0.33407  0.19209  0.93726  1.0000
  C   C1695     1.0  0.35622  0.15286  0.54910  1.0000
  H   H1353     1.0  0.42057  0.23326  0.92230  1.0000
  C   C1696     1.0  0.45152  0.99982  0.54510  1.0000
  H   H1354     1.0  0.45807  0.99083  0.63061  1.0000
  H   H1355     1.0  0.44608  0.21113  0.56342  1.0000
  H   H1356     1.0  0.49772  0.21207  0.64595  1.0000
  H   H1357     1.0  0.53636  0.23545  0.96291  1.0000
  H   H1358     1.0  0.42612  0.17891  0.57272  1.0000
  H   H1359     1.0  0.58804  0.21177  0.65840  1.0000
  H   H1360     1.0  0.61165  0.18687  0.73846  1.0000
  H   H1361     1.0  0.40113  0.14935  0.54198  1.0000
  C   C1697     1.0  0.46866  0.18364  0.59296  1.0000
  C   C1698     1.0  0.52696  0.17904  0.57188  1.0000
  H   H1362     1.0  0.52604  0.18488  0.58779  1.0000
  C   C1699     1.0  0.51721  0.01750  0.73141  1.0000
  H   H1363     1.0  0.33827  0.14830  0.62103  1.0000
  P   P54       1.0  0.65612  0.14879  0.79533  1.0000
  C   C1700     1.0  0.34993  0.00236  0.70518  1.0000
  H   H1364     1.0  0.56065  0.99114  0.76602  1.0000
  C   C1701     1.0  0.61956  0.01032  0.74279  1.0000
  S   S239      1.0  0.34412  0.22139  0.59344  1.0000
  H   H1365     1.0  0.61141  0.01568  0.75954  1.0000
  C   C1702     1.0  0.65073  0.17543  0.62286  1.0000
  C   C1703     1.0  0.49743  0.22295  0.57002  1.0000
  H   H1366     1.0  0.34195  0.16033  0.67517  1.0000
  C   C1704     1.0  0.33972  0.19336  0.88970  1.0000
  H   H1367     1.0  0.64064  0.01409  0.60406  1.0000
  H   H1368     1.0  0.50047  0.01080  0.49835  1.0000
  H   H1369     1.0  0.44185  0.22254  0.79338  1.0000
  C   C1705     1.0  0.37699  0.99631  0.84991  1.0000
  C   C1706     1.0  0.41207  0.99142  0.73058  1.0000
  C   C1707     1.0  0.64582  0.01020  0.70262  1.0000
  H   H1370     1.0  0.63919  0.02718  0.72796  1.0000
  C   C1708     1.0  0.65754  0.20947  0.77459  1.0000
  C   C1709     1.0  0.65418  0.01263  0.61186  1.0000
  H   H1371     1.0  0.66286  0.21477  0.61728  1.0000
  H   H1372     1.0  0.62840  0.22498  0.60660  1.0000
  C   C1710     1.0  0.41452  0.22646  0.62515  1.0000
  C   C1711     1.0  0.48545  0.22368  0.77560  1.0000
  Fe  Fe124     1.0  0.55561  0.23062  0.54914  1.0000
  C   C1712     1.0  0.33326  0.16092  0.74135  1.0000
  H   H1373     1.0  0.60161  0.99098  0.96846  1.0000
  H   H1374     1.0  0.36626  0.99903  0.70148  1.0000
  C   C1713     1.0  0.41187  0.22899  0.65094  1.0000
  H   H1375     1.0  0.65145  0.13895  0.53936  1.0000
  H   H1376     1.0  0.56756  0.23527  0.86788  1.0000
  H   H1377     1.0  0.63388  0.23557  0.82844  1.0000
  C   C1714     1.0  0.65826  0.04988  0.65550  1.0000
  C   C1715     1.0  0.61374  0.99734  0.73865  1.0000
  H   H1378     1.0  0.64801  0.99138  0.68237  1.0000
  C   C1716     1.0  0.49342  0.00774  0.48478  1.0000
  H   H1379     1.0  0.65946  0.14125  0.62889  1.0000
  C   C1717     1.0  0.65001  0.23357  0.82034  1.0000
  C   C1718     1.0  0.65969  0.21407  0.52301  1.0000
  C   C1719     1.0  0.50550  0.99207  0.63556  1.0000
  H   H1380     1.0  0.61038  0.23169  0.77365  1.0000
  C   C1720     1.0  0.38444  0.23295  0.90071  1.0000
  C   C1721     1.0  0.66299  0.22128  0.83375  1.0000
  Fe  Fe125     1.0  0.38375  0.22008  0.97718  1.0000
  C   C1722     1.0  0.34375  0.14732  0.83575  1.0000
  C   C1723     1.0  0.47275  0.16752  0.48274  1.0000
  C   C1724     1.0  0.56088  0.23510  0.88871  1.0000
  C   C1725     1.0  0.50191  0.23355  0.58204  1.0000
  C   C1726     1.0  0.43549  0.22597  0.91969  1.0000
  H   H1381     1.0  0.35096  0.17299  0.91816  1.0000
  H   H1382     1.0  0.35079  0.15371  0.56976  1.0000
  C   C1727     1.0  0.36452  0.09700  0.53789  1.0000
  C   C1728     1.0  0.64538  0.18171  0.66635  1.0000
  S   S240      1.0  0.57034  0.23139  0.81080  1.0000
  H   H1383     1.0  0.33461  0.00742  0.81299  1.0000
  C   C1729     1.0  0.54356  0.23498  0.94253  1.0000
  H   H1384     1.0  0.65924  0.10621  0.74981  1.0000
  H   H1385     1.0  0.56904  0.19505  0.97481  1.0000
  C   C1730     1.0  0.51526  0.19231  0.96693  1.0000
  C   C1731     1.0  0.49432  0.23672  0.76094  1.0000
  C   C1732     1.0  0.44426  0.23647  0.70353  1.0000
  H   H1386     1.0  0.33670  0.18541  0.95676  1.0000
  H   H1387     1.0  0.65247  0.07455  0.63602  1.0000
  S   S241      1.0  0.35410  0.23593  0.76898  1.0000
  C   C1733     1.0  0.47930  0.23606  0.68172  1.0000
  H   H1388     1.0  0.65430  0.04614  0.63988  1.0000
  H   H1389     1.0  0.42277  0.23419  0.65557  1.0000
  H   H1390     1.0  0.65808  0.22477  0.50760  1.0000
  H   H1391     1.0  0.65455  0.17579  0.81720  1.0000
  S   S242      1.0  0.33340  0.18060  0.59395  1.0000
  C   C1734     1.0  0.65722  0.06605  0.65317  1.0000
  C   C1735     1.0  0.66087  0.18772  0.73480  1.0000
  C   C1736     1.0  0.65805  0.12427  0.77049  1.0000
  C   C1737     1.0  0.66197  0.07130  0.67317  1.0000
  H   H1392     1.0  0.66104  0.16254  0.54525  1.0000
  H   H1393     1.0  0.66115  0.08384  0.67139  1.0000
  C   C1738     1.0  0.66082  0.22360  0.59925  1.0000
  C   C1739     1.0  0.33892  0.00614  0.72955  1.0000
  H   H1394     1.0  0.45744  0.99005  0.58493  1.0000
  C   C1740     1.0  0.65891  0.15279  0.56219  1.0000
  H   H1395     1.0  0.65256  0.14192  0.70327  1.0000
  C   C1741     1.0  0.66115  0.15356  0.58746  1.0000
  C   C1742     1.0  0.65792  0.17989  0.64183  1.0000
  H   H1396     1.0  0.48581  0.20676  0.97605  1.0000
  H   H1397     1.0  0.45293  0.18696  0.98153  1.0000
  H   H1398     1.0  0.34383  0.28177  0.07006  1.0000
  C   C1743     1.0  0.47383  0.32284  0.08223  1.0000
  C   C1744     1.0  0.48583  0.28727  0.06965  1.0000
  H   H1399     1.0  0.37037  0.39384  0.99050  1.0000
  S   S243      1.0  0.35501  0.26681  0.02455  1.0000
  C   C1745     1.0  0.37831  0.38158  0.11951  1.0000
  Fe  Fe126     1.0  0.53986  0.32696  0.16820  1.0000
  S   S244      1.0  0.57071  0.33245  0.14724  1.0000
  S   S245      1.0  0.51052  0.34480  0.16905  1.0000
  H   H1400     1.0  0.63749  0.32377  0.22631  1.0000
  S   S246      1.0  0.55032  0.31354  0.20620  1.0000
  Fe  Fe127     1.0  0.36476  0.31455  0.16109  1.0000
  S   S247      1.0  0.37367  0.28975  0.15360  1.0000
  C   C1746     1.0  0.41715  0.24278  0.45240  1.0000
  Fe  Fe128     1.0  0.40907  0.31867  0.15185  1.0000
  S   S248      1.0  0.42133  0.29451  0.14343  1.0000
  S   S249      1.0  0.42583  0.33762  0.15190  1.0000
  Fe  Fe129     1.0  0.39689  0.29981  0.11956  1.0000
  S   S250      1.0  0.40704  0.29398  0.07872  1.0000
  Fe  Fe130     1.0  0.39727  0.28638  0.17795  1.0000
  S   S251      1.0  0.40743  0.26489  0.20854  1.0000
  S   S252      1.0  0.38637  0.32482  0.12507  1.0000
  S   S253      1.0  0.38671  0.31023  0.18838  1.0000
  C   C1747     1.0  0.36922  0.27416  0.04031  1.0000
  C   C1748     1.0  0.39003  0.27319  0.03065  1.0000
  C   C1749     1.0  0.40140  0.27927  0.04273  1.0000
  C   C1750     1.0  0.39219  0.28603  0.06495  1.0000
  C   C1751     1.0  0.37147  0.28667  0.07514  1.0000
  C   C1752     1.0  0.35992  0.28096  0.06256  1.0000
  H   H1401     1.0  0.57427  0.24559  0.47018  1.0000
  H   H1402     1.0  0.36434  0.29200  0.09213  1.0000
  C   C1753     1.0  0.48749  0.34123  0.16517  1.0000
  C   C1754     1.0  0.47062  0.35347  0.16695  1.0000
  C   C1755     1.0  0.45201  0.35180  0.16341  1.0000
  C   C1756     1.0  0.44975  0.33783  0.15805  1.0000
  C   C1757     1.0  0.46658  0.32536  0.15632  1.0000
  C   C1758     1.0  0.48543  0.32702  0.16005  1.0000
  H   H1403     1.0  0.47199  0.36446  0.17082  1.0000
  H   H1404     1.0  0.43928  0.36155  0.16453  1.0000
  H   H1405     1.0  0.46532  0.31479  0.15095  1.0000
  H   H1406     1.0  0.49842  0.31755  0.15835  1.0000
  C   C1759     1.0  0.44698  0.24017  0.29199  1.0000
  C   C1760     1.0  0.65686  0.26702  0.17350  1.0000
  C   C1761     1.0  0.37313  0.25252  0.21662  1.0000
  C   C1762     1.0  0.39074  0.25187  0.22541  1.0000
  H   H1407     1.0  0.33503  0.29177  0.12677  1.0000
  H   H1408     1.0  0.46907  0.28821  0.10983  1.0000
  C   C1763     1.0  0.52646  0.31316  0.99230  1.0000
  H   H1409     1.0  0.36976  0.26108  0.19887  1.0000
  H   H1410     1.0  0.36856  0.24986  0.12124  1.0000
  C   C1764     1.0  0.63894  0.31811  0.13766  1.0000
  C   C1765     1.0  0.47747  0.26060  0.15663  1.0000
  C   C1766     1.0  0.36481  0.35867  0.14676  1.0000
  H   H1411     1.0  0.56492  0.27060  0.32426  1.0000
  C   C1767     1.0  0.48700  0.28168  0.04667  1.0000
  H   H1412     1.0  0.50370  0.36909  0.32893  1.0000
  C   C1768     1.0  0.49442  0.31609  0.08103  1.0000
  H   H1413     1.0  0.52515  0.35472  0.29491  1.0000
  C   C1769     1.0  0.61799  0.33636  0.19849  1.0000
  H   H1414     1.0  0.63575  0.24496  0.21806  1.0000
  C   C1770     1.0  0.62386  0.24402  0.20899  1.0000
  H   H1415     1.0  0.44347  0.27378  0.10754  1.0000
  C   C1771     1.0  0.60622  0.24463  0.46743  1.0000
  H   H1416     1.0  0.64125  0.28701  0.13096  1.0000
  C   C1772     1.0  0.46143  0.25563  0.17632  1.0000
  H   H1417     1.0  0.58582  0.25071  0.12448  1.0000
  H   H1418     1.0  0.37798  0.32458  0.06381  1.0000
  H   H1419     1.0  0.36169  0.37330  0.03049  1.0000
  H   H1420     1.0  0.35620  0.42222  0.99054  1.0000
  C   C1773     1.0  0.35189  0.36069  0.12915  1.0000
  H   H1421     1.0  0.44488  0.26521  0.06628  1.0000
  C   C1774     1.0  0.35933  0.34641  0.07299  1.0000
  C   C1775     1.0  0.39535  0.24055  0.24807  1.0000
  H   H1422     1.0  0.47286  0.26996  0.02743  1.0000
  C   C1776     1.0  0.63971  0.26093  0.08341  1.0000
  H   H1423     1.0  0.35931  0.24712  0.17038  1.0000
  C   C1777     1.0  0.64345  0.25380  0.10904  1.0000
  C   C1778     1.0  0.51373  0.31010  0.01735  1.0000
  H   H1424     1.0  0.33322  0.42998  0.03110  1.0000
  C   C1779     1.0  0.36027  0.39724  0.00815  1.0000
  C   C1780     1.0  0.60994  0.24666  0.16997  1.0000
  C   C1781     1.0  0.47010  0.28428  0.09172  1.0000
  C   C1782     1.0  0.64894  0.28738  0.19940  1.0000
  C   C1783     1.0  0.60646  0.23903  0.22550  1.0000
  H   H1425     1.0  0.58006  0.24136  0.17798  1.0000
  C   C1784     1.0  0.36490  0.23883  0.13399  1.0000
  C   C1785     1.0  0.46609  0.33749  0.08942  1.0000
  C   C1786     1.0  0.66257  0.33356  0.09198  1.0000
  H   H1426     1.0  0.35258  0.30931  0.24901  1.0000
  C   C1787     1.0  0.41732  0.24417  0.32711  1.0000
  C   C1788     1.0  0.58948  0.27010  0.05946  1.0000
  S   S254      1.0  0.55192  0.24998  0.02719  1.0000
  H   H1427     1.0  0.40861  0.25039  0.34261  1.0000
  H   H1428     1.0  0.61797  0.37466  0.16481  1.0000
  P   P55       1.0  0.33577  0.37508  0.08356  1.0000
  H   H1429     1.0  0.63813  0.25380  0.07052  1.0000
  C   C1789     1.0  0.52416  0.27608  0.14246  1.0000
  H   H1430     1.0  0.57957  0.25810  0.28149  1.0000
  H   H1431     1.0  0.64688  0.38434  0.13082  1.0000
  H   H1432     1.0  0.52738  0.24244  0.46529  1.0000
  C   C1790     1.0  0.57361  0.24734  0.39729  1.0000
  H   H1433     1.0  0.36309  0.28528  0.22992  1.0000
  C   C1791     1.0  0.34003  0.35613  0.07455  1.0000
  C   C1792     1.0  0.55554  0.29980  0.01227  1.0000
  H   H1434     1.0  0.57184  0.36690  0.19822  1.0000
  H   H1435     1.0  0.58024  0.28579  0.28035  1.0000
  C   C1793     1.0  0.54753  0.26079  0.24057  1.0000
  C   C1794     1.0  0.63816  0.36184  0.19165  1.0000
  H   H1436     1.0  0.46363  0.31687  0.07781  1.0000
  C   C1795     1.0  0.50723  0.32439  0.08639  1.0000
  C   C1796     1.0  0.56257  0.26438  0.25001  1.0000
  H   H1437     1.0  0.44063  0.25800  0.31555  1.0000
  H   H1438     1.0  0.45004  0.34240  0.09133  1.0000
  C   C1797     1.0  0.56516  0.29034  0.29038  1.0000
  C   C1798     1.0  0.55657  0.28185  0.31514  1.0000
  C   C1799     1.0  0.53702  0.28766  0.32778  1.0000
  C   C1800     1.0  0.52604  0.30196  0.31569  1.0000
  C   C1801     1.0  0.53462  0.31060  0.29086  1.0000
  C   C1802     1.0  0.55415  0.30450  0.27807  1.0000
  P   P56       1.0  0.51984  0.32846  0.27439  1.0000
  C   C1803     1.0  0.50359  0.32317  0.25759  1.0000
  C   C1804     1.0  0.50430  0.33919  0.29933  1.0000
  C   C1805     1.0  0.48553  0.33527  0.31323  1.0000
  C   C1806     1.0  0.47342  0.34349  0.33257  1.0000
  C   C1807     1.0  0.47996  0.35568  0.33823  1.0000
  C   C1808     1.0  0.49863  0.35963  0.32457  1.0000
  C   C1809     1.0  0.51078  0.35142  0.30521  1.0000
  C   C1810     1.0  0.50831  0.30841  0.25044  1.0000
  C   C1811     1.0  0.49650  0.30492  0.23564  1.0000
  C   C1812     1.0  0.47961  0.31595  0.22853  1.0000
  C   C1813     1.0  0.47461  0.33054  0.23596  1.0000
  C   C1814     1.0  0.48657  0.33419  0.25037  1.0000
  C   C1815     1.0  0.53614  0.34093  0.25040  1.0000
  C   C1816     1.0  0.55412  0.34250  0.25627  1.0000
  C   C1817     1.0  0.56694  0.35182  0.23747  1.0000
  C   C1818     1.0  0.56183  0.35978  0.21282  1.0000
  C   C1819     1.0  0.54398  0.35835  0.20685  1.0000
  C   C1820     1.0  0.53114  0.34905  0.22556  1.0000
  H   H1439     1.0  0.54454  0.25395  0.15186  1.0000
  H   H1440     1.0  0.37155  0.34984  0.07814  1.0000
  H   H1441     1.0  0.53031  0.28097  0.34682  1.0000
  H   H1442     1.0  0.51083  0.30610  0.32565  1.0000
  H   H1443     1.0  0.56094  0.31052  0.25847  1.0000
  H   H1444     1.0  0.48021  0.32584  0.30914  1.0000
  H   H1445     1.0  0.45893  0.34043  0.34315  1.0000
  H   H1446     1.0  0.47054  0.36207  0.35319  1.0000
  H   H1447     1.0  0.52155  0.29979  0.25521  1.0000
  H   H1448     1.0  0.50090  0.29386  0.22897  1.0000
  H   H1449     1.0  0.47066  0.31347  0.21659  1.0000
  H   H1450     1.0  0.46189  0.33925  0.22961  1.0000
  H   H1451     1.0  0.48293  0.34579  0.25507  1.0000
  H   H1452     1.0  0.55841  0.33636  0.27520  1.0000
  H   H1453     1.0  0.58108  0.35265  0.24173  1.0000
  C   C1821     1.0  0.37821  0.36897  0.14177  1.0000
  H   H1454     1.0  0.51761  0.34801  0.22010  1.0000
  H   H1455     1.0  0.54956  0.29084  0.05460  1.0000
  H   H1456     1.0  0.35073  0.31655  0.05074  1.0000
  C   C1822     1.0  0.54189  0.24019  0.28079  1.0000
  H   H1457     1.0  0.49951  0.28289  0.02987  1.0000
  H   H1458     1.0  0.52192  0.27855  0.16211  1.0000
  H   H1459     1.0  0.41744  0.27871  0.03480  1.0000
  H   H1460     1.0  0.63486  0.29942  0.08548  1.0000
  H   H1461     1.0  0.61079  0.24970  0.14864  1.0000
  Fe  Fe131     1.0  0.58167  0.31703  0.18395  1.0000
  S   S255      1.0  0.58812  0.30707  0.09165  1.0000
  H   H1462     1.0  0.54979  0.24818  0.10680  1.0000
  H   H1463     1.0  0.45366  0.26241  0.19135  1.0000
  H   H1464     1.0  0.38874  0.36699  0.15494  1.0000
  H   H1465     1.0  0.60106  0.35213  0.16987  1.0000
  C   C1823     1.0  0.64189  0.24963  0.41346  1.0000
  P   P57       1.0  0.50492  0.29723  0.07186  1.0000
  H   H1466     1.0  0.66256  0.26436  0.38775  1.0000
  C   C1824     1.0  0.34218  0.38990  0.05387  1.0000
  C   C1825     1.0  0.52179  0.30146  0.03993  1.0000
  C   C1826     1.0  0.53733  0.24860  0.25585  1.0000
  S   S256      1.0  0.54187  0.27078  0.20920  1.0000
  H   H1467     1.0  0.62948  0.31255  0.15555  1.0000
  H   H1468     1.0  0.58441  0.27771  0.13009  1.0000
  H   H1469     1.0  0.61707  0.32167  0.11299  1.0000
  C   C1827     1.0  0.54284  0.29679  0.03736  1.0000
  H   H1470     1.0  0.56573  0.25875  0.38819  1.0000
  H   H1471     1.0  0.50477  0.29760  0.12777  1.0000
  H   H1472     1.0  0.63177  0.25940  0.42132  1.0000
  H   H1473     1.0  0.36478  0.34881  0.16392  1.0000
  H   H1474     1.0  0.40392  0.26225  0.11345  1.0000
  H   H1475     1.0  0.63788  0.29509  0.21108  1.0000
  S   S257      1.0  0.64951  0.37844  0.18801  1.0000
  C   C1828     1.0  0.54735  0.30787  0.98971  1.0000
  C   C1829     1.0  0.63709  0.27736  0.07477  1.0000
  C   C1830     1.0  0.41167  0.25010  0.11373  1.0000
  H   H1476     1.0  0.49755  0.31422  0.01910  1.0000
  H   H1477     1.0  0.47272  0.35669  0.10146  1.0000
  H   H1478     1.0  0.52572  0.24576  0.24853  1.0000
  C   C1831     1.0  0.53025  0.26962  0.09178  1.0000
  C   C1832     1.0  0.53981  0.25890  0.11144  1.0000
  H   H1479     1.0  0.59077  0.29497  0.04520  1.0000
  C   C1833     1.0  0.64352  0.34737  0.20896  1.0000
  S   S258      1.0  0.58824  0.29425  0.16934  1.0000
  C   C1834     1.0  0.35182  0.37330  0.10680  1.0000
  H   H1480     1.0  0.54016  0.36422  0.18750  1.0000
  C   C1835     1.0  0.63347  0.33475  0.21239  1.0000
  C   C1836     1.0  0.62583  0.24774  0.18104  1.0000
  C   C1837     1.0  0.61285  0.35072  0.18081  1.0000
  H   H1481     1.0  0.62655  0.27734  0.19151  1.0000
  C   C1838     1.0  0.55696  0.24375  0.29023  1.0000
  P   P58       1.0  0.64870  0.25360  0.15973  1.0000
  C   C1839     1.0  0.47203  0.27407  0.04530  1.0000
  Fe  Fe132     1.0  0.55596  0.29228  0.18848  1.0000
  C   C1840     1.0  0.63188  0.32335  0.11372  1.0000
  C   C1841     1.0  0.56749  0.25566  0.27458  1.0000
  H   H1482     1.0  0.59092  0.26794  0.03980  1.0000
  H   H1483     1.0  0.33663  0.24729  0.46794  1.0000
  C   C1842     1.0  0.58843  0.25758  0.08185  1.0000
  C   C1843     1.0  0.58592  0.27567  0.11038  1.0000
  H   H1484     1.0  0.63359  0.28296  0.05520  1.0000
  C   C1844     1.0  0.64260  0.27720  0.18837  1.0000
  H   H1485     1.0  0.48239  0.27124  0.15647  1.0000
  H   H1486     1.0  0.38883  0.38949  0.11561  1.0000
  C   C1845     1.0  0.51466  0.28693  0.12278  1.0000
  C   C1846     1.0  0.48662  0.25212  0.13659  1.0000
  C   C1847     1.0  0.63785  0.28665  0.09193  1.0000
  H   H1487     1.0  0.53246  0.26678  0.07241  1.0000
  H   H1488     1.0  0.57073  0.27360  0.23808  1.0000
  C   C1848     1.0  0.62256  0.36346  0.17788  1.0000
  H   H1489     1.0  0.41222  0.25548  0.44701  1.0000
  H   H1490     1.0  0.50937  0.24004  0.00270  1.0000
  C   C1849     1.0  0.58749  0.28815  0.08801  1.0000
  H   H1491     1.0  0.63800  0.33535  0.07244  1.0000
  C   C1850     1.0  0.64444  0.26304  0.12636  1.0000
  C   C1851     1.0  0.53685  0.26214  0.13674  1.0000
  C   C1852     1.0  0.58938  0.28534  0.06252  1.0000
  Fe  Fe133     1.0  0.57535  0.30955  0.13412  1.0000
  C   C1853     1.0  0.35230  0.41322  0.00818  1.0000
  S   S259      1.0  0.54382  0.30563  0.15177  1.0000
  C   C1854     1.0  0.34740  0.29130  0.23256  1.0000
  C   C1855     1.0  0.58681  0.26038  0.10720  1.0000
  H   H1492     1.0  0.39733  0.26799  0.01352  1.0000
  C   C1856     1.0  0.51787  0.28385  0.09713  1.0000
  H   H1493     1.0  0.64509  0.24111  0.11559  1.0000
  H   H1494     1.0  0.58897  0.25716  0.41782  1.0000
  H   H1495     1.0  0.50923  0.34513  0.09861  1.0000
  H   H1496     1.0  0.65623  0.35531  0.13788  1.0000
  H   H1497     1.0  0.66241  0.31700  0.15795  1.0000
  C   C1857     1.0  0.42390  0.24241  0.13248  1.0000
  P   P59       1.0  0.47010  0.24607  0.27179  1.0000
  C   C1858     1.0  0.48314  0.25084  0.29355  1.0000
  C   C1859     1.0  0.46380  0.26319  0.24575  1.0000
  C   C1860     1.0  0.47905  0.26935  0.22551  1.0000
  C   C1861     1.0  0.47405  0.28288  0.20600  1.0000
  C   C1862     1.0  0.45380  0.29023  0.20637  1.0000
  C   C1863     1.0  0.43859  0.28408  0.22613  1.0000
  C   C1864     1.0  0.44349  0.27061  0.24564  1.0000
  C   C1865     1.0  0.49312  0.26379  0.28528  1.0000
  C   C1866     1.0  0.50346  0.26698  0.30227  1.0000
  C   C1867     1.0  0.50365  0.25745  0.32783  1.0000
  C   C1868     1.0  0.49320  0.24492  0.33655  1.0000
  C   C1869     1.0  0.48311  0.24155  0.31951  1.0000
  H   H1498     1.0  0.57174  0.29580  0.01030  1.0000
  C   C1870     1.0  0.43553  0.24835  0.31188  1.0000
  C   C1871     1.0  0.45557  0.27615  0.09056  1.0000
  C   C1872     1.0  0.45638  0.27124  0.06726  1.0000
  C   C1873     1.0  0.64133  0.27956  0.11774  1.0000
  C   C1874     1.0  0.36311  0.33214  0.06464  1.0000
  S   S260      1.0  0.60500  0.32036  0.20500  1.0000
  H   H1499     1.0  0.42521  0.24880  0.14661  1.0000
  C   C1875     1.0  0.49943  0.33904  0.09355  1.0000
  H   H1500     1.0  0.36565  0.39354  0.08488  1.0000
  H   H1501     1.0  0.52320  0.31942  0.08545  1.0000
  H   H1502     1.0  0.49483  0.26377  0.22490  1.0000
  H   H1503     1.0  0.48586  0.28771  0.19065  1.0000
  H   H1504     1.0  0.44969  0.30060  0.19130  1.0000
  H   H1505     1.0  0.42286  0.28956  0.22599  1.0000
  H   H1506     1.0  0.43122  0.26601  0.26027  1.0000
  H   H1507     1.0  0.49349  0.27127  0.26561  1.0000
  H   H1508     1.0  0.51185  0.27655  0.29530  1.0000
  H   H1509     1.0  0.51207  0.25963  0.34078  1.0000
  C   C1876     1.0  0.36511  0.38381  0.10211  1.0000
  H   H1510     1.0  0.49852  0.25619  0.12067  1.0000
  C   C1877     1.0  0.47887  0.34558  0.09508  1.0000
  H   H1511     1.0  0.34625  0.24266  0.22414  1.0000
  C   C1878     1.0  0.45471  0.24215  0.17622  1.0000
  H   H1512     1.0  0.65495  0.34609  0.22038  1.0000
  C   C1879     1.0  0.34776  0.32757  0.05734  1.0000
  Fe  Fe134     1.0  0.37407  0.24502  0.01086  1.0000
  C   C1880     1.0  0.65782  0.32051  0.13884  1.0000
  C   C1881     1.0  0.64373  0.33101  0.09084  1.0000
  C   C1882     1.0  0.58669  0.24636  0.41420  1.0000
  H   H1513     1.0  0.48358  0.23998  0.21687  1.0000
  C   C1883     1.0  0.35998  0.24203  0.23081  1.0000
  C   C1884     1.0  0.35527  0.38560  0.03091  1.0000
  C   C1885     1.0  0.58544  0.24981  0.47624  1.0000
  H   H1514     1.0  0.40033  0.24829  0.08044  1.0000
  C   C1886     1.0  0.33434  0.40599  0.05381  1.0000
  H   H1515     1.0  0.44174  0.23897  0.19128  1.0000
  C   C1887     1.0  0.40964  0.24225  0.09515  1.0000
  H   H1516     1.0  0.63627  0.24487  0.47191  1.0000
  C   C1888     1.0  0.34146  0.30477  0.24349  1.0000
  H   H1517     1.0  0.34209  0.35228  0.13275  1.0000
  H   H1518     1.0  0.43038  0.24035  0.41182  1.0000
  C   C1889     1.0  0.62022  0.24935  0.47738  1.0000
  C   C1890     1.0  0.66153  0.37889  0.12094  1.0000
  C   C1891     1.0  0.65925  0.25252  0.39426  1.0000
  C   C1892     1.0  0.47970  0.23878  0.13608  1.0000
  H   H1519     1.0  0.40907  0.23996  0.25469  1.0000
  H   H1520     1.0  0.33803  0.27548  0.21576  1.0000
  C   C1893     1.0  0.33936  0.41759  0.03102  1.0000
  S   S261      1.0  0.33317  0.32717  0.17725  1.0000
  C   C1894     1.0  0.33319  0.28575  0.22458  1.0000
  C   C1895     1.0  0.59249  0.24181  0.18655  1.0000
  C   C1896     1.0  0.49397  0.23823  0.00988  1.0000
  C   C1897     1.0  0.59083  0.23791  0.21425  1.0000
  H   H1521     1.0  0.49296  0.23767  0.35652  1.0000
  S   S262      1.0  0.59040  0.23806  0.07899  1.0000
  C   C1898     1.0  0.48256  0.23766  0.99178  1.0000
  C   C1899     1.0  0.35952  0.23732  0.16169  1.0000
  H   H1522     1.0  0.59963  0.26246  0.60648  1.0000
  Fe  Fe135     1.0  0.33351  0.23861  0.55803  1.0000
  H   H1523     1.0  0.47517  0.24993  0.93135  1.0000
  C   C1900     1.0  0.42882  0.26463  0.91361  1.0000
  C   C1901     1.0  0.58406  0.27282  0.64043  1.0000
  C   C1902     1.0  0.54651  0.24649  0.69357  1.0000
  H   H1524     1.0  0.57302  0.27455  0.58025  1.0000
  H   H1525     1.0  0.62963  0.28970  0.71177  1.0000
  H   H1526     1.0  0.56437  0.28533  0.67025  1.0000
  C   C1903     1.0  0.65089  0.27449  0.59932  1.0000
  C   C1904     1.0  0.58622  0.27007  0.61484  1.0000
  C   C1905     1.0  0.48215  0.25643  0.91234  1.0000
  H   H1527     1.0  0.38691  0.25706  0.62876  1.0000
  C   C1906     1.0  0.33912  0.25864  0.96243  1.0000
  C   C1907     1.0  0.60073  0.28364  0.73234  1.0000
  H   H1528     1.0  0.35255  0.25832  0.92120  1.0000
  C   C1908     1.0  0.51085  0.26790  0.88564  1.0000
  H   H1529     1.0  0.62947  0.24726  0.73329  1.0000
  C   C1909     1.0  0.58538  0.27127  0.70879  1.0000
  C   C1910     1.0  0.36988  0.26130  0.59790  1.0000
  C   C1911     1.0  0.57882  0.26002  0.49405  1.0000
  H   H1530     1.0  0.53774  0.29720  0.64401  1.0000
  H   H1531     1.0  0.54177  0.29187  0.59896  1.0000
  H   H1532     1.0  0.34920  0.26434  0.57181  1.0000
  C   C1912     1.0  0.43215  0.27622  0.82166  1.0000
  H   H1533     1.0  0.34616  0.26812  0.96302  1.0000
  C   C1913     1.0  0.39650  0.28193  0.94473  1.0000
  H   H1534     1.0  0.65341  0.25574  0.53503  1.0000
  C   C1914     1.0  0.40929  0.26859  0.90771  1.0000
  H   H1535     1.0  0.52012  0.31953  0.97485  1.0000
  H   H1536     1.0  0.63083  0.27968  0.67219  1.0000
  H   H1537     1.0  0.56275  0.26370  0.50124  1.0000
  S   S263      1.0  0.61457  0.24943  0.56163  1.0000
  P   P60       1.0  0.44958  0.25383  0.89282  1.0000
  H   H1538     1.0  0.58464  0.24434  0.89569  1.0000
  H   H1539     1.0  0.42166  0.26651  0.79530  1.0000
  C   C1915     1.0  0.43178  0.26932  0.93556  1.0000
  C   C1916     1.0  0.43051  0.24861  0.82866  1.0000
  H   H1540     1.0  0.61941  0.28434  0.61016  1.0000
  H   H1541     1.0  0.33529  0.27526  0.67870  1.0000
  C   C1917     1.0  0.44255  0.25745  0.86068  1.0000
  H   H1542     1.0  0.47851  0.26850  0.84670  1.0000
  C   C1918     1.0  0.43802  0.24528  0.85212  1.0000
  C   C1919     1.0  0.35097  0.26222  0.59233  1.0000
  C   C1920     1.0  0.55135  0.28969  0.63578  1.0000
  H   H1543     1.0  0.45407  0.24777  0.66246  1.0000
  C   C1921     1.0  0.42768  0.26403  0.81335  1.0000
  H   H1544     1.0  0.64756  0.25226  0.78535  1.0000
  C   C1922     1.0  0.37216  0.25815  0.62441  1.0000
  C   C1923     1.0  0.60178  0.27229  0.68706  1.0000
  H   H1545     1.0  0.44203  0.28264  0.85216  1.0000
  C   C1924     1.0  0.41571  0.27788  0.95102  1.0000
  H   H1546     1.0  0.37832  0.28019  0.91847  1.0000
  H   H1547     1.0  0.49806  0.25166  0.81220  1.0000
  C   C1925     1.0  0.61767  0.27913  0.68822  1.0000
  H   H1548     1.0  0.50616  0.24453  0.56986  1.0000
  H   H1549     1.0  0.65334  0.28348  0.58121  1.0000
  H   H1550     1.0  0.58773  0.27230  0.51811  1.0000
  H   H1551     1.0  0.57240  0.27552  0.74827  1.0000
  H   H1552     1.0  0.40627  0.26481  0.89145  1.0000
  H   H1553     1.0  0.33688  0.28095  0.72121  1.0000
  C   C1926     1.0  0.34271  0.25310  0.93896  1.0000
  C   C1927     1.0  0.56655  0.28285  0.65071  1.0000
  S   S264      1.0  0.57447  0.24626  0.95111  1.0000
  C   C1928     1.0  0.59285  0.26487  0.50354  1.0000
  C   C1929     1.0  0.64449  0.25082  0.64552  1.0000
  H   H1554     1.0  0.38403  0.28828  0.95716  1.0000
  H   H1555     1.0  0.62435  0.26291  0.50329  1.0000
  C   C1930     1.0  0.57111  0.27696  0.59990  1.0000
  H   H1556     1.0  0.34772  0.25600  0.85636  1.0000
  H   H1557     1.0  0.51122  0.27552  0.84345  1.0000
  C   C1931     1.0  0.66370  0.25064  0.62929  1.0000
  C   C1932     1.0  0.33648  0.25700  0.63991  1.0000
  H   H1558     1.0  0.42972  0.28821  0.80994  1.0000
  C   C1933     1.0  0.47340  0.25974  0.88975  1.0000
  H   H1559     1.0  0.50693  0.25849  0.92806  1.0000
  H   H1560     1.0  0.38287  0.26257  0.58172  1.0000
  H   H1561     1.0  0.38785  0.25122  0.86467  1.0000
  H   H1562     1.0  0.54774  0.25869  0.69076  1.0000
  H   H1563     1.0  0.41814  0.28110  0.96824  1.0000
  H   H1564     1.0  0.60050  0.28772  0.75003  1.0000
  C   C1934     1.0  0.39330  0.27731  0.92304  1.0000
  C   C1935     1.0  0.43930  0.27299  0.84542  1.0000
  H   H1565     1.0  0.35811  0.25217  0.66571  1.0000
  H   H1566     1.0  0.44626  0.26623  0.94137  1.0000
  S   S265      1.0  0.39366  0.24314  0.97062  1.0000
  H   H1567     1.0  0.52551  0.27066  0.88410  1.0000
  C   C1936     1.0  0.62825  0.26279  0.63858  1.0000
  C   C1937     1.0  0.35567  0.25560  0.64536  1.0000
  H   H1568     1.0  0.55722  0.31005  0.97026  1.0000
  C   C1938     1.0  0.57047  0.24033  0.90441  1.0000
  H   H1569     1.0  0.57335  0.26551  0.70878  1.0000
  C   C1939     1.0  0.58487  0.27687  0.73133  1.0000
  C   C1940     1.0  0.50277  0.27062  0.86279  1.0000
  C   C1941     1.0  0.55360  0.28670  0.61043  1.0000
  H   H1570     1.0  0.54338  0.24899  0.65290  1.0000
  C   C1942     1.0  0.49861  0.24686  0.77413  1.0000
  C   C1943     1.0  0.33439  0.25995  0.61324  1.0000
  S   S266      1.0  0.36487  0.24019  0.53451  1.0000
  C   C1944     1.0  0.61710  0.28480  0.71077  1.0000
  C   C1945     1.0  0.61354  0.25956  0.49515  1.0000
  P   P61       1.0  0.60351  0.26301  0.65972  1.0000
  C   C1946     1.0  0.63163  0.27481  0.61563  1.0000
  C   C1947     1.0  0.48410  0.26661  0.86480  1.0000
  C   C1948     1.0  0.50043  0.26095  0.91044  1.0000
  H   H1571     1.0  0.34004  0.24616  0.82114  1.0000
  H   H1572     1.0  0.50605  0.25660  0.76266  1.0000
  C   C1949     1.0  0.49413  0.24408  0.80204  1.0000
  H   H1573     1.0  0.38583  0.24011  0.91356  1.0000
  H   H1574     1.0  0.40435  0.24129  0.49427  1.0000
  C   C1950     1.0  0.38550  0.23921  0.87308  1.0000
  C   C1951     1.0  0.65537  0.24671  0.55288  1.0000
  S   S267      1.0  0.55774  0.24467  0.57784  1.0000
  C   C1952     1.0  0.54411  0.24100  0.67212  1.0000
  C   C1953     1.0  0.33427  0.24041  0.93863  1.0000
  C   C1954     1.0  0.56193  0.24013  0.93147  1.0000
  C   C1955     1.0  0.65773  0.24296  0.79603  1.0000
  S   S268      1.0  0.55041  0.24330  0.74521  1.0000
  C   C1956     1.0  0.45877  0.24075  0.68076  1.0000
  C   C1957     1.0  0.63857  0.24109  0.57001  1.0000
  H   H1575     1.0  0.42629  0.23930  0.82277  1.0000
  H   H1576     1.0  0.42830  0.24016  0.70285  1.0000
  C   C1958     1.0  0.60043  0.24273  0.67353  1.0000
  H   H1577     1.0  0.60737  0.24171  0.71181  1.0000
  H   H1578     1.0  0.64242  0.24158  0.66340  1.0000
  H   H1579     1.0  0.48952  0.23857  0.97087  1.0000
  H   H1580     1.0  0.59434  0.23873  0.63770  1.0000
  S   S269      1.0  0.53723  0.23933  0.51656  1.0000
  S   S270      1.0  0.38336  0.23835  0.82211  1.0000
  H   H1581     1.0  0.49068  0.23950  0.66432  1.0000
  H   H1582     1.0  0.49837  0.23898  0.73935  1.0000
  H   H1583     1.0  0.50590  0.23774  0.61847  1.0000
  C   C1959     1.0  0.34119  0.65022  0.56853  1.0000
  C   C1960     1.0  0.64077  0.71092  0.68844  1.0000
  C   C1961     1.0  0.34084  0.73630  0.76472  1.0000
  H   H1584     1.0  0.65249  0.70327  0.75417  1.0000
  H   H1585     1.0  0.35222  0.71584  0.89502  1.0000
  H   H1586     1.0  0.37252  0.72517  0.79640  1.0000
  H   H1587     1.0  0.58600  0.66904  0.81262  1.0000
  H   H1588     1.0  0.56750  0.66785  0.77886  1.0000
  H   H1589     1.0  0.62215  0.67054  0.79978  1.0000
  C   C1962     1.0  0.58347  0.66834  0.77316  1.0000
  H   H1590     1.0  0.36081  0.72723  0.84686  1.0000
  C   C1963     1.0  0.37748  0.73621  0.79364  1.0000
  C   C1964     1.0  0.66512  0.66743  0.79501  1.0000
  C   C1965     1.0  0.59391  0.66899  0.79218  1.0000
  H   H1591     1.0  0.40875  0.72632  0.77974  1.0000
  C   C1966     1.0  0.65761  0.69458  0.77084  1.0000
  C   C1967     1.0  0.65848  0.67842  0.77304  1.0000
  H   H1592     1.0  0.35616  0.64660  0.55718  1.0000
  C   C1968     1.0  0.62470  0.67004  0.75824  1.0000
  H   H1593     1.0  0.58545  0.66811  0.73192  1.0000
  C   C1969     1.0  0.59358  0.66848  0.74672  1.0000
  C   C1970     1.0  0.34070  0.72392  0.88495  1.0000
  H   H1594     1.0  0.61253  0.73655  0.76921  1.0000
  C   C1971     1.0  0.61445  0.66984  0.78479  1.0000
  H   H1595     1.0  0.62894  0.72127  0.68524  1.0000
  C   C1972     1.0  0.61412  0.66933  0.73926  1.0000
  H   H1596     1.0  0.62172  0.66959  0.71862  1.0000
  H   H1597     1.0  0.34697  0.63402  0.60521  1.0000
  H   H1598     1.0  0.34299  0.72754  0.72961  1.0000
  H   H1599     1.0  0.62462  0.70107  0.72693  1.0000
  C   C1973     1.0  0.63839  0.69940  0.71208  1.0000
  C   C1974     1.0  0.65389  0.68616  0.71674  1.0000
  P   P62       1.0  0.65102  0.67178  0.74805  1.0000
  C   C1975     1.0  0.34552  0.73042  0.85756  1.0000
  H   H1600     1.0  0.64907  0.73056  0.74812  1.0000
  H   H1601     1.0  0.64233  0.64150  0.74447  1.0000
  C   C1976     1.0  0.66402  0.69964  0.78976  1.0000
  H   H1602     1.0  0.66386  0.71212  0.78748  1.0000
  C   C1977     1.0  0.65838  0.64014  0.74333  1.0000
  H   H1603     1.0  0.66094  0.71888  0.65181  1.0000
  C   C1978     1.0  0.65879  0.70955  0.66954  1.0000
  C   C1979     1.0  0.33602  0.64314  0.59559  1.0000
  C   C1980     1.0  0.33514  0.72773  0.75004  1.0000
  H   H1604     1.0  0.66553  0.65492  0.79740  1.0000
  H   H1605     1.0  0.66424  0.61572  0.74027  1.0000
  C   C1981     1.0  0.39804  0.73676  0.78441  1.0000
  H   H1606     1.0  0.39793  0.81702  0.38003  1.0000
  Fe  Fe136     1.0  0.55767  0.87930  0.11435  1.0000
  S   S271      1.0  0.57658  0.89762  0.10870  1.0000
  S   S272      1.0  0.54421  0.86303  0.15129  1.0000
  Fe  Fe137     1.0  0.55631  0.88529  0.05504  1.0000
  S   S273      1.0  0.57519  0.90399  0.04401  1.0000
  S   S274      1.0  0.54170  0.87632  0.02942  1.0000
  Fe  Fe138     1.0  0.59417  0.88772  0.07277  1.0000
  S   S275      1.0  0.62773  0.88445  0.05568  1.0000
  Fe  Fe139     1.0  0.55631  0.91244  0.08046  1.0000
  S   S276      1.0  0.54181  0.93819  0.07511  1.0000
  S   S277      1.0  0.57687  0.86818  0.08065  1.0000
  S   S278      1.0  0.53588  0.89503  0.08932  1.0000
  Fe  Fe140     1.0  0.55886  0.86461  0.28893  1.0000
  S   S279      1.0  0.59199  0.86000  0.27077  1.0000
  S   S280      1.0  0.53165  0.87087  0.26983  1.0000
  Fe  Fe141     1.0  0.56588  0.85916  0.34540  1.0000
  S   S281      1.0  0.59956  0.85371  0.33272  1.0000
  S   S282      1.0  0.54895  0.86002  0.38723  1.0000
  Fe  Fe142     1.0  0.59455  0.87427  0.29874  1.0000
  S   S283      1.0  0.61500  0.89173  0.28762  1.0000
  Fe  Fe143     1.0  0.59419  0.83982  0.30648  1.0000
  S   S284      1.0  0.61250  0.81530  0.30690  1.0000
  S   S285      1.0  0.56120  0.88089  0.31336  1.0000
  S   S286      1.0  0.56078  0.84314  0.32248  1.0000
  C   C1982     1.0  0.37651  0.86181  0.40354  1.0000
  Fe  Fe144     1.0  0.34911  0.87864  0.09251  1.0000
  C   C1983     1.0  0.42943  0.84651  0.16091  1.0000
  Fe  Fe145     1.0  0.35739  0.84482  0.08648  1.0000
  S   S287      1.0  0.57248  0.95580  0.20029  1.0000
  C   C1984     1.0  0.34813  0.87755  0.98631  1.0000
  Fe  Fe146     1.0  0.57182  0.97082  0.22864  1.0000
  S   S288      1.0  0.56344  0.96086  0.27259  1.0000
  Fe  Fe147     1.0  0.60006  0.96554  0.17691  1.0000
  S   S289      1.0  0.38935  0.87432  0.29086  1.0000
  C   C1985     1.0  0.47391  0.90367  0.99794  1.0000
  C   C1986     1.0  0.53107  0.91686  0.43198  1.0000
  H   H1607     1.0  0.60714  0.83066  0.08504  1.0000
  C   C1987     1.0  0.45219  0.84221  0.39625  1.0000
  H   H1608     1.0  0.44546  0.95084  0.36145  1.0000
  C   C1988     1.0  0.57319  0.82096  0.40484  1.0000
  C   C1989     1.0  0.45024  0.87972  0.29979  1.0000
  C   C1990     1.0  0.35244  0.95013  0.27290  1.0000
  S   S290      1.0  0.59456  0.88899  0.44688  1.0000
  H   H1609     1.0  0.55643  0.87774  0.46395  1.0000
  H   H1610     1.0  0.58386  0.92145  0.43132  1.0000
  C   C1991     1.0  0.66243  0.82779  0.25423  1.0000
  C   C1992     1.0  0.51066  0.94925  0.36584  1.0000
  C   C1993     1.0  0.51415  0.95129  0.33803  1.0000
  H   H1611     1.0  0.39697  0.93479  0.34570  1.0000
  H   H1612     1.0  0.41499  0.95645  0.34190  1.0000
  C   C1994     1.0  0.57806  0.96147  0.00892  1.0000
  C   C1995     1.0  0.61640  0.92033  0.08951  1.0000
  C   C1996     1.0  0.47587  0.92681  0.21630  1.0000
  H   H1613     1.0  0.36371  0.88850  0.34845  1.0000
  C   C1997     1.0  0.48885  0.95054  0.19200  1.0000
  H   H1614     1.0  0.48607  0.85417  0.17517  1.0000
  C   C1998     1.0  0.55514  0.92933  0.39552  1.0000
  C   C1999     1.0  0.56127  0.86835  0.40383  1.0000
  C   C2000     1.0  0.55302  0.86985  0.43030  1.0000
  C   C2001     1.0  0.49418  0.89647  0.37244  1.0000
  C   C2002     1.0  0.58129  0.88125  0.43066  1.0000
  C   C2003     1.0  0.58961  0.87953  0.40441  1.0000
  C   C2004     1.0  0.57946  0.87338  0.39086  1.0000
  H   H1615     1.0  0.37408  0.90560  0.01414  1.0000
  H   H1616     1.0  0.36450  0.89754  0.11528  1.0000
  H   H1617     1.0  0.60392  0.88303  0.39448  1.0000
  H   H1618     1.0  0.58575  0.87257  0.37037  1.0000
  C   C2005     1.0  0.60079  0.91097  0.28457  1.0000
  C   C2006     1.0  0.60735  0.92275  0.26319  1.0000
  C   C2007     1.0  0.59589  0.93810  0.25966  1.0000
  C   C2008     1.0  0.57799  0.94177  0.27785  1.0000
  C   C2009     1.0  0.57153  0.93008  0.29963  1.0000
  C   C2010     1.0  0.58293  0.91462  0.30298  1.0000
  H   H1619     1.0  0.62104  0.91988  0.24897  1.0000
  H   H1620     1.0  0.60093  0.94706  0.24275  1.0000
  H   H1621     1.0  0.55756  0.93290  0.31347  1.0000
  H   H1622     1.0  0.57812  0.90561  0.31997  1.0000
  C   C2011     1.0  0.63657  0.81475  0.28613  1.0000
  C   C2012     1.0  0.64304  0.82863  0.27058  1.0000
  C   C2013     1.0  0.51828  0.96934  0.12281  1.0000
  C   C2014     1.0  0.57093  0.82816  0.42619  1.0000
  C   C2015     1.0  0.36744  0.81743  0.14971  1.0000
  H   H1623     1.0  0.65835  0.89701  0.27198  1.0000
  H   H1624     1.0  0.63313  0.83999  0.27109  1.0000
  C   C2016     1.0  0.33516  0.92928  0.37682  1.0000
  C   C2017     1.0  0.42069  0.94447  0.35176  1.0000
  C   C2018     1.0  0.36447  0.81791  0.17674  1.0000
  C   C2019     1.0  0.58722  0.93284  0.43021  1.0000
  C   C2020     1.0  0.49059  0.89847  0.30231  1.0000
  C   C2021     1.0  0.40052  0.81688  0.17127  1.0000
  H   H1625     1.0  0.37087  0.96747  0.17941  1.0000
  C   C2022     1.0  0.44360  0.89409  0.28305  1.0000
  C   C2023     1.0  0.54019  0.86697  0.18324  1.0000
  C   C2024     1.0  0.52548  0.86024  0.20326  1.0000
  C   C2025     1.0  0.52279  0.86181  0.22961  1.0000
  C   C2026     1.0  0.53550  0.86946  0.23640  1.0000
  C   C2027     1.0  0.55006  0.87650  0.21636  1.0000
  C   C2028     1.0  0.55200  0.87563  0.18957  1.0000
  H   H1626     1.0  0.51632  0.85359  0.19841  1.0000
  H   H1627     1.0  0.51129  0.85661  0.24493  1.0000
  H   H1628     1.0  0.55956  0.88278  0.22148  1.0000
  H   H1629     1.0  0.56276  0.88139  0.17394  1.0000
  C   C2029     1.0  0.53761  0.94782  0.10155  1.0000
  C   C2030     1.0  0.55038  0.94351  0.12006  1.0000
  C   C2031     1.0  0.54751  0.95259  0.13937  1.0000
  C   C2032     1.0  0.53143  0.96555  0.14066  1.0000
  C   C2033     1.0  0.38113  0.81793  0.18727  1.0000
  C   C2034     1.0  0.52156  0.96069  0.10307  1.0000
  H   H1630     1.0  0.56281  0.93357  0.11882  1.0000
  H   H1631     1.0  0.55779  0.94972  0.15302  1.0000
  S   S291      1.0  0.41618  0.90293  0.46843  1.0000
  H   H1632     1.0  0.51173  0.96410  0.08871  1.0000
  C   C2035     1.0  0.64787  0.87493  0.07244  1.0000
  C   C2036     1.0  0.64721  0.87489  0.09924  1.0000
  C   C2037     1.0  0.60567  0.94882  0.08429  1.0000
  H   H1633     1.0  0.37909  0.81926  0.20762  1.0000
  C   C2038     1.0  0.38287  0.95993  0.18904  1.0000
  C   C2039     1.0  0.47046  0.92916  0.28404  1.0000
  H   H1634     1.0  0.63366  0.88066  0.11083  1.0000
  C   C2040     1.0  0.62375  0.83166  0.46059  1.0000
  C   C2041     1.0  0.46597  0.94128  0.17439  1.0000
  C   C2042     1.0  0.41850  0.91917  0.08569  1.0000
  C   C2043     1.0  0.39342  0.83837  0.99185  1.0000
  C   C2044     1.0  0.34300  0.80909  0.01280  1.0000
  H   H1635     1.0  0.56360  0.97255  0.08846  1.0000
  C   C2045     1.0  0.47136  0.91928  0.44358  1.0000
  S   S292      1.0  0.34274  0.82414  0.09140  1.0000
  C   C2046     1.0  0.34708  0.78061  0.05119  1.0000
  H   H1636     1.0  0.41724  0.92134  0.00276  1.0000
  H   H1637     1.0  0.54375  0.82877  0.22128  1.0000
  C   C2047     1.0  0.47281  0.88963  0.41594  1.0000
  H   H1638     1.0  0.38159  0.97926  0.09710  1.0000
  C   C2048     1.0  0.49355  0.98628  0.25573  1.0000
  C   C2049     1.0  0.48828  0.93633  0.34279  1.0000
  H   H1639     1.0  0.49937  0.90496  0.35484  1.0000
  C   C2050     1.0  0.63948  0.86519  0.35931  1.0000
  H   H1640     1.0  0.41040  0.92495  0.10193  1.0000
  C   C2051     1.0  0.43902  0.90443  0.04303  1.0000
  H   H1641     1.0  0.38076  0.92128  0.04235  1.0000
  C   C2052     1.0  0.34036  0.84520  0.22077  1.0000
  H   H1642     1.0  0.46015  0.83172  0.38871  1.0000
  C   C2053     1.0  0.56294  0.87644  0.44365  1.0000
  C   C2054     1.0  0.36567  0.92288  0.03865  1.0000
  H   H1643     1.0  0.36561  0.98191  0.22144  1.0000
  C   C2055     1.0  0.43840  0.92059  0.04080  1.0000
  C   C2056     1.0  0.41907  0.90308  0.08818  1.0000
  C   C2057     1.0  0.42929  0.89571  0.06697  1.0000
  C   C2058     1.0  0.43798  0.94124  0.36281  1.0000
  C   C2059     1.0  0.59502  0.82627  0.24024  1.0000
  C   C2060     1.0  0.60581  0.88299  0.17879  1.0000
  C   C2061     1.0  0.63809  0.82121  0.19260  1.0000
  H   H1644     1.0  0.41442  0.93732  0.14783  1.0000
  C   C2062     1.0  0.44520  0.92579  0.37610  1.0000
  H   H1645     1.0  0.61926  0.93670  0.05169  1.0000
  H   H1646     1.0  0.33356  0.97333  0.27145  1.0000
  C   C2063     1.0  0.48492  0.93393  0.37075  1.0000
  C   C2064     1.0  0.39919  0.96597  0.19100  1.0000
  H   H1647     1.0  0.56028  0.92144  0.35854  1.0000
  C   C2065     1.0  0.41053  0.93232  0.35388  1.0000
  C   C2066     1.0  0.46114  0.91929  0.30658  1.0000
  H   H1648     1.0  0.59516  0.81114  0.12554  1.0000
  H   H1649     1.0  0.44564  0.92760  0.02249  1.0000
  H   H1650     1.0  0.41142  0.89628  0.10648  1.0000
  H   H1651     1.0  0.42934  0.88328  0.06949  1.0000
  H   H1652     1.0  0.59881  0.81281  0.16998  1.0000
  P   P63       1.0  0.46700  0.92178  0.39135  1.0000
  C   C2067     1.0  0.39093  0.98280  0.13073  1.0000
  H   H1653     1.0  0.62378  0.80289  0.22138  1.0000
  C   C2068     1.0  0.42661  0.84538  0.18848  1.0000
  C   C2069     1.0  0.46888  0.86586  0.09811  1.0000
  C   C2070     1.0  0.48979  0.86210  0.08909  1.0000
  C   C2071     1.0  0.50295  0.86578  0.10162  1.0000
  C   C2072     1.0  0.49525  0.87324  0.12318  1.0000
  C   C2073     1.0  0.47426  0.87745  0.13203  1.0000
  C   C2074     1.0  0.46110  0.87352  0.11952  1.0000
  P   P64       1.0  0.46481  0.88708  0.16004  1.0000
  C   C2075     1.0  0.48305  0.89889  0.15838  1.0000
  C   C2076     1.0  0.49970  0.90815  0.27933  1.0000
  H   H1654     1.0  0.59994  0.95837  0.33607  1.0000
  H   H1655     1.0  0.50468  0.85688  0.39808  1.0000
  H   H1656     1.0  0.47770  0.86491  0.43520  1.0000
  C   C2077     1.0  0.41892  0.83305  0.36492  1.0000
  H   H1657     1.0  0.34216  0.87635  0.00744  1.0000
  C   C2078     1.0  0.48848  0.90991  0.13473  1.0000
  C   C2079     1.0  0.50366  0.91827  0.13233  1.0000
  C   C2080     1.0  0.51398  0.91536  0.15317  1.0000
  C   C2081     1.0  0.50888  0.90428  0.17666  1.0000
  C   C2082     1.0  0.49348  0.89604  0.17931  1.0000
  C   C2083     1.0  0.46303  0.87243  0.19101  1.0000
  C   C2084     1.0  0.44945  0.87621  0.21403  1.0000
  C   C2085     1.0  0.44779  0.86490  0.23801  1.0000
  C   C2086     1.0  0.45986  0.84980  0.23932  1.0000
  C   C2087     1.0  0.47372  0.84606  0.21665  1.0000
  C   C2088     1.0  0.47530  0.85732  0.19253  1.0000
  H   H1658     1.0  0.49988  0.84451  0.02957  1.0000
  H   H1659     1.0  0.49592  0.85623  0.07255  1.0000
  H   H1660     1.0  0.51918  0.86285  0.09464  1.0000
  H   H1661     1.0  0.50580  0.87570  0.13289  1.0000
  H   H1662     1.0  0.44488  0.87621  0.12619  1.0000
  H   H1663     1.0  0.40102  0.83860  0.00727  1.0000
  H   H1664     1.0  0.41321  0.81728  0.17937  1.0000
  H   H1665     1.0  0.63640  0.91886  0.30378  1.0000
  H   H1666     1.0  0.62424  0.81488  0.38568  1.0000
  H   H1667     1.0  0.33404  0.78124  0.30083  1.0000
  H   H1668     1.0  0.48138  0.91172  0.11781  1.0000
  H   H1669     1.0  0.50794  0.92662  0.11391  1.0000
  H   H1670     1.0  0.52620  0.92147  0.15081  1.0000
  H   H1671     1.0  0.51715  0.90181  0.19264  1.0000
  H   H1672     1.0  0.49023  0.88722  0.19741  1.0000
  H   H1673     1.0  0.43981  0.88778  0.21340  1.0000
  H   H1674     1.0  0.43662  0.86772  0.25529  1.0000
  H   H1675     1.0  0.45820  0.84093  0.25773  1.0000
  H   H1676     1.0  0.48306  0.83436  0.21761  1.0000
  H   H1677     1.0  0.38514  0.92382  0.16156  1.0000
  H   H1678     1.0  0.44004  0.85570  0.45386  1.0000
  C   C2089     1.0  0.61565  0.91306  0.34099  1.0000
  C   C2090     1.0  0.43182  0.86900  0.41652  1.0000
  C   C2091     1.0  0.43979  0.89898  0.15860  1.0000
  C   C2092     1.0  0.55818  0.96147  0.36835  1.0000
  C   C2093     1.0  0.59870  0.86544  0.00402  1.0000
  P   P65       1.0  0.50140  0.93624  0.24024  1.0000
  C   C2094     1.0  0.36295  0.92107  0.12015  1.0000
  C   C2095     1.0  0.49857  0.95585  0.24616  1.0000
  C   C2096     1.0  0.43659  0.91559  0.15180  1.0000
  C   C2097     1.0  0.36187  0.91400  0.02286  1.0000
  H   H1679     1.0  0.54681  0.98337  0.30871  1.0000
  C   C2098     1.0  0.51211  0.97588  0.25620  1.0000
  C   C2099     1.0  0.51473  0.96080  0.25114  1.0000
  H   H1680     1.0  0.55993  0.81951  0.39913  1.0000
  H   H1681     1.0  0.53798  0.90188  0.37675  1.0000
  C   C2100     1.0  0.48411  0.85019  0.03078  1.0000
  H   H1682     1.0  0.46635  0.83114  0.31204  1.0000
  H   H1683     1.0  0.46221  0.94086  0.27706  1.0000
  C   C2101     1.0  0.52797  0.92807  0.23022  1.0000
  C   C2102     1.0  0.54055  0.92260  0.24918  1.0000
  C   C2103     1.0  0.56090  0.91589  0.24162  1.0000
  C   C2104     1.0  0.56897  0.91474  0.21510  1.0000
  C   C2105     1.0  0.55666  0.92026  0.19605  1.0000
  C   C2106     1.0  0.53629  0.92701  0.20352  1.0000
  C   C2107     1.0  0.34985  0.93344  0.05041  1.0000
  C   C2108     1.0  0.60193  0.93166  0.12852  1.0000
  H   H1684     1.0  0.56771  0.95410  0.00897  1.0000
  H   H1685     1.0  0.34873  0.76977  0.06633  1.0000
  S   S293      1.0  0.58258  0.98655  0.15277  1.0000
  C   C2109     1.0  0.61366  0.84615  0.46736  1.0000
  Fe  Fe148     1.0  0.39041  0.89409  0.46254  1.0000
  C   C2110     1.0  0.54673  0.98018  0.33002  1.0000
  P   P66       1.0  0.34032  0.82736  0.98797  1.0000
  H   H1686     1.0  0.52947  0.95324  0.25105  1.0000
  H   H1687     1.0  0.49811  0.95911  0.18995  1.0000
  C   C2111     1.0  0.44086  0.85564  0.43314  1.0000
  H   H1688     1.0  0.43898  0.83956  0.19872  1.0000
  H   H1689     1.0  0.43273  0.85007  0.29908  1.0000
  C   C2112     1.0  0.43429  0.93904  0.45724  1.0000
  H   H1690     1.0  0.53466  0.92347  0.26985  1.0000
  H   H1691     1.0  0.57049  0.91160  0.25632  1.0000
  H   H1692     1.0  0.58480  0.90974  0.20937  1.0000
  H   H1693     1.0  0.56294  0.91946  0.17541  1.0000
  H   H1694     1.0  0.52720  0.93152  0.18834  1.0000
  H   H1695     1.0  0.40956  0.90761  0.36901  1.0000
  C   C2113     1.0  0.50624  0.84967  0.32701  1.0000
  H   H1696     1.0  0.44594  0.92341  0.31660  1.0000
  C   C2114     1.0  0.61406  0.93545  0.07309  1.0000
  P   P67       1.0  0.33936  0.82116  0.19688  1.0000
  H   H1697     1.0  0.54549  0.93492  0.43484  1.0000
  S   S294      1.0  0.35984  0.95046  0.12959  1.0000
  C   C2115     1.0  0.64200  0.93262  0.19631  1.0000
  C   C2116     1.0  0.65659  0.82495  0.17722  1.0000
  H   H1698     1.0  0.49837  0.88648  0.30896  1.0000
  C   C2117     1.0  0.59246  0.81620  0.39028  1.0000
  C   C2118     1.0  0.40338  0.81613  0.14448  1.0000
  C   C2119     1.0  0.41152  0.89720  0.31396  1.0000
  C   C2120     1.0  0.43498  0.89964  0.99138  1.0000
  C   C2121     1.0  0.64682  0.79803  0.42728  1.0000
  H   H1699     1.0  0.47527  0.91669  0.23288  1.0000
  H   H1700     1.0  0.37107  0.90659  0.37155  1.0000
  P   P68       1.0  0.57276  0.94285  0.38267  1.0000
  C   C2122     1.0  0.37445  0.83400  0.99888  1.0000
  C   C2123     1.0  0.37246  0.89412  0.38066  1.0000
  H   H1701     1.0  0.52643  0.86930  0.98920  1.0000
  C   C2124     1.0  0.46487  0.92859  0.19647  1.0000
  S   S295      1.0  0.34125  0.88892  0.30893  1.0000
  H   H1702     1.0  0.39054  0.89450  0.17302  1.0000
  C   C2125     1.0  0.60946  0.81863  0.39714  1.0000
  P   P69       1.0  0.62941  0.82988  0.42602  1.0000
  H   H1703     1.0  0.41827  0.81602  0.13180  1.0000
  C   C2126     1.0  0.42300  0.89149  0.16614  1.0000
  H   H1704     1.0  0.44908  0.92175  0.14592  1.0000
  Fe  Fe149     1.0  0.36254  0.86613  0.31959  1.0000
  C   C2127     1.0  0.41964  0.91323  0.98976  1.0000
  C   C2128     1.0  0.54394  0.92787  0.42186  1.0000
  S   S296      1.0  0.34383  0.86758  0.06207  1.0000
  H   H1705     1.0  0.39630  0.90374  0.31922  1.0000
  H   H1706     1.0  0.41899  0.91397  0.27730  1.0000
  C   C2129     1.0  0.52899  0.90748  0.41573  1.0000
  S   S297      1.0  0.62606  0.95102  0.15326  1.0000
  C   C2130     1.0  0.61629  0.85845  0.01411  1.0000
  H   H1707     1.0  0.59418  0.81092  0.37334  1.0000
  C   C2131     1.0  0.55788  0.96564  0.34092  1.0000
  C   C2132     1.0  0.63881  0.93342  0.17091  1.0000
  C   C2133     1.0  0.47138  0.90409  0.31612  1.0000
  H   H1708     1.0  0.62860  0.97364  0.09880  1.0000
  C   C2134     1.0  0.55224  0.92032  0.37905  1.0000
  S   S298      1.0  0.40555  0.84988  0.23750  1.0000
  C   C2135     1.0  0.43748  0.87402  0.32384  1.0000
  C   C2136     1.0  0.66081  0.90757  0.17031  1.0000
  C   C2137     1.0  0.35052  0.93574  0.12254  1.0000
  C   C2138     1.0  0.50318  0.88054  0.37398  1.0000
  H   H1709     1.0  0.37511  0.80187  0.99818  1.0000
  H   H1710     1.0  0.44395  0.84154  0.15008  1.0000
  H   H1711     1.0  0.62306  0.85170  0.08918  1.0000
  H   H1712     1.0  0.60479  0.95125  0.46625  1.0000
  H   H1713     1.0  0.64467  0.78938  0.29765  1.0000
  S   S299      1.0  0.41781  0.85427  0.11286  1.0000
  C   C2139     1.0  0.53940  0.90933  0.38920  1.0000
  C   C2140     1.0  0.41791  0.88264  0.33025  1.0000
  C   C2141     1.0  0.40615  0.82381  0.36234  1.0000
  H   H1714     1.0  0.37863  0.77710  0.03241  1.0000
  C   C2142     1.0  0.47906  0.90121  0.39356  1.0000
  H   H1715     1.0  0.36806  0.83027  0.01986  1.0000
  H   H1716     1.0  0.51177  0.91665  0.01161  1.0000
  H   H1717     1.0  0.35476  0.81865  0.14052  1.0000
  H   H1718     1.0  0.62707  0.84414  0.36979  1.0000
  H   H1719     1.0  0.52562  0.95774  0.32525  1.0000
  H   H1720     1.0  0.51936  0.95421  0.37480  1.0000
  H   H1721     1.0  0.47299  0.82832  0.04605  1.0000
  C   C2143     1.0  0.60732  0.82615  0.41824  1.0000
  H   H1722     1.0  0.56608  0.95765  0.32787  1.0000
  C   C2144     1.0  0.63363  0.85162  0.37698  1.0000
  H   H1723     1.0  0.51970  0.89850  0.42379  1.0000
  C   C2145     1.0  0.41287  0.83339  0.31432  1.0000
  C   C2146     1.0  0.42819  0.92791  0.06205  1.0000
  Fe  Fe150     1.0  0.55504  0.97779  0.17866  1.0000
  C   C2147     1.0  0.66438  0.86757  0.11086  1.0000
  H   H1724     1.0  0.47942  0.96171  0.15460  1.0000
  H   H1725     1.0  0.59463  0.86658  0.16526  1.0000
  C   C2148     1.0  0.43484  0.91368  0.37826  1.0000
  H   H1726     1.0  0.42585  0.87954  0.37751  1.0000
  C   C2149     1.0  0.63607  0.84791  0.40366  1.0000
  C   C2150     1.0  0.50292  0.94484  0.32654  1.0000
  C   C2151     1.0  0.49620  0.94051  0.38220  1.0000
  H   H1727     1.0  0.50575  0.94629  0.30504  1.0000
  H   H1728     1.0  0.49414  0.93878  0.40367  1.0000
  H   H1729     1.0  0.56372  0.90023  0.99336  1.0000
  C   C2152     1.0  0.61058  0.91844  0.11722  1.0000
  C   C2153     1.0  0.35593  0.93563  0.26533  1.0000
  S   S300      1.0  0.35967  0.85569  0.11912  1.0000
  H   H1730     1.0  0.36150  0.95177  0.28554  1.0000
  C   C2154     1.0  0.58494  0.96008  0.03228  1.0000
  H   H1731     1.0  0.59586  0.89323  0.16973  1.0000
  H   H1732     1.0  0.42763  0.94040  0.06016  1.0000
  C   C2155     1.0  0.41769  0.91694  0.36696  1.0000
  C   C2156     1.0  0.50252  0.91418  0.99998  1.0000
  C   C2157     1.0  0.35264  0.79461  0.23476  1.0000
  C   C2158     1.0  0.60874  0.83138  0.10455  1.0000
  H   H1733     1.0  0.66421  0.97519  0.09410  1.0000
  C   C2159     1.0  0.48779  0.93790  0.21430  1.0000
  S   S301      1.0  0.36565  0.85466  0.36216  1.0000
  H   H1734     1.0  0.58691  0.96967  0.39014  1.0000
  H   H1735     1.0  0.63175  0.79557  0.43595  1.0000
  S   S302      1.0  0.36098  0.88792  0.24559  1.0000
  H   H1736     1.0  0.57974  0.81918  0.28098  1.0000
  C   C2160     1.0  0.54474  0.88410  0.99466  1.0000
  C   C2161     1.0  0.60193  0.82044  0.12736  1.0000
  C   C2162     1.0  0.45912  0.92610  0.42441  1.0000
  H   H1737     1.0  0.62644  0.85364  0.13354  1.0000
  H   H1738     1.0  0.64161  0.87293  0.21708  1.0000
  H   H1739     1.0  0.37773  0.86455  0.20018  1.0000
  C   C2163     1.0  0.37039  0.86766  0.37884  1.0000
  C   C2164     1.0  0.63785  0.80632  0.20999  1.0000
  C   C2165     1.0  0.44056  0.93611  0.43143  1.0000
  H   H1740     1.0  0.43058  0.94137  0.41739  1.0000
  C   C2166     1.0  0.42431  0.90291  0.29027  1.0000
  S   S303      1.0  0.35495  0.85453  0.29122  1.0000
  H   H1741     1.0  0.47994  0.93125  0.33356  1.0000
  C   C2167     1.0  0.63138  0.87149  0.20574  1.0000
  C   C2168     1.0  0.55812  0.82789  0.22659  1.0000
  H   H1742     1.0  0.63935  0.84615  0.21446  1.0000
  H   H1743     1.0  0.62022  0.89651  0.19457  1.0000
  H   H1744     1.0  0.54717  0.82027  0.26877  1.0000
  C   C2169     1.0  0.64960  0.80011  0.28561  1.0000
  H   H1745     1.0  0.66013  0.77351  0.42757  1.0000
  C   C2170     1.0  0.61725  0.85448  0.18893  1.0000
  H   H1746     1.0  0.53889  0.86604  0.44038  1.0000
  C   C2171     1.0  0.63020  0.85636  0.20399  1.0000
  C   C2172     1.0  0.61925  0.88482  0.19305  1.0000
  C   C2173     1.0  0.56001  0.82319  0.25334  1.0000
  H   H1747     1.0  0.57247  0.83620  0.18617  1.0000
  H   H1748     1.0  0.59333  0.91074  0.37724  1.0000
  H   H1749     1.0  0.35269  0.94007  0.06319  1.0000
  H   H1750     1.0  0.51527  0.87701  0.35800  1.0000
  C   C2174     1.0  0.57461  0.83186  0.20663  1.0000
  C   C2175     1.0  0.57839  0.82254  0.26019  1.0000
  H   H1751     1.0  0.48557  0.91137  0.43887  1.0000
  C   C2176     1.0  0.48209  0.87372  0.41752  1.0000
  C   C2177     1.0  0.49722  0.86917  0.39657  1.0000
  H   H1752     1.0  0.46093  0.89282  0.43238  1.0000
  C   C2178     1.0  0.58787  0.83096  0.43267  1.0000
  H   H1753     1.0  0.65581  0.78438  0.22693  1.0000
  H   H1754     1.0  0.60911  0.82587  0.24592  1.0000
  C   C2179     1.0  0.59342  0.83046  0.21322  1.0000
  H   H1755     1.0  0.36269  0.77439  0.26439  1.0000
  H   H1756     1.0  0.38519  0.86757  0.43589  1.0000
  H   H1757     1.0  0.41008  0.83388  0.29478  1.0000
  P   P70       1.0  0.61501  0.83500  0.18748  1.0000
  C   C2180     1.0  0.60496  0.86789  0.17651  1.0000
  C   C2181     1.0  0.61929  0.84452  0.13206  1.0000
  C   C2182     1.0  0.64796  0.92077  0.15811  1.0000
  H   H1758     1.0  0.43968  0.90180  0.38908  1.0000
  C   C2183     1.0  0.61198  0.83389  0.15512  1.0000
  C   C2184     1.0  0.61761  0.84331  0.10689  1.0000
  C   C2185     1.0  0.60381  0.82154  0.15254  1.0000
  H   H1759     1.0  0.63512  0.94237  0.20621  1.0000
  C   C2186     1.0  0.65080  0.87139  0.39446  1.0000
  C   C2187     1.0  0.44303  0.85555  0.37937  1.0000
  H   H1760     1.0  0.59778  0.93028  0.15005  1.0000
  C   C2188     1.0  0.38685  0.81633  0.13374  1.0000
  C   C2189     1.0  0.41348  0.85370  0.14742  1.0000
  H   H1761     1.0  0.49897  0.87116  0.47480  1.0000
  H   H1762     1.0  0.39556  0.92175  0.22145  1.0000
  H   H1763     1.0  0.63808  0.82061  0.33925  1.0000
  C   C2190     1.0  0.40800  0.85184  0.20281  1.0000
  H   H1764     1.0  0.51741  0.85506  0.33063  1.0000
  C   C2191     1.0  0.39669  0.93404  0.21288  1.0000
  H   H1765     1.0  0.42377  0.93234  0.22684  1.0000
  H   H1766     1.0  0.36913  0.93954  0.19776  1.0000
  H   H1767     1.0  0.65896  0.96126  0.16739  1.0000
  C   C2192     1.0  0.41268  0.94000  0.21569  1.0000
  C   C2193     1.0  0.40037  0.91690  0.16064  1.0000
  C   C2194     1.0  0.51223  0.83856  0.31083  1.0000
  H   H1768     1.0  0.62676  0.94782  0.30129  1.0000
  H   H1769     1.0  0.40748  0.87787  0.34765  1.0000
  H   H1770     1.0  0.42765  0.87038  0.03449  1.0000
  H   H1771     1.0  0.45823  0.83197  0.43592  1.0000
  C   C2195     1.0  0.39476  0.86022  0.16164  1.0000
  C   C2196     1.0  0.38178  0.94403  0.19961  1.0000
  H   H1772     1.0  0.38889  0.81628  0.11275  1.0000
  C   C2197     1.0  0.39209  0.85942  0.18931  1.0000
  Fe  Fe151     1.0  0.39032  0.85883  0.09478  1.0000
  Fe  Fe152     1.0  0.37559  0.86951  0.04186  1.0000
  H   H1773     1.0  0.45343  0.89834  0.26448  1.0000
  S   S304      1.0  0.38916  0.84579  0.06418  1.0000
  H   H1774     1.0  0.61309  0.90675  0.12981  1.0000
  C   C2198     1.0  0.49003  0.92378  0.27048  1.0000
  H   H1775     1.0  0.37819  0.84928  0.41236  1.0000
  H   H1776     1.0  0.48142  0.86316  0.34972  1.0000
  H   H1777     1.0  0.52806  0.83543  0.30195  1.0000
  C   C2199     1.0  0.48582  0.85428  0.33769  1.0000
  C   C2200     1.0  0.38052  0.87215  0.41684  1.0000
  S   S305      1.0  0.37460  0.92005  0.27695  1.0000
  H   H1778     1.0  0.39911  0.97074  0.13505  1.0000
  C   C2201     1.0  0.36828  0.88386  0.36753  1.0000
  C   C2202     1.0  0.58356  0.94544  0.40861  1.0000
  C   C2203     1.0  0.65929  0.97319  0.07753  1.0000
  S   S306      1.0  0.38284  0.90189  0.42132  1.0000
  H   H1779     1.0  0.42037  0.83315  0.38476  1.0000
  C   C2204     1.0  0.33482  0.84146  0.19972  1.0000
  C   C2205     1.0  0.46899  0.84107  0.04000  1.0000
  H   H1780     1.0  0.42376  0.87934  0.42449  1.0000
  C   C2206     1.0  0.42891  0.84244  0.34212  1.0000
  Fe  Fe153     1.0  0.38021  0.86480  0.26121  1.0000
  C   C2207     1.0  0.47120  0.84774  0.33236  1.0000
  C   C2208     1.0  0.49779  0.83188  0.30561  1.0000
  C   C2209     1.0  0.59834  0.96953  0.03261  1.0000
  H   H1781     1.0  0.38240  0.86596  0.15136  1.0000
  C   C2210     1.0  0.37836  0.88836  0.40546  1.0000
  H   H1782     1.0  0.46522  0.87311  0.29360  1.0000
  C   C2211     1.0  0.43294  0.86900  0.38972  1.0000
  H   H1783     1.0  0.50249  0.82333  0.29294  1.0000
  C   C2212     1.0  0.59648  0.96205  0.42784  1.0000
  H   H1784     1.0  0.46420  0.89650  0.33373  1.0000
  H   H1785     1.0  0.39263  0.81730  0.33522  1.0000
  H   H1786     1.0  0.51419  0.90323  0.26841  1.0000
  S   S307      1.0  0.38537  0.87695  0.99716  1.0000
  C   C2213     1.0  0.34416  0.93353  0.24908  1.0000
  C   C2214     1.0  0.47729  0.83640  0.31642  1.0000
  C   C2215     1.0  0.45113  0.84228  0.42299  1.0000
  C   C2216     1.0  0.35506  0.90904  0.11606  1.0000
  C   C2217     1.0  0.42567  0.84259  0.31684  1.0000
  H   H1787     1.0  0.59357  0.95700  0.12127  1.0000
  C   C2218     1.0  0.40309  0.82401  0.33708  1.0000
  H   H1788     1.0  0.42506  0.87872  0.17168  1.0000
  Fe  Fe154     1.0  0.36761  0.89647  0.27830  1.0000
  S   S308      1.0  0.37999  0.88271  0.07019  1.0000
  C   C2219     1.0  0.41694  0.92450  0.15288  1.0000
  H   H1789     1.0  0.37849  0.91882  0.12204  1.0000
  P   P71       1.0  0.44492  0.85493  0.34482  1.0000
  H   H1790     1.0  0.45867  0.86272  0.08868  1.0000
  C   C2220     1.0  0.47893  0.86669  0.02356  1.0000
  H   H1791     1.0  0.49090  0.87350  0.01690  1.0000
  C   C2221     1.0  0.60409  0.94571  0.33761  1.0000
  C   C2222     1.0  0.66561  0.86780  0.05745  1.0000
  C   C2223     1.0  0.59715  0.98224  0.98622  1.0000
  C   C2224     1.0  0.59374  0.93534  0.35837  1.0000
  C   C2225     1.0  0.54629  0.97168  0.38494  1.0000
  C   C2226     1.0  0.40341  0.90040  0.16709  1.0000
  P   P72       1.0  0.45158  0.89541  0.01478  1.0000
  C   C2227     1.0  0.62511  0.92345  0.31955  1.0000
  H   H1792     1.0  0.61953  0.90045  0.34174  1.0000
  H   H1793     1.0  0.46740  0.96312  0.24111  1.0000
  C   C2228     1.0  0.59952  0.94684  0.11210  1.0000
  C   C2229     1.0  0.66452  0.90706  0.19537  1.0000
  H   H1794     1.0  0.34684  0.92237  0.24322  1.0000
  H   H1795     1.0  0.62306  0.91008  0.08077  1.0000
  H   H1796     1.0  0.45585  0.91994  0.19791  1.0000
  C   C2230     1.0  0.36190  0.79889  0.01288  1.0000
  H   H1797     1.0  0.63711  0.86817  0.33886  1.0000
  H   H1798     1.0  0.58723  0.87390  0.01374  1.0000
  H   H1799     1.0  0.57948  0.95177  0.05014  1.0000
  C   C2231     1.0  0.58883  0.95995  0.40713  1.0000
  H   H1800     1.0  0.64763  0.85505  0.43234  1.0000
  H   H1801     1.0  0.43692  0.84142  0.04878  1.0000
  C   C2232     1.0  0.46507  0.92231  0.46933  1.0000
  C   C2233     1.0  0.59493  0.93495  0.45080  1.0000
  C   C2234     1.0  0.61952  0.93977  0.31804  1.0000
  S   S309      1.0  0.52754  0.97766  0.16358  1.0000
  C   C2235     1.0  0.45854  0.87416  0.02495  1.0000
  H   H1802     1.0  0.45765  0.94264  0.15887  1.0000
  H   H1803     1.0  0.64543  0.92134  0.13852  1.0000
  H   H1804     1.0  0.34690  0.83602  0.23587  1.0000
  C   C2236     1.0  0.60038  0.91896  0.36066  1.0000
  C   C2237     1.0  0.47995  0.96644  0.24563  1.0000
  H   H1805     1.0  0.60011  0.97334  0.42701  1.0000
  H   H1806     1.0  0.41965  0.94632  0.46290  1.0000
  H   H1807     1.0  0.65538  0.93113  0.08289  1.0000
  C   C2238     1.0  0.36393  0.78476  0.03213  1.0000
  C   C2239     1.0  0.47747  0.98156  0.25045  1.0000
  H   H1808     1.0  0.63638  0.80723  0.47655  1.0000
  C   C2240     1.0  0.33758  0.86095  0.22245  1.0000
  H   H1809     1.0  0.42662  0.96021  0.20694  1.0000
  C   C2241     1.0  0.66264  0.80071  0.34415  1.0000
  H   H1810     1.0  0.65695  0.87282  0.25890  1.0000
  C   C2242     1.0  0.44347  0.86489  0.03365  1.0000
  C   C2243     1.0  0.48561  0.90731  0.01290  1.0000
  C   C2244     1.0  0.41407  0.95588  0.20460  1.0000
  C   C2245     1.0  0.44869  0.84843  0.04147  1.0000
  C   C2246     1.0  0.59930  0.94960  0.44983  1.0000
  C   C2247     1.0  0.66287  0.78551  0.42258  1.0000
  H   H1811     1.0  0.65706  0.87923  0.40141  1.0000
  C   C2248     1.0  0.58949  0.98394  0.07787  1.0000
  H   H1812     1.0  0.52466  0.97959  0.26004  1.0000
  C   C2249     1.0  0.65500  0.91954  0.20836  1.0000
  C   C2250     1.0  0.47812  0.95213  0.17204  1.0000
  H   H1813     1.0  0.61846  0.86154  0.03161  1.0000
  H   H1814     1.0  0.34804  0.94123  0.33735  1.0000
  C   C2251     1.0  0.65021  0.81362  0.42075  1.0000
  H   H1815     1.0  0.48185  0.90466  0.03457  1.0000
  H   H1816     1.0  0.60916  0.85622  0.45207  1.0000
  H   H1817     1.0  0.65789  0.91918  0.22771  1.0000
  H   H1818     1.0  0.52313  0.91529  0.45267  1.0000
  H   H1819     1.0  0.59728  0.92528  0.46775  1.0000
  C   C2252     1.0  0.34223  0.91551  0.01905  1.0000
  S   S310      1.0  0.60116  0.97869  0.20731  1.0000
  C   C2253     1.0  0.64514  0.85775  0.41208  1.0000
  P   P73       1.0  0.40051  0.98659  0.17679  1.0000
  C   C2254     1.0  0.33818  0.93307  0.34890  1.0000
  H   H1820     1.0  0.58556  0.83719  0.44853  1.0000
  H   H1821     1.0  0.65706  0.83620  0.16310  1.0000
  H   H1822     1.0  0.66400  0.86769  0.13140  1.0000
  P   P74       1.0  0.60632  0.96822  0.06318  1.0000
  H   H1823     1.0  0.55591  0.83233  0.43686  1.0000
  C   C2255     1.0  0.60403  0.98088  0.00961  1.0000
  C   C2256     1.0  0.64801  0.87509  0.36808  1.0000
  H   H1824     1.0  0.33598  0.88463  0.41381  1.0000
  C   C2257     1.0  0.63236  0.96985  0.05883  1.0000
  H   H1825     1.0  0.36510  0.79135  0.21904  1.0000
  C   C2258     1.0  0.65599  0.79564  0.21285  1.0000
  H   H1826     1.0  0.66561  0.90302  0.07868  1.0000
  C   C2259     1.0  0.44645  0.93207  0.47623  1.0000
  H   H1827     1.0  0.65229  0.88570  0.35449  1.0000
  C   C2260     1.0  0.35124  0.78490  0.26042  1.0000
  H   H1828     1.0  0.33555  0.84180  0.03376  1.0000
  H   H1829     1.0  0.54576  0.96846  0.40632  1.0000
  C   C2261     1.0  0.63905  0.97240  0.08008  1.0000
  Fe  Fe155     1.0  0.33614  0.87834  0.27765  1.0000
  H   H1830     1.0  0.65963  0.84041  0.32565  1.0000
  C   C2262     1.0  0.58425  0.97248  0.98584  1.0000
  H   H1831     1.0  0.33805  0.79781  0.16712  1.0000
  C   C2263     1.0  0.65425  0.81681  0.33823  1.0000
  H   H1832     1.0  0.65289  0.79205  0.34996  1.0000
  H   H1833     1.0  0.34277  0.93444  0.38706  1.0000
  H   H1834     1.0  0.34140  0.86378  0.23902  1.0000
  H   H1835     1.0  0.34546  0.87307  0.45784  1.0000
  S   S311      1.0  0.33352  0.98537  0.16619  1.0000
  C   C2264     1.0  0.56910  0.98297  0.08819  1.0000
  C   C2265     1.0  0.33509  0.78874  0.28094  1.0000
  C   C2266     1.0  0.53498  0.98615  0.37403  1.0000
  C   C2267     1.0  0.64648  0.96713  0.03560  1.0000
  C   C2268     1.0  0.33797  0.80834  0.22961  1.0000
  H   H1836     1.0  0.50600  0.97942  0.12349  1.0000
  H   H1837     1.0  0.64192  0.96424  0.01957  1.0000
  C   C2269     1.0  0.33673  0.96233  0.26488  1.0000
  H   H1838     1.0  0.64506  0.84265  0.00885  1.0000
  C   C2270     1.0  0.63123  0.84777  0.00128  1.0000
  C   C2271     1.0  0.62889  0.81863  0.48102  1.0000
  C   C2272     1.0  0.33481  0.91181  0.11384  1.0000
  H   H1839     1.0  0.33959  0.90819  0.00727  1.0000
  C   C2273     1.0  0.60124  0.87599  0.90290  1.0000
  C   C2274     1.0  0.33995  0.95998  0.79243  1.0000
  H   H1840     1.0  0.37658  0.97327  0.87542  1.0000
  C   C2275     1.0  0.34766  0.90518  0.58613  1.0000
  S   S312      1.0  0.56505  0.96973  0.66244  1.0000
  S   S313      1.0  0.60944  0.95487  0.60992  1.0000
  C   C2276     1.0  0.37825  0.83736  0.55761  1.0000
  Fe  Fe156     1.0  0.59183  0.97492  0.63002  1.0000
  S   S314      1.0  0.41326  0.97242  0.61604  1.0000
  Fe  Fe157     1.0  0.52068  0.90847  0.82657  1.0000
  S   S315      1.0  0.50209  0.88969  0.83579  1.0000
  S   S316      1.0  0.51667  0.92633  0.78841  1.0000
  Fe  Fe158     1.0  0.53474  0.89659  0.87958  1.0000
  S   S317      1.0  0.51723  0.87685  0.89308  1.0000
  S   S318      1.0  0.55284  0.90311  0.90393  1.0000
  Fe  Fe159     1.0  0.52853  0.87308  0.85084  1.0000
  S   S319      1.0  0.53782  0.84793  0.84422  1.0000
  Fe  Fe160     1.0  0.49245  0.89505  0.87661  1.0000
  S   S320      1.0  0.45970  0.89913  0.89657  1.0000
  S   S321      1.0  0.54826  0.89147  0.83845  1.0000
  S   S322      1.0  0.50887  0.91517  0.86630  1.0000
  Fe  Fe161     1.0  0.38662  0.86456  0.85128  1.0000
  C   C2277     1.0  0.63618  0.86311  0.90284  1.0000
  S   S323      1.0  0.41887  0.85657  0.85594  1.0000
  H   H1841     1.0  0.35109  0.91702  0.65001  1.0000
  S   S324      1.0  0.56129  0.87624  0.51916  1.0000
  Fe  Fe162     1.0  0.57063  0.91729  0.52201  1.0000
  S   S325      1.0  0.55363  0.90219  0.55702  1.0000
  S   S326      1.0  0.57314  0.94236  0.52029  1.0000
  Fe  Fe163     1.0  0.57769  0.88175  0.54626  1.0000
  S   S327      1.0  0.59315  0.86378  0.57734  1.0000
  Fe  Fe164     1.0  0.53875  0.89807  0.52697  1.0000
  S   S328      1.0  0.50495  0.90116  0.53782  1.0000
  S   S329      1.0  0.59619  0.89725  0.51373  1.0000
  C   C2278     1.0  0.48831  0.98166  0.83857  1.0000
  H   H1842     1.0  0.53728  0.83929  0.98109  1.0000
  S   S330      1.0  0.40498  0.88576  0.53212  1.0000
  Fe  Fe165     1.0  0.55696  0.77524  0.72619  1.0000
  S   S331      1.0  0.57078  0.79571  0.70018  1.0000
  C   C2279     1.0  0.45377  0.85653  0.74130  1.0000
  Fe  Fe166     1.0  0.51394  0.79112  0.71711  1.0000
  S   S332      1.0  0.52533  0.81257  0.69053  1.0000
  C   C2280     1.0  0.64250  0.87589  0.88329  1.0000
  Fe  Fe167     1.0  0.55114  0.79573  0.67249  1.0000
  S   S333      1.0  0.56077  0.79980  0.62760  1.0000
  Fe  Fe168     1.0  0.54384  0.81078  0.72085  1.0000
  S   S334      1.0  0.54679  0.83377  0.72932  1.0000
  S   S335      1.0  0.53882  0.77412  0.69684  1.0000
  S   S336      1.0  0.53094  0.79040  0.74894  1.0000
  Fe  Fe169     1.0  0.38376  0.77135  0.70366  1.0000
  S   S337      1.0  0.41493  0.75848  0.71228  1.0000
  C   C2281     1.0  0.61244  0.78209  0.63046  1.0000
  C   C2282     1.0  0.44184  0.79256  0.72013  1.0000
  C   C2283     1.0  0.42739  0.78471  0.71737  1.0000
  C   C2284     1.0  0.43309  0.76915  0.71369  1.0000
  C   C2285     1.0  0.62028  0.78837  0.64647  1.0000
  H   H1843     1.0  0.36554  0.93024  0.93322  1.0000
  H   H1844     1.0  0.43716  0.80449  0.72344  1.0000
  H   H1845     1.0  0.41175  0.79059  0.71851  1.0000
  P   P75       1.0  0.60735  0.84676  0.93826  1.0000
  C   C2286     1.0  0.46328  0.92925  0.81289  1.0000
  C   C2287     1.0  0.58408  0.84598  0.59087  1.0000
  C   C2288     1.0  0.58954  0.83630  0.61452  1.0000
  C   C2289     1.0  0.58257  0.82204  0.62575  1.0000
  C   C2290     1.0  0.57023  0.81732  0.61324  1.0000
  C   C2291     1.0  0.56508  0.82681  0.58930  1.0000
  C   C2292     1.0  0.57185  0.84120  0.57825  1.0000
  H   H1846     1.0  0.59886  0.83994  0.62448  1.0000
  H   H1847     1.0  0.58651  0.81481  0.64429  1.0000
  H   H1848     1.0  0.55556  0.82316  0.57954  1.0000
  H   H1849     1.0  0.56776  0.84848  0.55990  1.0000
  C   C2293     1.0  0.49229  0.89201  0.52302  1.0000
  C   C2294     1.0  0.50220  0.88448  0.50185  1.0000
  H   H1850     1.0  0.51824  0.88405  0.49427  1.0000
  C   C2295     1.0  0.47047  0.87775  0.50072  1.0000
  C   C2296     1.0  0.33819  0.80787  0.95515  1.0000
  H   H1851     1.0  0.38669  0.81527  0.91540  1.0000
  C   C2297     1.0  0.53969  0.84412  0.81234  1.0000
  C   C2298     1.0  0.53928  0.85636  0.78957  1.0000
  C   C2299     1.0  0.54159  0.85290  0.76436  1.0000
  C   C2300     1.0  0.54384  0.83728  0.76166  1.0000
  C   C2301     1.0  0.54404  0.82502  0.78443  1.0000
  C   C2302     1.0  0.54209  0.82844  0.80966  1.0000
  H   H1852     1.0  0.53761  0.86846  0.79132  1.0000
  H   H1853     1.0  0.54179  0.86235  0.74683  1.0000
  H   H1854     1.0  0.54597  0.81291  0.78261  1.0000
  H   H1855     1.0  0.54248  0.81889  0.82717  1.0000
  C   C2303     1.0  0.44762  0.88656  0.88817  1.0000
  C   C2304     1.0  0.42678  0.89056  0.88844  1.0000
  C   C2305     1.0  0.41758  0.88122  0.87914  1.0000
  C   C2306     1.0  0.42921  0.86784  0.86982  1.0000
  C   C2307     1.0  0.44983  0.86356  0.87057  1.0000
  C   C2308     1.0  0.45905  0.87296  0.87955  1.0000
  H   H1856     1.0  0.41792  0.90115  0.89491  1.0000
  H   H1857     1.0  0.40166  0.88452  0.87871  1.0000
  H   H1858     1.0  0.45883  0.85316  0.86360  1.0000
  H   H1859     1.0  0.47509  0.86973  0.87956  1.0000
  C   C2309     1.0  0.53552  0.87824  0.97943  1.0000
  C   C2310     1.0  0.38771  0.93186  0.77812  1.0000
  C   C2311     1.0  0.40703  0.91637  0.97132  1.0000
  C   C2312     1.0  0.56285  0.95824  0.74752  1.0000
  C   C2313     1.0  0.56377  0.94908  0.77337  1.0000
  C   C2314     1.0  0.54959  0.93922  0.78646  1.0000
  C   C2315     1.0  0.53430  0.93883  0.77382  1.0000
  C   C2316     1.0  0.53297  0.94849  0.74859  1.0000
  C   C2317     1.0  0.54730  0.95801  0.73541  1.0000
  H   H1860     1.0  0.57581  0.94921  0.78289  1.0000
  H   H1861     1.0  0.55061  0.93183  0.80609  1.0000
  H   H1862     1.0  0.52106  0.94840  0.73893  1.0000
  H   H1863     1.0  0.54649  0.96505  0.71569  1.0000
  C   C2318     1.0  0.59981  0.95148  0.58454  1.0000
  C   C2319     1.0  0.60149  0.93591  0.58199  1.0000
  C   C2320     1.0  0.59338  0.93293  0.56231  1.0000
  C   C2321     1.0  0.58418  0.94558  0.54454  1.0000
  C   C2322     1.0  0.58328  0.96116  0.54641  1.0000
  C   C2323     1.0  0.59072  0.96411  0.56668  1.0000
  H   H1864     1.0  0.60866  0.92611  0.59564  1.0000
  H   H1865     1.0  0.59419  0.92089  0.56093  1.0000
  H   H1866     1.0  0.64742  0.85340  0.91060  1.0000
  C   C2324     1.0  0.47998  0.90628  0.96996  1.0000
  C   C2325     1.0  0.39765  0.86422  0.60532  1.0000
  C   C2326     1.0  0.38744  0.81147  0.87657  1.0000
  C   C2327     1.0  0.50558  0.80503  0.63170  1.0000
  C   C2328     1.0  0.62818  0.88868  0.87348  1.0000
  C   C2329     1.0  0.33530  0.87835  0.96900  1.0000
  H   H1867     1.0  0.40907  0.78998  0.63193  1.0000
  C   C2330     1.0  0.42398  0.89102  0.72534  1.0000
  C   C2331     1.0  0.46482  0.84129  0.74018  1.0000
  C   C2332     1.0  0.43938  0.83269  0.57275  1.0000
  C   C2333     1.0  0.36890  0.92328  0.74451  1.0000
  C   C2334     1.0  0.63033  0.75220  0.69341  1.0000
  S   S338      1.0  0.37465  0.79554  0.61056  1.0000
  C   C2335     1.0  0.38179  0.82124  0.57022  1.0000
  H   H1868     1.0  0.36654  0.86851  0.60217  1.0000
  C   C2336     1.0  0.42309  0.81631  0.63581  1.0000
  C   C2337     1.0  0.40478  0.82365  0.62735  1.0000
  C   C2338     1.0  0.38894  0.83174  0.64381  1.0000
  C   C2339     1.0  0.39122  0.83263  0.66884  1.0000
  C   C2340     1.0  0.40920  0.82512  0.67763  1.0000
  C   C2341     1.0  0.42506  0.81701  0.66123  1.0000
  C   C2342     1.0  0.49224  0.79604  0.64998  1.0000
  C   C2343     1.0  0.47346  0.79643  0.64454  1.0000
  H   H1869     1.0  0.56434  0.94128  0.64166  1.0000
  H   H1870     1.0  0.40256  0.82293  0.60821  1.0000
  H   H1871     1.0  0.37474  0.83702  0.63732  1.0000
  H   H1872     1.0  0.37878  0.83856  0.68185  1.0000
  H   H1873     1.0  0.41058  0.82514  0.69751  1.0000
  H   H1874     1.0  0.43857  0.81108  0.66877  1.0000
  H   H1875     1.0  0.43973  0.83931  0.58706  1.0000
  H   H1876     1.0  0.43494  0.85356  0.54151  1.0000
  H   H1877     1.0  0.49650  0.78874  0.66839  1.0000
  H   H1878     1.0  0.46345  0.78911  0.65872  1.0000
  C   C2344     1.0  0.48091  0.91617  0.66883  1.0000
  C   C2345     1.0  0.47795  0.93037  0.67694  1.0000
  C   C2346     1.0  0.46539  0.93235  0.70138  1.0000
  C   C2347     1.0  0.45658  0.91989  0.71831  1.0000
  C   C2348     1.0  0.46025  0.90527  0.71089  1.0000
  C   C2349     1.0  0.47169  0.90377  0.68546  1.0000
  P   P76       1.0  0.44850  0.88930  0.73280  1.0000
  C   C2350     1.0  0.46312  0.86976  0.73050  1.0000
  C   C2351     1.0  0.44631  0.89117  0.76654  1.0000
  C   C2352     1.0  0.46212  0.88368  0.78029  1.0000
  C   C2353     1.0  0.46133  0.88641  0.80538  1.0000
  C   C2354     1.0  0.44496  0.89675  0.81671  1.0000
  C   C2355     1.0  0.42892  0.90389  0.80352  1.0000
  C   C2356     1.0  0.42958  0.90112  0.77846  1.0000
  C   C2357     1.0  0.48537  0.83909  0.72877  1.0000
  C   C2358     1.0  0.49497  0.85209  0.71876  1.0000
  C   C2359     1.0  0.48399  0.86737  0.71985  1.0000
  H   H1879     1.0  0.49002  0.91503  0.64939  1.0000
  H   H1880     1.0  0.48496  0.93998  0.66389  1.0000
  H   H1881     1.0  0.46217  0.94360  0.70709  1.0000
  H   H1882     1.0  0.44668  0.92189  0.73692  1.0000
  H   H1883     1.0  0.47328  0.89309  0.67850  1.0000
  H   H1884     1.0  0.47516  0.87585  0.77169  1.0000
  H   H1885     1.0  0.47337  0.88042  0.81614  1.0000
  H   H1886     1.0  0.44469  0.89921  0.83575  1.0000
  H   H1887     1.0  0.41605  0.91159  0.81269  1.0000
  H   H1888     1.0  0.41735  0.90704  0.76805  1.0000
  H   H1889     1.0  0.49390  0.82723  0.72828  1.0000
  H   H1890     1.0  0.51103  0.85023  0.71051  1.0000
  H   H1891     1.0  0.49196  0.87715  0.71283  1.0000
  C   C2360     1.0  0.37021  0.87951  0.63212  1.0000
  H   H1892     1.0  0.43836  0.83799  0.82144  1.0000
  C   C2361     1.0  0.34335  0.84002  0.76067  1.0000
  H   H1893     1.0  0.61615  0.81574  0.97344  1.0000
  H   H1894     1.0  0.33778  0.85037  0.60294  1.0000
  S   S339      1.0  0.35461  0.77697  0.73286  1.0000
  Fe  Fe170     1.0  0.35310  0.85046  0.84420  1.0000
  C   C2362     1.0  0.42012  0.80999  0.84620  1.0000
  C   C2363     1.0  0.61748  0.74091  0.74801  1.0000
  C   C2364     1.0  0.62233  0.82805  0.93201  1.0000
  C   C2365     1.0  0.40229  0.84300  0.96495  1.0000
  H   H1895     1.0  0.53784  0.94124  0.57665  1.0000
  H   H1896     1.0  0.34077  0.85083  0.74576  1.0000
  C   C2366     1.0  0.63411  0.79996  0.94823  1.0000
  C   C2367     1.0  0.45252  0.96330  0.54848  1.0000
  H   H1897     1.0  0.64948  0.85517  0.66576  1.0000
  C   C2368     1.0  0.46207  0.83344  0.67290  1.0000
  C   C2369     1.0  0.44615  0.84113  0.68970  1.0000
  C   C2370     1.0  0.44235  0.85761  0.68555  1.0000
  C   C2371     1.0  0.45485  0.86637  0.66504  1.0000
  C   C2372     1.0  0.47023  0.85879  0.64712  1.0000
  C   C2373     1.0  0.47383  0.84223  0.65147  1.0000
  P   P77       1.0  0.48772  0.86955  0.62180  1.0000
  C   C2374     1.0  0.47699  0.89040  0.61264  1.0000
  C   C2375     1.0  0.50980  0.86540  0.63657  1.0000
  C   C2376     1.0  0.51310  0.87611  0.64959  1.0000
  C   C2377     1.0  0.52902  0.87204  0.66334  1.0000
  C   C2378     1.0  0.54191  0.85736  0.66403  1.0000
  C   C2379     1.0  0.53868  0.84662  0.65130  1.0000
  C   C2380     1.0  0.52268  0.85051  0.63777  1.0000
  C   C2381     1.0  0.48950  0.90172  0.60395  1.0000
  C   C2382     1.0  0.48101  0.91789  0.59984  1.0000
  C   C2383     1.0  0.46003  0.92282  0.60413  1.0000
  C   C2384     1.0  0.44754  0.91169  0.61039  1.0000
  C   C2385     1.0  0.45604  0.89554  0.61398  1.0000
  C   C2386     1.0  0.49400  0.86193  0.59172  1.0000
  C   C2387     1.0  0.47881  0.85836  0.58235  1.0000
  C   C2388     1.0  0.48364  0.85245  0.55903  1.0000
  C   C2389     1.0  0.50364  0.84983  0.54519  1.0000
  C   C2390     1.0  0.51879  0.85358  0.55418  1.0000
  C   C2391     1.0  0.51397  0.85987  0.57707  1.0000
  H   H1898     1.0  0.46568  0.82063  0.67695  1.0000
  H   H1899     1.0  0.43731  0.83427  0.70659  1.0000
  H   H1900     1.0  0.43026  0.86353  0.69898  1.0000
  H   H1901     1.0  0.45261  0.87895  0.66366  1.0000
  H   H1902     1.0  0.48629  0.83607  0.63896  1.0000
  H   H1903     1.0  0.50327  0.88745  0.64954  1.0000
  H   H1904     1.0  0.53121  0.88008  0.67396  1.0000
  H   H1905     1.0  0.55407  0.85410  0.67504  1.0000
  H   H1906     1.0  0.54828  0.83507  0.65262  1.0000
  H   H1907     1.0  0.52031  0.84174  0.62861  1.0000
  H   H1908     1.0  0.50579  0.89803  0.60023  1.0000
  H   H1909     1.0  0.49061  0.92668  0.59345  1.0000
  H   H1910     1.0  0.45352  0.93533  0.60203  1.0000
  H   H1911     1.0  0.43129  0.91563  0.61246  1.0000
  H   H1912     1.0  0.44618  0.88712  0.61823  1.0000
  H   H1913     1.0  0.46324  0.86047  0.59270  1.0000
  H   H1914     1.0  0.47186  0.85030  0.55112  1.0000
  H   H1915     1.0  0.50725  0.84550  0.52690  1.0000
  H   H1916     1.0  0.53419  0.85201  0.54297  1.0000
  H   H1917     1.0  0.52584  0.86330  0.58302  1.0000
  C   C2392     1.0  0.59031  0.87065  0.64734  1.0000
  C   C2393     1.0  0.59416  0.85940  0.67036  1.0000
  C   C2394     1.0  0.58814  0.86360  0.69523  1.0000
  C   C2395     1.0  0.57808  0.87901  0.69708  1.0000
  C   C2396     1.0  0.57315  0.89013  0.67420  1.0000
  C   C2397     1.0  0.57994  0.88597  0.64915  1.0000
  P   P78       1.0  0.55922  0.90975  0.67716  1.0000
  C   C2398     1.0  0.53607  0.90913  0.70192  1.0000
  C   C2399     1.0  0.57597  0.91883  0.68694  1.0000
  C   C2400     1.0  0.57317  0.92008  0.71362  1.0000
  C   C2401     1.0  0.58662  0.92660  0.72128  1.0000
  C   C2402     1.0  0.60268  0.93223  0.70240  1.0000
  C   C2403     1.0  0.60588  0.93064  0.67600  1.0000
  C   C2404     1.0  0.59282  0.92368  0.66838  1.0000
  C   C2405     1.0  0.52400  0.92334  0.70785  1.0000
  C   C2406     1.0  0.50662  0.92306  0.72799  1.0000
  C   C2407     1.0  0.50116  0.90863  0.74231  1.0000
  C   C2408     1.0  0.51281  0.89450  0.73606  1.0000
  C   C2409     1.0  0.53007  0.89474  0.71579  1.0000
  C   C2410     1.0  0.55155  0.92056  0.64607  1.0000
  C   C2411     1.0  0.54023  0.91397  0.63471  1.0000
  C   C2412     1.0  0.53519  0.92147  0.60990  1.0000
  C   C2413     1.0  0.55148  0.94286  0.60811  1.0000
  C   C2414     1.0  0.55649  0.93541  0.63302  1.0000
  H   H1918     1.0  0.59524  0.86750  0.62799  1.0000
  H   H1919     1.0  0.60181  0.84745  0.66887  1.0000
  H   H1920     1.0  0.59107  0.85487  0.71315  1.0000
  H   H1921     1.0  0.57371  0.88214  0.71649  1.0000
  H   H1922     1.0  0.57740  0.89445  0.63090  1.0000
  H   H1923     1.0  0.56072  0.91600  0.72868  1.0000
  H   H1924     1.0  0.58442  0.92751  0.74186  1.0000
  H   H1925     1.0  0.61255  0.93788  0.70823  1.0000
  H   H1926     1.0  0.61835  0.93497  0.66129  1.0000
  H   H1927     1.0  0.59571  0.92240  0.64786  1.0000
  H   H1928     1.0  0.52835  0.93459  0.69740  1.0000
  H   H1929     1.0  0.49775  0.93403  0.73305  1.0000
  H   H1930     1.0  0.48814  0.90833  0.75853  1.0000
  H   H1931     1.0  0.50875  0.88330  0.74740  1.0000
  H   H1932     1.0  0.53874  0.88362  0.71147  1.0000
  H   H1933     1.0  0.53576  0.90282  0.64465  1.0000
  C   C2415     1.0  0.34585  0.82534  0.75395  1.0000
  S   S340      1.0  0.38212  0.79616  0.68038  1.0000
  P   P79       1.0  0.44354  0.80611  0.61397  1.0000
  H   H1934     1.0  0.39279  0.80572  0.75284  1.0000
  C   C2416     1.0  0.39214  0.93779  0.75047  1.0000
  H   H1935     1.0  0.39481  0.93538  0.79107  1.0000
  H   H1936     1.0  0.51240  0.95629  0.61978  1.0000
  H   H1937     1.0  0.42337  0.81571  0.90626  1.0000
  C   C2417     1.0  0.46770  0.80611  0.62095  1.0000
  C   C2418     1.0  0.46067  0.88563  0.52138  1.0000
  C   C2419     1.0  0.47155  0.89258  0.53267  1.0000
  C   C2420     1.0  0.50794  0.91736  0.97208  1.0000
  S   S341      1.0  0.36906  0.90274  0.49745  1.0000
  C   C2421     1.0  0.47628  0.81095  0.79512  1.0000
  C   C2422     1.0  0.43658  0.84079  0.54706  1.0000
  C   C2423     1.0  0.37741  0.92378  0.87009  1.0000
  C   C2424     1.0  0.44146  0.81615  0.58005  1.0000
  H   H1938     1.0  0.51998  0.80481  0.63618  1.0000
  H   H1939     1.0  0.44479  0.88602  0.52934  1.0000
  H   H1940     1.0  0.46387  0.89820  0.54924  1.0000
  C   C2425     1.0  0.48414  0.97237  0.62445  1.0000
  H   H1941     1.0  0.34359  0.79788  0.97001  1.0000
  C   C2426     1.0  0.54974  0.89544  0.93876  1.0000
  H   H1942     1.0  0.39392  0.81305  0.56090  1.0000
  C   C2427     1.0  0.42017  0.89849  0.69965  1.0000
  H   H1943     1.0  0.57652  0.97099  0.53241  1.0000
  C   C2428     1.0  0.40867  0.88453  0.74490  1.0000
  C   C2429     1.0  0.60981  0.75602  0.70533  1.0000
  C   C2430     1.0  0.42259  0.78123  0.62823  1.0000
  C   C2431     1.0  0.43590  0.83244  0.52843  1.0000
  C   C2432     1.0  0.61548  0.86296  0.91242  1.0000
  H   H1944     1.0  0.51885  0.97053  0.68256  1.0000
  H   H1945     1.0  0.50175  0.91494  0.93555  1.0000
  C   C2433     1.0  0.49685  0.91322  0.95710  1.0000
  S   S342      1.0  0.42585  0.94247  0.66459  1.0000
  H   H1946     1.0  0.61696  0.77575  0.59259  1.0000
  C   C2434     1.0  0.44152  0.78565  0.61965  1.0000
  C   C2435     1.0  0.48146  0.81476  0.60232  1.0000
  H   H1947     1.0  0.43372  0.83879  0.50853  1.0000
  H   H1948     1.0  0.47787  0.82169  0.58347  1.0000
  C   C2436     1.0  0.63921  0.79288  0.63723  1.0000
  H   H1949     1.0  0.46425  0.94656  0.93683  1.0000
  H   H1950     1.0  0.35998  0.77490  0.79756  1.0000
  H   H1951     1.0  0.39862  0.85196  0.75560  1.0000
  C   C2437     1.0  0.44059  0.80782  0.56131  1.0000
  H   H1952     1.0  0.60239  0.78823  0.76302  1.0000
  C   C2438     1.0  0.33960  0.97501  0.77559  1.0000
  C   C2439     1.0  0.64180  0.82986  0.62074  1.0000
  H   H1953     1.0  0.63379  0.76942  0.74972  1.0000
  C   C2440     1.0  0.47403  0.98697  0.63053  1.0000
  C   C2441     1.0  0.50036  0.81421  0.60772  1.0000
  C   C2442     1.0  0.43787  0.81597  0.53556  1.0000
  C   C2443     1.0  0.62329  0.78045  0.60498  1.0000
  Fe  Fe171     1.0  0.35477  0.88496  0.82059  1.0000
  C   C2444     1.0  0.46091  0.75435  0.81618  1.0000
  C   C2445     1.0  0.34296  0.91821  0.56572  1.0000
  C   C2446     1.0  0.62355  0.81473  0.95317  1.0000
  H   H1954     1.0  0.53073  0.87935  0.94013  1.0000
  H   H1955     1.0  0.43991  0.77947  0.85844  1.0000
  H   H1956     1.0  0.55549  0.95423  0.59800  1.0000
  C   C2447     1.0  0.41152  0.80642  0.77938  1.0000
  C   C2448     1.0  0.54242  0.84275  0.93824  1.0000
  S   S343      1.0  0.36470  0.85063  0.88013  1.0000
  H   H1957     1.0  0.44158  0.79512  0.56660  1.0000
  H   H1958     1.0  0.51099  0.82092  0.59339  1.0000
  C   C2449     1.0  0.61178  0.79096  0.74332  1.0000
  C   C2450     1.0  0.62947  0.78036  0.73582  1.0000
  C   C2451     1.0  0.48407  0.95815  0.51711  1.0000
  H   H1959     1.0  0.37809  0.88049  0.75392  1.0000
  H   H1960     1.0  0.42667  0.88424  0.94342  1.0000
  C   C2452     1.0  0.33879  0.89580  0.66993  1.0000
  H   H1961     1.0  0.38639  0.93767  0.71231  1.0000
  C   C2453     1.0  0.43823  0.75395  0.62714  1.0000
  H   H1962     1.0  0.44138  0.97084  0.56031  1.0000
  H   H1963     1.0  0.42054  0.75152  0.77192  1.0000
  H   H1964     1.0  0.43695  0.80954  0.52125  1.0000
  C   C2454     1.0  0.45720  0.75828  0.61809  1.0000
  H   H1965     1.0  0.35950  0.89552  0.58088  1.0000
  C   C2455     1.0  0.60325  0.75034  0.73268  1.0000
  H   H1966     1.0  0.48728  0.96181  0.68422  1.0000
  C   C2456     1.0  0.47014  0.96833  0.53234  1.0000
  H   H1967     1.0  0.39500  0.92668  0.97043  1.0000
  H   H1968     1.0  0.62801  0.81016  0.52344  1.0000
  C   C2457     1.0  0.64218  0.78490  0.59559  1.0000
  C   C2458     1.0  0.34922  0.81142  0.77330  1.0000
  C   C2459     1.0  0.62849  0.84397  0.97849  1.0000
  Fe  Fe172     1.0  0.42370  0.87896  0.49421  1.0000
  C   C2460     1.0  0.53798  0.88390  0.95159  1.0000
  H   H1969     1.0  0.39221  0.80849  0.83639  1.0000
  S   S344      1.0  0.57738  0.75458  0.74799  1.0000
  C   C2461     1.0  0.60589  0.80485  0.72515  1.0000
  H   H1970     1.0  0.59191  0.81291  0.73083  1.0000
  H   H1971     1.0  0.36933  0.88143  0.91024  1.0000
  H   H1972     1.0  0.37933  0.88822  0.66109  1.0000
  C   C2462     1.0  0.37035  0.76409  0.79437  1.0000
  H   H1973     1.0  0.37136  0.81163  0.88033  1.0000
  H   H1974     1.0  0.59781  0.77859  0.63782  1.0000
  C   C2463     1.0  0.45331  0.83261  0.81270  1.0000
  H   H1975     1.0  0.34480  0.82209  0.62603  1.0000
  C   C2464     1.0  0.54131  0.93569  0.59623  1.0000
  H   H1976     1.0  0.52124  0.92244  0.96210  1.0000
  C   C2465     1.0  0.46811  0.76967  0.71454  1.0000
  H   H1977     1.0  0.40618  0.76222  0.63846  1.0000
  H   H1978     1.0  0.48761  0.96334  0.77996  1.0000
  C   C2466     1.0  0.39434  0.94705  0.55499  1.0000
  C   C2467     1.0  0.34994  0.81220  0.79931  1.0000
  H   H1979     1.0  0.51974  0.98685  0.71283  1.0000
  H   H1980     1.0  0.47440  0.91680  0.48415  1.0000
  C   C2468     1.0  0.64753  0.84807  0.65310  1.0000
  H   H1981     1.0  0.64048  0.83603  0.96839  1.0000
  H   H1982     1.0  0.44977  0.92409  0.93484  1.0000
  Fe  Fe173     1.0  0.57856  0.98012  0.68679  1.0000
  H   H1983     1.0  0.52687  0.91615  0.60096  1.0000
  C   C2469     1.0  0.48777  0.96830  0.69866  1.0000
  C   C2470     1.0  0.42094  0.76546  0.63193  1.0000
  C   C2471     1.0  0.46227  0.78515  0.71867  1.0000
  C   C2472     1.0  0.50552  0.97336  0.69748  1.0000
  C   C2473     1.0  0.63533  0.79742  0.69160  1.0000
  H   H1984     1.0  0.35714  0.91480  0.90597  1.0000
  C   C2474     1.0  0.39245  0.94756  0.58189  1.0000
  C   C2475     1.0  0.37322  0.83898  0.95198  1.0000
  H   H1985     1.0  0.45812  0.74962  0.70956  1.0000
  C   C2476     1.0  0.48796  0.96557  0.84281  1.0000
  H   H1986     1.0  0.55199  0.84640  0.89539  1.0000
  H   H1987     1.0  0.46680  0.76127  0.77309  1.0000
  C   C2477     1.0  0.36795  0.92262  0.89696  1.0000
  H   H1988     1.0  0.48818  0.94660  0.82460  1.0000
  H   H1989     1.0  0.46952  0.93173  0.77025  1.0000
  C   C2478     1.0  0.44666  0.93549  0.92144  1.0000
  C   C2479     1.0  0.45884  0.77411  0.61404  1.0000
  H   H1990     1.0  0.47362  0.77728  0.60669  1.0000
  C   C2480     1.0  0.36497  0.91685  0.77197  1.0000
  H   H1991     1.0  0.54189  0.96651  0.55219  1.0000
  H   H1992     1.0  0.39892  0.84718  0.92411  1.0000
  Fe  Fe174     1.0  0.57800  0.89330  0.48732  1.0000
  C   C2481     1.0  0.34743  0.82688  0.80601  1.0000
  H   H1993     1.0  0.41667  0.84689  0.95959  1.0000
  C   C2482     1.0  0.35414  0.82629  0.60700  1.0000
  H   H1994     1.0  0.43241  0.97969  0.81922  1.0000
  C   C2483     1.0  0.37268  0.93135  0.91226  1.0000
  H   H1995     1.0  0.64796  0.81010  0.88047  1.0000
  S   S345      1.0  0.36819  0.76404  0.67722  1.0000
  C   C2484     1.0  0.45485  0.94812  0.92240  1.0000
  H   H1996     1.0  0.61948  0.98062  0.71351  1.0000
  Fe  Fe175     1.0  0.35228  0.80160  0.70757  1.0000
  H   H1997     1.0  0.60182  0.85915  0.49872  1.0000
  C   C2485     1.0  0.61748  0.80800  0.69930  1.0000
  H   H1998     1.0  0.45389  0.92943  0.85450  1.0000
  C   C2486     1.0  0.37709  0.87053  0.61235  1.0000
  C   C2487     1.0  0.64456  0.74283  0.70868  1.0000
  C   C2488     1.0  0.36327  0.88054  0.93133  1.0000
  H   H1999     1.0  0.38996  0.90885  0.56340  1.0000
  C   C2489     1.0  0.51562  0.97747  0.62953  1.0000
  C   C2490     1.0  0.48698  0.96890  0.79615  1.0000
  H   H2000     1.0  0.63471  0.85209  0.59327  1.0000
  P   P80       1.0  0.43563  0.80747  0.81406  1.0000
  H   H2001     1.0  0.35111  0.80012  0.76821  1.0000
  S   S346      1.0  0.40972  0.95032  0.73679  1.0000
  C   C2491     1.0  0.64721  0.82234  0.64557  1.0000
  S   S347      1.0  0.45688  0.86800  0.48818  1.0000
  H   H2002     1.0  0.35100  0.94375  0.82600  1.0000
  H   H2003     1.0  0.39957  0.90799  0.94082  1.0000
  H   H2004     1.0  0.61214  0.81844  0.68514  1.0000
  C   C2492     1.0  0.63935  0.84633  0.61219  1.0000
  C   C2493     1.0  0.36341  0.74993  0.79849  1.0000
  C   C2494     1.0  0.48739  0.95922  0.82160  1.0000
  S   S348      1.0  0.47938  0.79565  0.72345  1.0000
  H   H2005     1.0  0.45679  0.96824  0.71867  1.0000
  C   C2495     1.0  0.45114  0.96264  0.90448  1.0000
  H   H2006     1.0  0.61081  0.83612  0.53472  1.0000
  H   H2007     1.0  0.39853  0.90519  0.67383  1.0000
  C   C2496     1.0  0.58169  0.84564  0.93856  1.0000
  H   H2008     1.0  0.48883  0.95787  0.86229  1.0000
  C   C2497     1.0  0.40155  0.89909  0.69350  1.0000
  H   H2009     1.0  0.47670  0.92032  0.81568  1.0000
  C   C2498     1.0  0.45354  0.76167  0.71233  1.0000
  C   C2499     1.0  0.61444  0.83482  0.51410  1.0000
  H   H2010     1.0  0.34769  0.85527  0.66807  1.0000
  P   P81       1.0  0.34373  0.88844  0.63963  1.0000
  Fe  Fe176     1.0  0.33872  0.77204  0.70389  1.0000
  C   C2500     1.0  0.64124  0.78355  0.71009  1.0000
  C   C2501     1.0  0.40961  0.90595  0.95455  1.0000
  C   C2502     1.0  0.42846  0.95201  0.80562  1.0000
  H   H2011     1.0  0.53166  0.97372  0.62924  1.0000
  C   C2503     1.0  0.39935  0.80977  0.85155  1.0000
  H   H2012     1.0  0.63300  0.89863  0.85843  1.0000
  H   H2013     1.0  0.49749  0.96186  0.50392  1.0000
  C   C2504     1.0  0.60757  0.88874  0.88338  1.0000
  C   C2505     1.0  0.45025  0.93452  0.83490  1.0000
  Fe  Fe177     1.0  0.34411  0.87417  0.88063  1.0000
  H   H2014     1.0  0.45372  0.75119  0.85908  1.0000
  C   C2506     1.0  0.55918  0.90116  0.95394  1.0000
  H   H2015     1.0  0.36573  0.83955  0.93613  1.0000
  H   H2016     1.0  0.39929  0.93373  0.83792  1.0000
  H   H2017     1.0  0.62915  0.83614  0.88891  1.0000
  Fe  Fe178     1.0  0.41059  0.95860  0.69265  1.0000
  H   H2018     1.0  0.52718  0.84191  0.93798  1.0000
  H   H2019     1.0  0.39636  0.95752  0.53945  1.0000
  H   H2020     1.0  0.48375  0.76376  0.71352  1.0000
  H   H2021     1.0  0.35146  0.91851  0.54544  1.0000
  H   H2022     1.0  0.46716  0.74194  0.81650  1.0000
  C   C2507     1.0  0.64312  0.79832  0.92208  1.0000
  H   H2023     1.0  0.43686  0.74171  0.63038  1.0000
  H   H2024     1.0  0.65114  0.78685  0.91822  1.0000
  H   H2025     1.0  0.58967  0.97615  0.56829  1.0000
  H   H2026     1.0  0.44476  0.81195  0.86282  1.0000
  C   C2508     1.0  0.34394  0.91031  0.66879  1.0000
  C   C2509     1.0  0.45920  0.93560  0.78727  1.0000
  C   C2510     1.0  0.56774  0.84258  0.96271  1.0000
  H   H2027     1.0  0.43797  0.85791  0.75061  1.0000
  C   C2511     1.0  0.36119  0.96593  0.81704  1.0000
  C   C2512     1.0  0.41492  0.83256  0.78074  1.0000
  H   H2028     1.0  0.36167  0.92005  0.73139  1.0000
  Fe  Fe179     1.0  0.39916  0.95280  0.64486  1.0000
  H   H2029     1.0  0.43852  0.95160  0.76380  1.0000
  H   H2030     1.0  0.39288  0.95842  0.58701  1.0000
  C   C2513     1.0  0.39339  0.93309  0.54820  1.0000
  C   C2514     1.0  0.64226  0.85542  0.62831  1.0000
  H   H2031     1.0  0.64007  0.86820  0.62174  1.0000
  C   C2515     1.0  0.38279  0.93342  0.73370  1.0000
  C   C2516     1.0  0.38557  0.98052  0.85943  1.0000
  C   C2517     1.0  0.39008  0.88515  0.73863  1.0000
  C   C2518     1.0  0.36413  0.83427  0.97896  1.0000
  H   H2032     1.0  0.51265  0.96540  0.53558  1.0000
  C   C2519     1.0  0.44176  0.94688  0.78366  1.0000
  H   H2033     1.0  0.59899  0.76315  0.69329  1.0000
  C   C2520     1.0  0.64140  0.81143  0.90082  1.0000
  C   C2521     1.0  0.39691  0.94202  0.87387  1.0000
  C   C2522     1.0  0.41673  0.81372  0.89120  1.0000
  H   H2034     1.0  0.65848  0.87596  0.87588  1.0000
  H   H2035     1.0  0.61153  0.78953  0.66608  1.0000
  C   C2523     1.0  0.50604  0.98252  0.71496  1.0000
  H   H2036     1.0  0.45755  0.83110  0.74817  1.0000
  H   H2037     1.0  0.36978  0.96230  0.83280  1.0000
  H   H2038     1.0  0.43142  0.90398  0.68432  1.0000
  S   S349      1.0  0.39501  0.93286  0.51453  1.0000
  C   C2524     1.0  0.38664  0.89222  0.71287  1.0000
  H   H2039     1.0  0.47944  0.79958  0.78973  1.0000
  Fe  Fe180     1.0  0.39573  0.90926  0.50567  1.0000
  C   C2525     1.0  0.55638  0.84537  0.91421  1.0000
  C   C2526     1.0  0.37444  0.92110  0.78885  1.0000
  H   H2040     1.0  0.37127  0.91631  0.81010  1.0000
  C   C2527     1.0  0.39089  0.76460  0.78503  1.0000
  H   H2041     1.0  0.45300  0.78955  0.77232  1.0000
  C   C2528     1.0  0.38846  0.92022  0.59522  1.0000
  H   H2042     1.0  0.56839  0.91004  0.94411  1.0000
  C   C2529     1.0  0.64991  0.83161  0.66177  1.0000
  C   C2530     1.0  0.46332  0.93810  0.53504  1.0000
  C   C2531     1.0  0.38702  0.94109  0.90075  1.0000
  H   H2043     1.0  0.63520  0.75643  0.67216  1.0000
  S   S350      1.0  0.47115  0.95969  0.61781  1.0000
  S   S351      1.0  0.34750  0.82755  0.83906  1.0000
  H   H2044     1.0  0.39175  0.88060  0.94045  1.0000
  H   H2045     1.0  0.49194  0.93495  0.50785  1.0000
  C   C2532     1.0  0.43481  0.93732  0.90265  1.0000
  H   H2046     1.0  0.43543  0.94450  0.56192  1.0000
  S   S352      1.0  0.37692  0.86255  0.81507  1.0000
  C   C2533     1.0  0.42487  0.89249  0.95603  1.0000
  C   C2534     1.0  0.38931  0.93415  0.60206  1.0000
  S   S353      1.0  0.36694  0.88825  0.85386  1.0000
  C   C2535     1.0  0.50486  0.96766  0.62402  1.0000
  C   C2536     1.0  0.34433  0.84080  0.78655  1.0000
  C   C2537     1.0  0.43936  0.96449  0.88548  1.0000
  H   H2047     1.0  0.63507  0.78973  0.96465  1.0000
  S   S354      1.0  0.38598  0.93447  0.63600  1.0000
  C   C2538     1.0  0.65015  0.79107  0.61167  1.0000
  H   H2048     1.0  0.38595  0.90989  0.61070  1.0000
  S   S355      1.0  0.38272  0.96762  0.67501  1.0000
  H   H2049     1.0  0.41478  0.96052  0.80235  1.0000
  H   H2050     1.0  0.41098  0.87908  0.76507  1.0000
  C   C2539     1.0  0.48082  0.94300  0.51884  1.0000
  C   C2540     1.0  0.43295  0.94622  0.83135  1.0000
  C   C2541     1.0  0.57594  0.84677  0.91435  1.0000
  Fe  Fe181     1.0  0.43862  0.96333  0.63847  1.0000
  H   H2051     1.0  0.38754  0.84158  0.53856  1.0000
  Fe  Fe182     1.0  0.37992  0.87858  0.52113  1.0000
  C   C2542     1.0  0.39191  0.93333  0.85861  1.0000
  C   C2543     1.0  0.39075  0.91963  0.56837  1.0000
  C   C2544     1.0  0.38413  0.88142  0.64572  1.0000
  H   H2052     1.0  0.37376  0.91707  0.85820  1.0000
  P   P82       1.0  0.41651  0.95368  0.85948  1.0000
  H   H2053     1.0  0.34422  0.92742  0.69080  1.0000
  H   H2054     1.0  0.46651  0.85180  0.81384  1.0000
  C   C2545     1.0  0.47062  0.97199  0.71797  1.0000
  C   C2546     1.0  0.62419  0.82023  0.50768  1.0000
  S   S356      1.0  0.39944  0.86932  0.48551  1.0000
  C   C2547     1.0  0.37596  0.88013  0.94852  1.0000
  C   C2548     1.0  0.46929  0.84051  0.80822  1.0000
  S   S357      1.0  0.42600  0.97857  0.66859  1.0000
  C   C2549     1.0  0.43094  0.95185  0.88461  1.0000
  C   C2550     1.0  0.42877  0.81179  0.86635  1.0000
  S   S358      1.0  0.58160  0.96935  0.72979  1.0000
  C   C2551     1.0  0.49129  0.87723  0.49083  1.0000
  C   C2552     1.0  0.44904  0.94833  0.54947  1.0000
  C   C2553     1.0  0.45660  0.81771  0.80654  1.0000
  H   H2055     1.0  0.42009  0.84033  0.78911  1.0000
  C   C2554     1.0  0.40463  0.87480  0.63912  1.0000
  C   C2555     1.0  0.48879  0.83371  0.79705  1.0000
  H   H2056     1.0  0.63895  0.82320  0.60810  1.0000
  H   H2057     1.0  0.50121  0.83983  0.79361  1.0000
  H   H2058     1.0  0.59637  0.89874  0.87617  1.0000
  C   C2556     1.0  0.49228  0.81896  0.79045  1.0000
  H   H2059     1.0  0.38522  0.83476  0.73700  1.0000
  H   H2060     1.0  0.42221  0.98094  0.72529  1.0000
  C   C2557     1.0  0.45286  0.78123  0.79130  1.0000
  H   H2061     1.0  0.42906  0.92722  0.90187  1.0000
  H   H2062     1.0  0.50743  0.81377  0.78168  1.0000
  C   C2558     1.0  0.44501  0.78658  0.81518  1.0000
  C   C2559     1.0  0.41987  0.81605  0.78927  1.0000
  C   C2560     1.0  0.40265  0.83925  0.76176  1.0000
  S   S359      1.0  0.35631  0.86791  0.55365  1.0000
  C   C2561     1.0  0.36221  0.84784  0.56935  1.0000
  C   C2562     1.0  0.36979  0.81570  0.59499  1.0000
  C   C2563     1.0  0.40550  0.97425  0.84823  1.0000
  H   H2063     1.0  0.37218  0.89274  0.70823  1.0000
  H   H2064     1.0  0.43702  0.97571  0.87147  1.0000
  C   C2564     1.0  0.44548  0.77565  0.83969  1.0000
  H   H2065     1.0  0.41418  0.79374  0.78649  1.0000
  C   C2565     1.0  0.39499  0.82956  0.75141  1.0000
  Fe  Fe183     1.0  0.36498  0.78959  0.65558  1.0000
  H   H2066     1.0  0.39600  0.77569  0.78080  1.0000
  H   H2067     1.0  0.42729  0.86115  0.61374  1.0000
  H   H2068     1.0  0.46089  0.92632  0.53655  1.0000
  C   C2566     1.0  0.39928  0.81317  0.76036  1.0000
  C   C2567     1.0  0.45333  0.75958  0.84014  1.0000
  C   C2568     1.0  0.46069  0.76520  0.79176  1.0000
  C   C2569     1.0  0.41142  0.86626  0.61884  1.0000
  H   H2069     1.0  0.41522  0.87646  0.64958  1.0000
  C   C2570     1.0  0.43758  0.88938  0.97419  1.0000
  C   C2571     1.0  0.35060  0.95549  0.81325  1.0000
  H   H2070     1.0  0.35243  0.80142  0.81427  1.0000
  H   H2071     1.0  0.40270  0.85756  0.58964  1.0000
  C   C2572     1.0  0.39608  0.81352  0.89633  1.0000
  H   H2072     1.0  0.39071  0.94761  0.91299  1.0000
  S   S360      1.0  0.34801  0.90371  0.78454  1.0000
  H   H2073     1.0  0.44115  0.93398  0.49646  1.0000
  S   S361      1.0  0.34514  0.82488  0.72104  1.0000
  C   C2573     1.0  0.35021  0.84227  0.59399  1.0000
  C   C2574     1.0  0.34290  0.87968  0.94148  1.0000
  C   C2575     1.0  0.63087  0.82622  0.90571  1.0000
  P   P83       1.0  0.64948  0.80114  0.65761  1.0000
  H   H2074     1.0  0.58522  0.87643  0.91069  1.0000
  C   C2576     1.0  0.36107  0.98089  0.80007  1.0000
  H   H2075     1.0  0.58654  0.84880  0.89549  1.0000
  C   C2577     1.0  0.40473  0.75095  0.78008  1.0000
  H   H2076     1.0  0.45763  0.97239  0.90510  1.0000
  S   S362      1.0  0.33473  0.79730  0.68048  1.0000
  H   H2077     1.0  0.47200  0.90277  0.95797  1.0000
  H   H2078     1.0  0.47061  0.74937  0.61423  1.0000
  H   H2079     1.0  0.65065  0.78355  0.57589  1.0000
  H   H2080     1.0  0.35320  0.74256  0.75527  1.0000
  H   H2081     1.0  0.45801  0.98329  0.75129  1.0000
  C   C2578     1.0  0.61060  0.85069  0.96861  1.0000
  C   C2579     1.0  0.33483  0.80503  0.93191  1.0000
  C   C2580     1.0  0.48907  0.98598  0.73475  1.0000
  C   C2581     1.0  0.39225  0.84322  0.94501  1.0000
  C   C2582     1.0  0.60927  0.84778  0.49389  1.0000
  S   S363      1.0  0.55390  0.91468  0.49261  1.0000
  H   H2082     1.0  0.34233  0.85217  0.79155  1.0000
  C   C2583     1.0  0.36856  0.87833  0.97614  1.0000
  C   C2584     1.0  0.54812  0.84129  0.96247  1.0000
  S   S364      1.0  0.60651  0.98363  0.65547  1.0000
  H   H2083     1.0  0.58254  0.86756  0.97314  1.0000
  C   C2585     1.0  0.52885  0.97600  0.55322  1.0000
  C   C2586     1.0  0.51210  0.97547  0.54359  1.0000
  C   C2587     1.0  0.33481  0.82344  0.95879  1.0000
  C   C2588     1.0  0.47131  0.98067  0.73617  1.0000
  P   P84       1.0  0.33669  0.74933  0.80895  1.0000
  C   C2589     1.0  0.48712  0.98515  0.79166  1.0000
  H   H2084     1.0  0.65457  0.77493  0.70461  1.0000
  H   H2085     1.0  0.65366  0.82610  0.68125  1.0000
  Fe  Fe184     1.0  0.39947  0.98642  0.64816  1.0000
  H   H2086     1.0  0.44941  0.87892  0.97473  1.0000
  H   H2087     1.0  0.38572  0.98105  0.73925  1.0000
  C   C2590     1.0  0.35007  0.98565  0.77942  1.0000
  H   H2088     1.0  0.33762  0.79304  0.92906  1.0000
  C   C2591     1.0  0.33741  0.90495  0.61269  1.0000
  H   H2089     1.0  0.52794  0.98279  0.77621  1.0000
  C   C2592     1.0  0.41685  0.98415  0.82782  1.0000
  H   H2090     1.0  0.48949  0.98646  0.85483  1.0000
  C   C2593     1.0  0.33469  0.85820  0.65870  1.0000
  C   C2594     1.0  0.34005  0.91626  0.69192  1.0000
  H   H2091     1.0  0.57881  0.97358  0.96779  1.0000
  H   H2092     1.0  0.66482  0.79446  0.60421  1.0000
  H   H2093     1.0  0.57187  0.84123  0.98173  1.0000
  C   C2595     1.0  0.55651  0.89565  0.98185  1.0000
  H   H2094     1.0  0.46057  0.98531  0.48295  1.0000
  C   C2596     1.0  0.59597  0.86172  0.98119  1.0000
  C   C2597     1.0  0.63813  0.73735  0.73611  1.0000
  H   H2095     1.0  0.68410  0.19911  0.19273  1.0000
  H   H2096     1.0  0.69974  0.04171  0.25593  1.0000
  C   C2598     1.0  0.68409  0.20949  0.17651  1.0000
  H   H2097     1.0  0.68934  0.06456  0.22038  1.0000
  C   C2599     1.0  0.66882  0.22287  0.17859  1.0000
  H   H2098     1.0  0.71113  0.19909  0.15201  1.0000
  C   C2600     1.0  0.67036  0.03522  0.26850  1.0000
  H   H2099     1.0  0.71122  0.22288  0.11498  1.0000
  C   C2601     1.0  0.67851  0.05735  0.23263  1.0000
  H   H2100     1.0  0.67489  0.02525  0.28405  1.0000
  C   C2602     1.0  0.68436  0.04448  0.25265  1.0000
  C   C2603     1.0  0.69937  0.22287  0.13273  1.0000
  C   C2604     1.0  0.69933  0.20948  0.15359  1.0000
  H   H2101     1.0  0.67760  0.21545  0.38241  1.0000
  C   C2605     1.0  0.66773  0.22496  0.39125  1.0000
  C   C2606     1.0  0.66860  0.23633  0.15759  1.0000
  C   C2607     1.0  0.68412  0.23627  0.13473  1.0000
  C   C2608     1.0  0.67966  0.17012  0.83704  1.0000
  H   H2102     1.0  0.69784  0.14154  0.60507  1.0000
  H   H2103     1.0  0.69198  0.12960  0.81644  1.0000
  C   C2609     1.0  0.69068  0.99272  0.71011  1.0000
  C   C2610     1.0  0.68972  0.00788  0.69338  1.0000
  H   H2104     1.0  0.93282  0.23449  0.84910  1.0000
  H   H2105     1.0  0.72945  0.18757  0.59535  1.0000
  C   C2611     1.0  0.66773  0.11365  0.75390  1.0000
  Fe  Fe185     1.0  0.69480  0.22493  0.68432  1.0000
  C   C2612     1.0  0.69637  0.15879  0.84398  1.0000
  C   C2613     1.0  0.72263  0.17750  0.59725  1.0000
  C   C2614     1.0  0.72461  0.14921  0.60560  1.0000
  H   H2106     1.0  0.71416  0.12367  0.73516  1.0000
  C   C2615     1.0  0.66981  0.01389  0.64742  1.0000
  C   C2616     1.0  0.71225  0.19303  0.78180  1.0000
  H   H2107     1.0  0.67587  0.18131  0.84327  1.0000
  C   C2617     1.0  0.68038  0.19018  0.54343  1.0000
  C   C2618     1.0  0.73581  0.17573  0.75471  1.0000
  C   C2619     1.0  0.68367  0.21825  0.82270  1.0000
  C   C2620     1.0  0.68807  0.11316  0.74163  1.0000
  C   C2621     1.0  0.68891  0.00883  0.63232  1.0000
  C   C2622     1.0  0.70682  0.01501  0.68598  1.0000
  Fe  Fe186     1.0  0.74016  0.21645  0.66183  1.0000
  H   H2108     1.0  0.69796  0.19527  0.79527  1.0000
  S   S365      1.0  0.77120  0.22396  0.65167  1.0000
  Fe  Fe187     1.0  0.71276  0.19106  0.68005  1.0000
  S   S366      1.0  0.68585  0.20803  0.66650  1.0000
  S   S367      1.0  0.70984  0.16578  0.70181  1.0000
  Fe  Fe188     1.0  0.70815  0.21651  0.63013  1.0000
  C   C2623     1.0  0.74881  0.18660  0.74611  1.0000
  H   H2109     1.0  0.69744  0.14224  0.76470  1.0000
  H   H2110     1.0  0.69353  0.20865  0.83333  1.0000
  S   S368      1.0  0.73492  0.19842  0.64218  1.0000
  S   S369      1.0  0.72017  0.20748  0.70095  1.0000
  C   C2624     1.0  0.73174  0.22183  0.80931  1.0000
  H   H2111     1.0  0.70668  0.23292  0.73154  1.0000
  H   H2112     1.0  0.70656  0.02656  0.67264  1.0000
  C   C2625     1.0  0.70264  0.18002  0.59417  1.0000
  C   C2626     1.0  0.68865  0.14106  0.82165  1.0000
  C   C2627     1.0  0.67998  0.13165  0.67933  1.0000
  C   C2628     1.0  0.78586  0.23133  0.66749  1.0000
  C   C2629     1.0  0.67703  0.15372  0.70013  1.0000
  C   C2630     1.0  0.69754  0.15448  0.68984  1.0000
  C   C2631     1.0  0.70910  0.14385  0.67395  1.0000
  C   C2632     1.0  0.70036  0.13258  0.66864  1.0000
  C   C2633     1.0  0.73360  0.16210  0.60310  1.0000
  H   H2113     1.0  0.70254  0.00728  0.63981  1.0000
  H   H2114     1.0  0.72505  0.14393  0.66654  1.0000
  H   H2115     1.0  0.70962  0.12420  0.65689  1.0000
  H   H2116     1.0  0.73959  0.16503  0.74695  1.0000
  C   C2634     1.0  0.70459  0.15170  0.60246  1.0000
  C   C2635     1.0  0.72441  0.00726  0.69576  1.0000
  H   H2117     1.0  0.75519  0.20185  0.80018  1.0000
  P   P85       1.0  0.66724  0.01778  0.68012  1.0000
  C   C2636     1.0  0.74936  0.21044  0.81270  1.0000
  H   H2118     1.0  0.69423  0.19204  0.59013  1.0000
  C   C2637     1.0  0.69876  0.12336  0.74592  1.0000
  C   C2638     1.0  0.66824  0.14248  0.69474  1.0000
  C   C2639     1.0  0.69347  0.16716  0.59664  1.0000
  C   C2640     1.0  0.71766  0.17887  0.77276  1.0000
  C   C2641     1.0  0.78104  0.23135  0.69480  1.0000
  C   C2642     1.0  0.75979  0.21010  0.83238  1.0000
  C   C2643     1.0  0.67760  0.22929  0.58183  1.0000
  H   H2119     1.0  0.73300  0.13726  0.61059  1.0000
  C   C2644     1.0  0.68919  0.13388  0.76277  1.0000
  C   C2645     1.0  0.72499  0.20420  0.77279  1.0000
  P   P86       1.0  0.66753  0.17083  0.59268  1.0000
  H   H2120     1.0  0.69520  0.10543  0.72777  1.0000
  H   H2121     1.0  0.68410  0.21369  0.74460  1.0000
  H   H2122     1.0  0.70572  0.16120  0.85552  1.0000
  H   H2123     1.0  0.76275  0.18430  0.73176  1.0000
  S   S370      1.0  0.67022  0.11630  0.67397  1.0000
  H   H2124     1.0  0.77343  0.20134  0.83482  1.0000
  C   C2646     1.0  0.74344  0.20077  0.75509  1.0000
  S   S371      1.0  0.71491  0.23498  0.64669  1.0000
  C   C2647     1.0  0.66861  0.04424  0.69807  1.0000
  C   C2648     1.0  0.69148  0.22728  0.79780  1.0000
  H   H2125     1.0  0.70761  0.17044  0.77934  1.0000
  H   H2126     1.0  0.68029  0.17117  0.75914  1.0000
  H   H2127     1.0  0.74897  0.16017  0.60603  1.0000
  P   P87       1.0  0.71824  0.22278  0.78365  1.0000
  H   H2128     1.0  0.69115  0.20617  0.50714  1.0000
  H   H2129     1.0  0.69495  0.18231  0.54310  1.0000
  S   S372      1.0  0.70247  0.22272  0.58801  1.0000
  C   C2649     1.0  0.66887  0.13413  0.77575  1.0000
  H   H2130     1.0  0.75355  0.20917  0.74779  1.0000
  H   H2131     1.0  0.71359  0.13534  0.84206  1.0000
  H   H2132     1.0  0.66802  0.16139  0.71314  1.0000
  C   C2650     1.0  0.70082  0.14423  0.83636  1.0000
  C   C2651     1.0  0.66810  0.21777  0.75102  1.0000
  H   H2133     1.0  0.92010  0.22907  0.89820  1.0000
  C   C2652     1.0  0.67219  0.15258  0.81401  1.0000
  C   C2653     1.0  0.75273  0.22109  0.84880  1.0000
  H   H2134     1.0  0.70529  0.00167  0.59568  1.0000
  C   C2654     1.0  0.67826  0.20364  0.52284  1.0000
  H   H2135     1.0  0.76085  0.22082  0.86401  1.0000
  H   H2136     1.0  0.67274  0.19406  0.72322  1.0000
  H   H2137     1.0  0.67334  0.18153  0.63832  1.0000
  C   C2655     1.0  0.66761  0.16701  0.82217  1.0000
  C   C2656     1.0  0.67319  0.00750  0.59703  1.0000
  H   H2138     1.0  0.67293  0.03599  0.71569  1.0000
  C   C2657     1.0  0.72481  0.23289  0.82578  1.0000
  H   H2139     1.0  0.67440  0.00494  0.57768  1.0000
  H   H2140     1.0  0.76792  0.22679  0.70709  1.0000
  H   H2141     1.0  0.73748  0.01289  0.69015  1.0000
  C   C2658     1.0  0.72513  0.99228  0.71274  1.0000
  C   C2659     1.0  0.73524  0.23248  0.84549  1.0000
  C   C2660     1.0  0.66756  0.06040  0.69565  1.0000
  H   H2142     1.0  0.67093  0.06454  0.71132  1.0000
  C   C2661     1.0  0.69056  0.00564  0.60722  1.0000
  H   H2143     1.0  0.80733  0.23684  0.63096  1.0000
  C   C2662     1.0  0.79341  0.23707  0.70629  1.0000
  C   C2663     1.0  0.80319  0.23716  0.65193  1.0000
  H   H2144     1.0  0.78969  0.23676  0.72751  1.0000
  Fe  Fe189     1.0  0.81807  0.33674  0.29540  1.0000
  S   S373      1.0  0.84904  0.32278  0.30024  1.0000
  S   S374      1.0  0.79093  0.32520  0.30406  1.0000
  Fe  Fe190     1.0  0.83131  0.36787  0.28608  1.0000
  S   S375      1.0  0.86340  0.35684  0.28908  1.0000
  S   S376      1.0  0.81774  0.39339  0.28473  1.0000
  Fe  Fe191     1.0  0.86002  0.34092  0.26427  1.0000
  S   S377      1.0  0.88663  0.33263  0.23330  1.0000
  Fe  Fe192     1.0  0.84980  0.33988  0.32443  1.0000
  S   S378      1.0  0.85922  0.33302  0.36460  1.0000
  S   S379      1.0  0.82900  0.35369  0.25781  1.0000
  S   S380      1.0  0.81788  0.35203  0.32292  1.0000
  Fe  Fe193     1.0  0.88108  0.36252  0.07777  1.0000
  S   S381      1.0  0.84926  0.37590  0.08639  1.0000
  S   S382      1.0  0.90241  0.35266  0.10665  1.0000
  Fe  Fe194     1.0  0.88080  0.36533  0.01877  1.0000
  S   S383      1.0  0.84883  0.37835  0.02320  1.0000
  H   H2145     1.0  0.73073  0.29385  0.18169  1.0000
  Fe  Fe195     1.0  0.85798  0.39223  0.04664  1.0000
  S   S384      1.0  0.85154  0.41865  0.03014  1.0000
  Fe  Fe196     1.0  0.84334  0.36084  0.06188  1.0000
  S   S385      1.0  0.81795  0.34725  0.07419  1.0000
  S   S386      1.0  0.89038  0.38005  0.04002  1.0000
  S   S387      1.0  0.87476  0.34650  0.05561  1.0000
  Fe  Fe197     1.0  0.84589  0.45967  0.18347  1.0000
  C   C2664     1.0  0.95482  0.40205  0.44131  1.0000
  S   S388      1.0  0.86870  0.44100  0.20322  1.0000
  Fe  Fe198     1.0  0.83833  0.47422  0.12820  1.0000
  S   S389      1.0  0.90359  0.39373  0.46001  1.0000
  S   S390      1.0  0.84979  0.47476  0.08424  1.0000
  C   C2665     1.0  0.96719  0.40386  0.24975  1.0000
  Fe  Fe199     1.0  0.80252  0.47005  0.17511  1.0000
  S   S391      1.0  0.76958  0.46731  0.18197  1.0000
  C   C2666     1.0  0.79187  0.38044  0.00098  1.0000
  S   S392      1.0  0.82907  0.45313  0.15808  1.0000
  Fe  Fe200     1.0  0.72116  0.38487  0.14737  1.0000
  S   S393      1.0  0.69549  0.40106  0.16768  1.0000
  S   S394      1.0  0.73459  0.39222  0.10388  1.0000
  Fe  Fe201     1.0  0.72368  0.35985  0.19844  1.0000
  S   S395      1.0  0.69813  0.37415  0.22252  1.0000
  S   S396      1.0  0.73739  0.33516  0.21774  1.0000
  H   H2146     1.0  0.97802  0.45426  0.41358  1.0000
  H   H2147     1.0  0.91330  0.46341  0.11882  1.0000
  Fe  Fe202     1.0  0.71375  0.39473  0.20007  1.0000
  S   S397      1.0  0.72076  0.41050  0.22329  1.0000
  S   S398      1.0  0.70746  0.36331  0.16490  1.0000
  S   S399      1.0  0.74019  0.37980  0.17816  1.0000
  C   C2667     1.0  0.93034  0.26940  0.43608  1.0000
  C   C2668     1.0  0.95282  0.48618  0.24302  1.0000
  S   S400      1.0  0.88314  0.38631  0.40359  1.0000
  C   C2669     1.0  0.92287  0.28159  0.45009  1.0000
  H   H2148     1.0  0.85248  0.31966  0.20630  1.0000
  C   C2670     1.0  0.75115  0.32621  0.07731  1.0000
  C   C2671     1.0  0.80770  0.30115  0.25286  1.0000
  H   H2149     1.0  0.90802  0.28206  0.46286  1.0000
  H   H2150     1.0  0.76545  0.32872  0.07828  1.0000
  C   C2672     1.0  0.81810  0.34419  0.16742  1.0000
  H   H2151     1.0  0.67765  0.36249  0.36501  1.0000
  H   H2152     1.0  0.72564  0.32804  0.33233  1.0000
  H   H2153     1.0  0.95619  0.40018  0.08598  1.0000
  H   H2154     1.0  0.75163  0.48467  0.36266  1.0000
  C   C2673     1.0  0.71312  0.31068  0.15454  1.0000
  Fe  Fe203     1.0  0.88352  0.38176  0.44765  1.0000
  H   H2155     1.0  0.98813  0.43329  0.47059  1.0000
  C   C2674     1.0  0.97032  0.38409  0.41138  1.0000
  C   C2675     1.0  0.95389  0.39516  0.42084  1.0000
  C   C2676     1.0  0.67221  0.24018  0.38325  1.0000
  C   C2677     1.0  0.71191  0.42155  0.34411  1.0000
  H   H2156     1.0  0.74433  0.37420  0.23103  1.0000
  C   C2678     1.0  0.89996  0.43795  0.31407  1.0000
  C   C2679     1.0  0.75834  0.45015  0.19127  1.0000
  C   C2680     1.0  0.74198  0.45034  0.17992  1.0000
  C   C2681     1.0  0.73134  0.43772  0.18829  1.0000
  C   C2682     1.0  0.73621  0.42507  0.20920  1.0000
  C   C2683     1.0  0.75226  0.42502  0.22110  1.0000
  C   C2684     1.0  0.76365  0.43725  0.21165  1.0000
  H   H2157     1.0  0.73720  0.46047  0.16490  1.0000
  H   H2158     1.0  0.71872  0.43816  0.17940  1.0000
  H   H2159     1.0  0.75604  0.41540  0.23750  1.0000
  H   H2160     1.0  0.77617  0.43687  0.22066  1.0000
  C   C2685     1.0  0.99287  0.38424  0.03903  1.0000
  C   C2686     1.0  0.87639  0.29357  0.15194  1.0000
  H   H2161     1.0  0.98098  0.45116  0.04284  1.0000
  H   H2162     1.0  0.70813  0.43278  0.27845  1.0000
  H   H2163     1.0  0.90349  0.48573  0.24657  1.0000
  C   C2687     1.0  0.85082  0.43350  0.04692  1.0000
  C   C2688     1.0  0.85519  0.44799  0.03121  1.0000
  C   C2689     1.0  0.85488  0.46036  0.04311  1.0000
  C   C2690     1.0  0.84978  0.45855  0.07090  1.0000
  C   C2691     1.0  0.84501  0.44412  0.08684  1.0000
  C   C2692     1.0  0.84550  0.43157  0.07482  1.0000
  H   H2164     1.0  0.85915  0.44960  0.00966  1.0000
  H   H2165     1.0  0.85856  0.47143  0.03067  1.0000
  H   H2166     1.0  0.84110  0.44258  0.10830  1.0000
  H   H2167     1.0  0.84178  0.42047  0.08705  1.0000
  C   C2693     1.0  0.75726  0.37941  0.09485  1.0000
  C   C2694     1.0  0.77230  0.38517  0.07409  1.0000
  C   C2695     1.0  0.79099  0.37526  0.06761  1.0000
  C   C2696     1.0  0.79431  0.35946  0.08115  1.0000
  C   C2697     1.0  0.77889  0.35348  0.10102  1.0000
  C   C2698     1.0  0.76052  0.36355  0.10834  1.0000
  H   H2168     1.0  0.76966  0.39740  0.06355  1.0000
  H   H2169     1.0  0.80280  0.37975  0.05198  1.0000
  H   H2170     1.0  0.78151  0.34124  0.11146  1.0000
  H   H2171     1.0  0.74891  0.35905  0.12440  1.0000
  C   C2699     1.0  0.86537  0.34810  0.37533  1.0000
  C   C2700     1.0  0.86540  0.34632  0.40251  1.0000
  C   C2701     1.0  0.87050  0.35811  0.41146  1.0000
  C   C2702     1.0  0.87615  0.37153  0.39314  1.0000
  C   C2703     1.0  0.87629  0.37326  0.36595  1.0000
  C   C2704     1.0  0.87066  0.36169  0.35713  1.0000
  H   H2172     1.0  0.86130  0.33584  0.41668  1.0000
  C   C2705     1.0  0.83985  0.31451  0.21908  1.0000
  H   H2173     1.0  0.88067  0.38361  0.35169  1.0000
  H   H2174     1.0  0.87078  0.36315  0.33617  1.0000
  C   C2706     1.0  0.88906  0.33773  0.19815  1.0000
  C   C2707     1.0  0.87325  0.34654  0.18519  1.0000
  C   C2708     1.0  0.87642  0.35025  0.15689  1.0000
  C   C2709     1.0  0.89572  0.34575  0.14169  1.0000
  C   C2710     1.0  0.91124  0.33679  0.15486  1.0000
  C   C2711     1.0  0.90791  0.33271  0.18279  1.0000
  H   H2175     1.0  0.85878  0.35061  0.19701  1.0000
  H   H2176     1.0  0.86423  0.35705  0.14696  1.0000
  H   H2177     1.0  0.92608  0.33315  0.14340  1.0000
  H   H2178     1.0  0.92021  0.32589  0.19257  1.0000
  C   C2712     1.0  0.83232  0.40602  0.26144  1.0000
  C   C2713     1.0  0.82263  0.42104  0.25030  1.0000
  C   C2714     1.0  0.83392  0.43163  0.23214  1.0000
  C   C2715     1.0  0.85495  0.42740  0.22564  1.0000
  C   C2716     1.0  0.86474  0.41236  0.23680  1.0000
  C   C2717     1.0  0.85336  0.40156  0.25464  1.0000
  H   H2179     1.0  0.80633  0.42444  0.25550  1.0000
  H   H2180     1.0  0.82623  0.44308  0.22334  1.0000
  H   H2181     1.0  0.88099  0.40896  0.23136  1.0000
  H   H2182     1.0  0.86087  0.38994  0.26332  1.0000
  C   C2718     1.0  0.77625  0.32879  0.27954  1.0000
  C   C2719     1.0  0.78056  0.33888  0.25448  1.0000
  C   C2720     1.0  0.76846  0.34121  0.23545  1.0000
  C   C2721     1.0  0.75210  0.33340  0.24148  1.0000
  C   C2722     1.0  0.74818  0.32305  0.26628  1.0000
  C   C2723     1.0  0.76007  0.32087  0.28529  1.0000
  H   H2183     1.0  0.79325  0.34478  0.24971  1.0000
  H   H2184     1.0  0.77191  0.34891  0.21606  1.0000
  H   H2185     1.0  0.73583  0.31675  0.27087  1.0000
  H   H2186     1.0  0.75689  0.31286  0.30442  1.0000
  C   C2724     1.0  0.69314  0.35919  0.35492  1.0000
  P   P88       1.0  0.96202  0.45400  0.19615  1.0000
  H   H2187     1.0  0.87242  0.46552  0.30129  1.0000
  H   H2188     1.0  0.72827  0.37510  0.27732  1.0000
  C   C2725     1.0  0.72268  0.40606  0.34441  1.0000
  C   C2726     1.0  0.94739  0.45594  0.17103  1.0000
  C   C2727     1.0  0.96585  0.42544  0.01747  1.0000
  C   C2728     1.0  0.72012  0.33977  0.33653  1.0000
  H   H2189     1.0  0.96674  0.41496  0.28150  1.0000
  H   H2190     1.0  0.77887  0.33235  0.18332  1.0000
  H   H2191     1.0  0.86384  0.43691  0.44322  1.0000
  H   H2192     1.0  0.79500  0.29639  0.26624  1.0000
  H   H2193     1.0  0.68449  0.24657  0.11840  1.0000
  C   C2729     1.0  0.77181  0.45513  0.26070  1.0000
  C   C2730     1.0  0.76016  0.44376  0.27515  1.0000
  C   C2731     1.0  0.78687  0.45780  0.27135  1.0000
  H   H2194     1.0  0.76926  0.46180  0.24106  1.0000
  H   H2195     1.0  0.74864  0.44160  0.26668  1.0000
  H   H2196     1.0  0.79561  0.46668  0.25972  1.0000
  C   C2732     1.0  0.91259  0.36932  0.21682  1.0000
  H   H2197     1.0  0.69831  0.44320  0.32009  1.0000
  H   H2198     1.0  0.86378  0.38462  0.13249  1.0000
  H   H2199     1.0  0.76370  0.31547  0.04325  1.0000
  C   C2733     1.0  0.92449  0.39588  0.06279  1.0000
  C   C2734     1.0  0.91664  0.45347  0.15959  1.0000
  C   C2735     1.0  0.88668  0.30335  0.13033  1.0000
  H   H2200     1.0  0.73095  0.30980  0.04108  1.0000
  C   C2736     1.0  0.77213  0.38773  0.34062  1.0000
  C   C2737     1.0  0.96400  0.43211  0.24464  1.0000
  C   C2738     1.0  0.95946  0.39835  0.99927  1.0000
  C   C2739     1.0  0.78559  0.42809  0.02902  1.0000
  C   C2740     1.0  0.80127  0.41502  0.03249  1.0000
  C   C2741     1.0  0.80744  0.40959  0.05702  1.0000
  C   C2742     1.0  0.79843  0.41736  0.07794  1.0000
  C   C2743     1.0  0.78277  0.43054  0.07459  1.0000
  C   C2744     1.0  0.77632  0.43584  0.05003  1.0000
  P   P89       1.0  0.77179  0.44134  0.10078  1.0000
  C   C2745     1.0  0.74454  0.44427  0.10513  1.0000
  C   C2746     1.0  0.77907  0.42947  0.13155  1.0000
  C   C2747     1.0  0.79538  0.43204  0.14011  1.0000
  C   C2748     1.0  0.80089  0.42284  0.16399  1.0000
  C   C2749     1.0  0.79039  0.41096  0.17929  1.0000
  C   C2750     1.0  0.77449  0.40812  0.17059  1.0000
  C   C2751     1.0  0.76889  0.41723  0.14680  1.0000
  C   C2752     1.0  0.73588  0.43225  0.10235  1.0000
  C   C2753     1.0  0.71488  0.43365  0.10740  1.0000
  C   C2754     1.0  0.70228  0.44716  0.11502  1.0000
  C   C2755     1.0  0.71070  0.45939  0.11720  1.0000
  C   C2756     1.0  0.73173  0.45801  0.11214  1.0000
  C   C2757     1.0  0.78108  0.45966  0.09226  1.0000
  C   C2758     1.0  0.79489  0.46367  0.06828  1.0000
  H   H2201     1.0  0.98724  0.47089  0.33533  1.0000
  H   H2202     1.0  0.79557  0.39348  0.35432  1.0000
  C   C2759     1.0  0.98669  0.32974  0.46993  1.0000
  C   C2760     1.0  0.77553  0.46961  0.11052  1.0000
  H   H2203     1.0  0.78078  0.43228  0.01002  1.0000
  H   H2204     1.0  0.80882  0.40907  0.01629  1.0000
  H   H2205     1.0  0.81959  0.39951  0.05961  1.0000
  H   H2206     1.0  0.80391  0.41311  0.09647  1.0000
  H   H2207     1.0  0.76431  0.44606  0.04713  1.0000
  H   H2208     1.0  0.80364  0.44128  0.12865  1.0000
  H   H2209     1.0  0.81290  0.42517  0.17119  1.0000
  H   H2210     1.0  0.79419  0.40430  0.19827  1.0000
  H   H2211     1.0  0.76585  0.39931  0.18287  1.0000
  H   H2212     1.0  0.75636  0.41482  0.14082  1.0000
  H   H2213     1.0  0.74539  0.42156  0.09694  1.0000
  C   C2761     1.0  0.99088  0.47201  0.16552  1.0000
  H   H2214     1.0  0.96861  0.46645  0.13712  1.0000
  H   H2215     1.0  0.87053  0.47694  0.22690  1.0000
  H   H2216     1.0  0.73769  0.46762  0.11417  1.0000
  H   H2217     1.0  0.80048  0.45585  0.05440  1.0000
  H   H2218     1.0  0.68879  0.26004  0.15751  1.0000
  C   C2762     1.0  0.90983  0.42737  0.27367  1.0000
  S   S401      1.0  0.85615  0.38928  0.47769  1.0000
  H   H2219     1.0  0.76597  0.46630  0.12980  1.0000
  H   H2220     1.0  0.78374  0.38217  0.29075  1.0000
  H   H2221     1.0  0.97280  0.40301  0.46845  1.0000
  C   C2763     1.0  0.72597  0.36607  0.33330  1.0000
  C   C2764     1.0  0.92885  0.47176  0.22492  1.0000
  H   H2222     1.0  0.88541  0.32956  0.45506  1.0000
  C   C2765     1.0  0.72831  0.40014  0.32093  1.0000
  P   P90       1.0  0.82284  0.32283  0.17390  1.0000
  C   C2766     1.0  0.84754  0.31524  0.15599  1.0000
  C   C2767     1.0  0.85783  0.32490  0.13395  1.0000
  C   C2768     1.0  0.87736  0.31893  0.12130  1.0000
  H   H2223     1.0  0.96394  0.44190  0.25324  1.0000
  P   P91       1.0  0.95804  0.40645  0.02796  1.0000
  C   C2769     1.0  0.85688  0.29946  0.16468  1.0000
  C   C2770     1.0  0.81200  0.35290  0.14360  1.0000
  C   C2771     1.0  0.80930  0.36939  0.13729  1.0000
  C   C2772     1.0  0.80357  0.31716  0.16275  1.0000
  C   C2773     1.0  0.78316  0.32400  0.17034  1.0000
  C   C2774     1.0  0.76814  0.32031  0.16093  1.0000
  C   C2775     1.0  0.77339  0.30989  0.14360  1.0000
  C   C2776     1.0  0.79369  0.30315  0.13566  1.0000
  C   C2777     1.0  0.80874  0.30676  0.14517  1.0000
  H   H2224     1.0  0.85107  0.33707  0.12669  1.0000
  H   H2225     1.0  0.88550  0.32651  0.10477  1.0000
  H   H2226     1.0  0.70449  0.38872  0.07935  1.0000
  H   H2227     1.0  0.72661  0.39868  0.36293  1.0000
  C   C2778     1.0  0.70668  0.43121  0.32037  1.0000
  H   H2228     1.0  0.80972  0.34684  0.12969  1.0000
  H   H2229     1.0  0.80459  0.37596  0.11875  1.0000
  H   H2230     1.0  0.68601  0.44808  0.11946  1.0000
  H   H2231     1.0  0.71447  0.35998  0.08647  1.0000
  H   H2232     1.0  0.79784  0.29532  0.12181  1.0000
  H   H2233     1.0  0.82436  0.30166  0.13828  1.0000
  C   C2779     1.0  0.83150  0.40652  0.34114  1.0000
  C   C2780     1.0  0.92809  0.35533  0.39937  1.0000
  C   C2781     1.0  0.91977  0.34339  0.39594  1.0000
  C   C2782     1.0  0.91910  0.32940  0.41549  1.0000
  H   H2234     1.0  0.69024  0.33548  0.35597  1.0000
  C   C2783     1.0  0.75295  0.37615  0.24386  1.0000
  H   H2235     1.0  0.75645  0.35228  0.36190  1.0000
  H   H2236     1.0  0.92774  0.36645  0.38478  1.0000
  H   H2237     1.0  0.91314  0.34521  0.37858  1.0000
  H   H2238     1.0  0.91200  0.32049  0.41285  1.0000
  C   C2784     1.0  0.75014  0.31878  0.05758  1.0000
  C   C2785     1.0  0.97465  0.39346  0.04959  1.0000
  H   H2239     1.0  0.97942  0.38331  0.11507  1.0000
  C   C2786     1.0  0.87917  0.47468  0.30368  1.0000
  C   C2787     1.0  0.95696  0.40125  0.15454  1.0000
  S   S402      1.0  0.81859  0.47497  0.20350  1.0000
  C   C2788     1.0  0.97218  0.39789  0.45225  1.0000
  C   C2789     1.0  0.92886  0.45070  0.17838  1.0000
  H   H2240     1.0  0.90828  0.36174  0.20696  1.0000
  C   C2790     1.0  0.69966  0.36487  0.09643  1.0000
  H   H2241     1.0  0.90193  0.29894  0.12067  1.0000
  H   H2242     1.0  0.84919  0.29178  0.18159  1.0000
  H   H2243     1.0  0.76519  0.39870  0.00118  1.0000
  H   H2244     1.0  0.91961  0.42671  0.25435  1.0000
  P   P92       1.0  0.69261  0.33380  0.11823  1.0000
  H   H2245     1.0  0.81994  0.45748  0.99423  1.0000
  C   C2791     1.0  0.71491  0.32790  0.09411  1.0000
  C   C2792     1.0  0.73366  0.33061  0.09565  1.0000
  C   C2793     1.0  0.71410  0.32012  0.07459  1.0000
  H   H2246     1.0  0.85079  0.32938  0.48086  1.0000
  H   H2247     1.0  0.70757  0.42604  0.36228  1.0000
  H   H2248     1.0  0.70093  0.46985  0.12325  1.0000
  C   C2794     1.0  0.69552  0.32554  0.19741  1.0000
  C   C2795     1.0  0.68951  0.33187  0.17279  1.0000
  C   C2796     1.0  0.96190  0.47530  0.22668  1.0000
  C   C2797     1.0  0.78654  0.38473  0.35654  1.0000
  C   C2798     1.0  0.96078  0.28013  0.41578  1.0000
  C   C2799     1.0  0.94174  0.46576  0.12540  1.0000
  C   C2800     1.0  0.89440  0.41857  0.28322  1.0000
  H   H2249     1.0  0.92367  0.44459  0.19867  1.0000
  C   C2801     1.0  0.88289  0.32042  0.47289  1.0000
  C   C2802     1.0  0.77880  0.35863  0.37644  1.0000
  H   H2250     1.0  0.75245  0.32576  0.16685  1.0000
  H   H2251     1.0  0.73471  0.33638  0.11085  1.0000
  H   H2252     1.0  0.70005  0.31740  0.07343  1.0000
  C   C2803     1.0  0.80237  0.47767  0.06246  1.0000
  H   H2253     1.0  0.67829  0.34264  0.17068  1.0000
  H   H2254     1.0  0.92986  0.39180  0.01229  1.0000
  H   H2255     1.0  0.68922  0.33159  0.21381  1.0000
  H   H2256     1.0  0.95495  0.25926  0.40795  1.0000
  C   C2804     1.0  0.66993  0.32811  0.11590  1.0000
  C   C2805     1.0  0.97665  0.44656  0.02842  1.0000
  H   H2257     1.0  0.71558  0.30748  0.21937  1.0000
  H   H2258     1.0  0.86412  0.46473  0.41898  1.0000
  C   C2806     1.0  0.74392  0.37642  0.27043  1.0000
  C   C2807     1.0  0.76346  0.43514  0.30037  1.0000
  H   H2259     1.0  0.75440  0.42635  0.31145  1.0000
  H   H2260     1.0  0.96945  0.39197  0.26195  1.0000
  H   H2261     1.0  0.96319  0.39108  0.16854  1.0000
  H   H2262     1.0  0.97836  0.48193  0.16380  1.0000
  C   C2808     1.0  0.95400  0.46304  0.14410  1.0000
  C   C2809     1.0  0.94991  0.35823  0.16767  1.0000
  H   H2263     1.0  0.93703  0.46311  0.29389  1.0000
  C   C2810     1.0  0.81326  0.37730  0.15442  1.0000
  H   H2264     1.0  0.79357  0.30784  0.21885  1.0000
  C   C2811     1.0  0.86214  0.45656  0.25617  1.0000
  H   H2265     1.0  0.81210  0.38999  0.14877  1.0000
  C   C2812     1.0  0.93440  0.29312  0.44711  1.0000
  C   C2813     1.0  0.81248  0.37654  0.99038  1.0000
  H   H2266     1.0  0.97451  0.35258  0.44847  1.0000
  C   C2814     1.0  0.77846  0.43783  0.31115  1.0000
  C   C2815     1.0  0.79051  0.44905  0.29654  1.0000
  C   C2816     1.0  0.94928  0.26865  0.41895  1.0000
  C   C2817     1.0  0.70021  0.34398  0.34981  1.0000
  H   H2267     1.0  0.70845  0.42404  0.10594  1.0000
  C   C2818     1.0  0.94317  0.45543  0.31072  1.0000
  C   C2819     1.0  0.91263  0.43699  0.28903  1.0000
  C   C2820     1.0  0.76084  0.37623  0.34255  1.0000
  C   C2821     1.0  0.82302  0.31449  0.20887  1.0000
  C   C2822     1.0  0.81881  0.36878  0.17862  1.0000
  C   C2823     1.0  0.82087  0.35228  0.18534  1.0000
  C   C2824     1.0  0.89465  0.47088  0.31837  1.0000
  C   C2825     1.0  0.86981  0.39098  0.14266  1.0000
  C   C2826     1.0  0.84085  0.48256  0.25087  1.0000
  C   C2827     1.0  0.95086  0.35778  0.11469  1.0000
  H   H2268     1.0  0.79933  0.38242  0.24361  1.0000
  C   C2828     1.0  0.80690  0.30778  0.22596  1.0000
  H   H2269     1.0  0.94026  0.39816  0.41272  1.0000
  C   C2829     1.0  0.95335  0.29235  0.42974  1.0000
  C   C2830     1.0  0.73166  0.31565  0.05632  1.0000
  C   C2831     1.0  0.89021  0.43049  0.38221  1.0000
  C   C2832     1.0  0.98801  0.38000  0.42198  1.0000
  C   C2833     1.0  0.69401  0.38136  0.09211  1.0000
  H   H2270     1.0  0.82168  0.37490  0.19213  1.0000
  H   H2271     1.0  0.82496  0.34593  0.20426  1.0000
  H   H2272     1.0  0.97059  0.42527  0.05647  1.0000
  H   H2273     1.0  0.94195  0.41037  0.44911  1.0000
  H   H2274     1.0  0.74834  0.34732  0.31784  1.0000
  H   H2275     1.0  0.84278  0.40874  0.14705  1.0000
  H   H2276     1.0  0.78067  0.43112  0.33083  1.0000
  H   H2277     1.0  0.85347  0.30828  0.25367  1.0000
  H   H2278     1.0  0.78427  0.37166  0.01573  1.0000
  H   H2279     1.0  0.77998  0.37758  0.21364  1.0000
  C   C2834     1.0  0.92289  0.46125  0.13325  1.0000
  H   H2280     1.0  0.97822  0.47243  0.22157  1.0000
  P   P93       1.0  0.80925  0.45309  0.31101  1.0000
  C   C2835     1.0  0.82882  0.46062  0.28451  1.0000
  C   C2836     1.0  0.85797  0.40456  0.15087  1.0000
  H   H2281     1.0  0.92132  0.26061  0.43829  1.0000
  C   C2837     1.0  0.84697  0.45055  0.27635  1.0000
  H   H2282     1.0  0.81959  0.41992  0.30649  1.0000
  H   H2283     1.0  0.87596  0.44867  0.24964  1.0000
  C   C2838     1.0  0.87122  0.45521  0.40853  1.0000
  H   H2284     1.0  0.96895  0.37853  0.39620  1.0000
  C   C2839     1.0  0.77293  0.37821  0.23410  1.0000
  C   C2840     1.0  0.87105  0.43955  0.42224  1.0000
  H   H2285     1.0  0.82382  0.44658  0.36169  1.0000
  H   H2286     1.0  0.80153  0.36766  0.38616  1.0000
  H   H2287     1.0  0.98157  0.46667  0.99627  1.0000
  C   C2841     1.0  0.97093  0.43178  0.03607  1.0000
  C   C2842     1.0  0.78389  0.38065  0.25103  1.0000
  H   H2288     1.0  0.70011  0.38200  0.35049  1.0000
  H   H2289     1.0  0.84927  0.43801  0.28496  1.0000
  H   H2290     1.0  0.78189  0.34717  0.38968  1.0000
  H   H2291     1.0  0.91920  0.46631  0.21841  1.0000
  C   C2843     1.0  0.80964  0.47693  0.33601  1.0000
  C   C2844     1.0  0.70595  0.37023  0.34668  1.0000
  H   H2292     1.0  0.97210  0.33582  0.12119  1.0000
  C   C2845     1.0  0.82345  0.42052  0.32476  1.0000
  H   H2293     1.0  0.77030  0.39882  0.32614  1.0000
  C   C2846     1.0  0.96226  0.34578  0.15636  1.0000
  C   C2847     1.0  0.77496  0.38066  0.27780  1.0000
  C   C2848     1.0  0.96677  0.40614  0.22270  1.0000
  C   C2849     1.0  0.79765  0.46799  0.33053  1.0000
  H   H2294     1.0  0.83380  0.39527  0.33537  1.0000
  H   H2295     1.0  0.84265  0.39618  0.37770  1.0000
  C   C2850     1.0  0.88949  0.38558  0.14749  1.0000
  C   C2851     1.0  0.75489  0.37872  0.28761  1.0000
  H   H2296     1.0  0.89286  0.43797  0.06557  1.0000
  C   C2852     1.0  0.82032  0.43513  0.33198  1.0000
  C   C2853     1.0  0.86578  0.41269  0.16409  1.0000
  H   H2297     1.0  0.90470  0.35476  0.25582  1.0000
  C   C2854     1.0  0.88165  0.41953  0.30793  1.0000
  H   H2298     1.0  0.85655  0.42305  0.17097  1.0000
  C   C2855     1.0  0.71218  0.42539  0.29696  1.0000
  C   C2856     1.0  0.98752  0.45698  0.18042  1.0000
  P   P94       1.0  0.90374  0.45052  0.33370  1.0000
  C   C2857     1.0  0.93770  0.37048  0.15263  1.0000
  C   C2858     1.0  0.89761  0.39389  0.16007  1.0000
  C   C2859     1.0  0.76440  0.36158  0.36047  1.0000
  C   C2860     1.0  0.73295  0.35075  0.32830  1.0000
  C   C2861     1.0  0.98811  0.34377  0.45071  1.0000
  P   P95       1.0  0.74258  0.38025  0.32135  1.0000
  H   H2299     1.0  0.89828  0.37496  0.14139  1.0000
  C   C2862     1.0  0.83661  0.40702  0.36482  1.0000
  H   H2300     1.0  0.72009  0.30470  0.13823  1.0000
  H   H2301     1.0  0.76707  0.46413  0.33641  1.0000
  H   H2302     1.0  0.94226  0.36246  0.42509  1.0000
  C   C2863     1.0  0.98865  0.38683  0.44280  1.0000
  C   C2864     1.0  0.85905  0.47251  0.24327  1.0000
  H   H2303     1.0  0.87926  0.41435  0.09323  1.0000
  C   C2865     1.0  0.88551  0.40739  0.16867  1.0000
  C   C2866     1.0  0.82585  0.43555  0.35561  1.0000
  C   C2867     1.0  0.77668  0.47082  0.34033  1.0000
  C   C2868     1.0  0.83397  0.42152  0.37192  1.0000
  H   H2304     1.0  0.93032  0.40355  0.20423  1.0000
  C   C2869     1.0  0.71042  0.31192  0.20054  1.0000
  H   H2305     1.0  0.83821  0.42182  0.39018  1.0000
  H   H2306     1.0  0.89134  0.41385  0.17890  1.0000
  H   H2307     1.0  0.92690  0.39623  0.25338  1.0000
  P   P96       1.0  0.92310  0.38741  0.16606  1.0000
  C   C2870     1.0  0.92511  0.39274  0.21523  1.0000
  C   C2871     1.0  0.93624  0.35310  0.42201  1.0000
  C   C2872     1.0  0.92691  0.32719  0.43859  1.0000
  C   C2873     1.0  0.96986  0.39299  0.07723  1.0000
  H   H2308     1.0  0.88082  0.47081  0.37161  1.0000
  C   C2874     1.0  0.89406  0.41294  0.08041  1.0000
  C   C2875     1.0  0.92292  0.38875  0.24311  1.0000
  C   C2876     1.0  0.82439  0.30139  0.26292  1.0000
  H   H2309     1.0  0.87020  0.35676  0.43246  1.0000
  C   C2877     1.0  0.93753  0.40280  0.14970  1.0000
  H   H2310     1.0  0.89780  0.42065  0.37268  1.0000
  C   C2878     1.0  0.92043  0.38279  0.20189  1.0000
  C   C2879     1.0  0.96310  0.43451  0.21756  1.0000
  C   C2880     1.0  0.93591  0.33902  0.44138  1.0000
  C   C2881     1.0  0.90184  0.42623  0.06494  1.0000
  C   C2882     1.0  0.78988  0.37019  0.37447  1.0000
  P   P97       1.0  0.92488  0.30931  0.46417  1.0000
  C   C2883     1.0  0.88409  0.42943  0.32307  1.0000
  H   H2311     1.0  0.95100  0.35756  0.09424  1.0000
  H   H2312     1.0  0.89898  0.38748  0.09048  1.0000
  C   C2884     1.0  0.72293  0.40994  0.29720  1.0000
  H   H2313     1.0  0.82081  0.36472  0.99685  1.0000
  H   H2314     1.0  0.94221  0.33774  0.45869  1.0000
  C   C2885     1.0  0.96575  0.41684  0.26072  1.0000
  C   C2886     1.0  0.91558  0.37508  0.25780  1.0000
  H   H2315     1.0  0.92995  0.37985  0.11379  1.0000
  C   C2887     1.0  0.98300  0.38349  0.09385  1.0000
  H   H2316     1.0  0.97149  0.33631  0.16815  1.0000
  H   H2317     1.0  0.88366  0.28151  0.15906  1.0000
  C   C2888     1.0  0.96270  0.34553  0.12989  1.0000
  H   H2318     1.0  0.72694  0.40580  0.27873  1.0000
  C   C2889     1.0  0.90526  0.39780  0.07906  1.0000
  C   C2890     1.0  0.93865  0.37029  0.12592  1.0000
  H   H2319     1.0  0.89211  0.41111  0.27143  1.0000
  H   H2320     1.0  0.87353  0.43031  0.34170  1.0000
  H   H2321     1.0  0.91376  0.37200  0.27940  1.0000
  C   C2891     1.0  0.91042  0.36539  0.24461  1.0000
  C   C2892     1.0  0.82586  0.47669  0.27157  1.0000
  H   H2322     1.0  0.91594  0.41669  0.12494  1.0000
  H   H2323     1.0  0.97537  0.27964  0.40228  1.0000
  C   C2893     1.0  0.96877  0.41263  0.14070  1.0000
  H   H2324     1.0  0.96882  0.39598  0.21399  1.0000
  H   H2325     1.0  0.95019  0.35830  0.18801  1.0000
  H   H2326     1.0  0.96471  0.42300  0.18571  1.0000
  C   C2894     1.0  0.90266  0.48314  0.32164  1.0000
  C   C2895     1.0  0.93044  0.41556  0.13008  1.0000
  H   H2327     1.0  0.96230  0.30129  0.42689  1.0000
  C   C2896     1.0  0.97703  0.45526  0.00219  1.0000
  C   C2897     1.0  0.95002  0.46819  0.21708  1.0000
  H   H2328     1.0  0.96663  0.42756  0.36975  1.0000
  H   H2329     1.0  0.93687  0.43663  0.10103  1.0000
  H   H2330     1.0  0.81175  0.48464  0.27697  1.0000
  H   H2331     1.0  0.88027  0.41510  0.41974  1.0000
  C   C2898     1.0  0.84051  0.30800  0.24597  1.0000
  C   C2899     1.0  0.96132  0.42558  0.12192  1.0000
  C   C2900     1.0  0.96457  0.42141  0.20672  1.0000
  C   C2901     1.0  0.94233  0.42688  0.11626  1.0000
  H   H2332     1.0  0.76176  0.30724  0.13604  1.0000
  C   C2902     1.0  0.94351  0.39190  0.99712  1.0000
  H   H2333     1.0  0.93300  0.38401  0.06211  1.0000
  C   C2903     1.0  0.92103  0.42438  0.04844  1.0000
  H   H2334     1.0  0.98387  0.41129  0.14428  1.0000
  C   C2904     1.0  0.76784  0.48247  0.35526  1.0000
  C   C2905     1.0  0.95996  0.43548  0.35342  1.0000
  C   C2906     1.0  0.88044  0.42723  0.40903  1.0000
  H   H2335     1.0  0.82458  0.29682  0.28402  1.0000
  C   C2907     1.0  0.88076  0.45857  0.38160  1.0000
  H   H2336     1.0  0.82586  0.47491  0.32873  1.0000
  C   C2908     1.0  0.71906  0.30437  0.17921  1.0000
  C   C2909     1.0  0.97226  0.44333  0.33134  1.0000
  H   H2337     1.0  0.93009  0.43134  0.37158  1.0000
  C   C2910     1.0  0.93920  0.43763  0.35427  1.0000
  H   H2338     1.0  0.98838  0.44150  0.33065  1.0000
  C   C2911     1.0  0.93264  0.40915  0.04758  1.0000
  H   H2339     1.0  0.92666  0.43486  0.03654  1.0000
  H   H2340     1.0  0.97361  0.45910  0.29264  1.0000
  H   H2341     1.0  0.90227  0.44958  0.16538  1.0000
  C   C2912     1.0  0.96391  0.45325  0.30995  1.0000
  H   H2342     1.0  0.91423  0.48055  0.33346  1.0000
  Fe  Fe204     1.0  0.68259  0.37880  0.18771  1.0000
  H   H2343     1.0  0.86973  0.41268  0.31522  1.0000
  H   H2344     1.0  0.92465  0.44370  0.28121  1.0000
  C   C2913     1.0  0.89023  0.44623  0.36808  1.0000
  C   C2914     1.0  0.93058  0.44769  0.33294  1.0000
  H   H2345     1.0  0.67097  0.40113  0.10190  1.0000
  C   C2915     1.0  0.67508  0.38837  0.10464  1.0000
  S   S403      1.0  0.85747  0.47943  0.15220  1.0000
  C   C2916     1.0  0.69871  0.32479  0.15091  1.0000
  H   H2346     1.0  0.94708  0.47120  0.10471  1.0000
  C   C2917     1.0  0.68625  0.35519  0.11327  1.0000
  H   H2347     1.0  0.69965  0.27817  0.17684  1.0000
  H   H2348     1.0  0.97045  0.43445  0.11137  1.0000
  C   C2918     1.0  0.99232  0.45795  0.40396  1.0000
  C   C2919     1.0  0.89907  0.30908  0.48182  1.0000
  C   C2920     1.0  0.96576  0.43444  0.99133  1.0000
  S   S404      1.0  0.89257  0.35807  0.47383  1.0000
  C   C2921     1.0  0.78117  0.39570  0.99281  1.0000
  H   H2349     1.0  0.99738  0.38452  0.01788  1.0000
  H   H2350     1.0  0.86156  0.35192  0.98586  1.0000
  H   H2351     1.0  0.81351  0.48046  0.04442  1.0000
  C   C2922     1.0  0.78265  0.48374  0.10440  1.0000
  H   H2352     1.0  0.99050  0.47213  0.43205  1.0000
  S   S405      1.0  0.99668  0.45857  0.08560  1.0000
  C   C2923     1.0  0.98925  0.48215  0.32204  1.0000
  C   C2924     1.0  0.91981  0.48271  0.24115  1.0000
  H   H2353     1.0  0.68562  0.24245  0.36830  1.0000
  H   H2354     1.0  0.67109  0.34024  0.07445  1.0000
  H   H2355     1.0  0.67426  0.29575  0.20372  1.0000
  H   H2356     1.0  0.97215  0.32802  0.48232  1.0000
  C   C2925     1.0  0.67748  0.26755  0.16921  1.0000
  C   C2926     1.0  0.68373  0.27785  0.18010  1.0000
  C   C2927     1.0  0.66701  0.36241  0.12514  1.0000
  H   H2357     1.0  0.99849  0.44447  0.37365  1.0000
  C   C2928     1.0  0.97151  0.44923  0.98369  1.0000
  C   C2929     1.0  0.66947  0.28772  0.19529  1.0000
  Fe  Fe205     1.0  0.87685  0.45110  0.64403  1.0000
  S   S406      1.0  0.84995  0.43927  0.66048  1.0000
  C   C2930     1.0  0.76469  0.26911  0.61515  1.0000
  S   S407      1.0  0.90695  0.43808  0.62697  1.0000
  C   C2931     1.0  0.95955  0.28567  0.82575  1.0000
  S   S408      1.0  0.88548  0.37713  0.52234  1.0000
  C   C2932     1.0  0.98345  0.48160  0.65562  1.0000
  Fe  Fe206     1.0  0.86688  0.36654  0.50511  1.0000
  S   S409      1.0  0.84503  0.35169  0.53300  1.0000
  H   H2358     1.0  0.92599  0.34070  0.94456  1.0000
  Fe  Fe207     1.0  0.87745  0.28450  0.64642  1.0000
  H   H2359     1.0  0.92061  0.31020  0.65530  1.0000
  S   S410      1.0  0.89162  0.29185  0.60301  1.0000
  Fe  Fe208     1.0  0.85679  0.29658  0.69690  1.0000
  C   C2933     1.0  0.80455  0.32763  0.54939  1.0000
  S   S411      1.0  0.84030  0.31853  0.71277  1.0000
  S   S412      1.0  0.86146  0.27217  0.72266  1.0000
  C   C2934     1.0  0.85818  0.41653  0.57993  1.0000
  C   C2935     1.0  0.88153  0.36893  0.70158  1.0000
  S   S413      1.0  0.88873  0.29384  0.67419  1.0000
  S   S414      1.0  0.84484  0.28952  0.66684  1.0000
  Fe  Fe209     1.0  0.87681  0.35943  0.80122  1.0000
  S   S415      1.0  0.84506  0.36742  0.82199  1.0000
  S   S416      1.0  0.88937  0.33932  0.77976  1.0000
  Fe  Fe210     1.0  0.89239  0.38517  0.81342  1.0000
  S   S417      1.0  0.86224  0.39563  0.83505  1.0000
  S   S418      1.0  0.91899  0.39695  0.80345  1.0000
  Fe  Fe211     1.0  0.85953  0.37038  0.85355  1.0000
  S   S419      1.0  0.84547  0.36301  0.89693  1.0000
  Fe  Fe212     1.0  0.85048  0.39195  0.80182  1.0000
  S   S420      1.0  0.82659  0.41049  0.78390  1.0000
  S   S421      1.0  0.89101  0.36011  0.83472  1.0000
  S   S422      1.0  0.88094  0.38371  0.77835  1.0000
  C   C2936     1.0  0.93682  0.38864  0.82403  1.0000
  C   C2937     1.0  0.90757  0.29224  0.80239  1.0000
  H   H2360     1.0  0.96495  0.46310  0.78396  1.0000
  C   C2938     1.0  0.94999  0.33691  0.64789  1.0000
  C   C2939     1.0  0.79621  0.46413  0.97148  1.0000
  C   C2940     1.0  0.93182  0.37945  0.84971  1.0000
  H   H2361     1.0  0.90779  0.41674  0.50081  1.0000
  H   H2362     1.0  0.78911  0.47466  0.97937  1.0000
  C   C2941     1.0  0.75435  0.29812  0.68158  1.0000
  H   H2363     1.0  0.91673  0.37694  0.85719  1.0000
  C   C2942     1.0  0.85394  0.32503  0.73044  1.0000
  C   C2943     1.0  0.84466  0.33733  0.74404  1.0000
  C   C2944     1.0  0.85532  0.34206  0.75917  1.0000
  C   C2945     1.0  0.87545  0.33474  0.76007  1.0000
  C   C2946     1.0  0.88474  0.32282  0.74585  1.0000
  C   C2947     1.0  0.87398  0.31778  0.73148  1.0000
  H   H2364     1.0  0.82910  0.34295  0.74338  1.0000
  H   H2365     1.0  0.84796  0.35125  0.77019  1.0000
  H   H2366     1.0  0.90018  0.31717  0.74661  1.0000
  H   H2367     1.0  0.88110  0.30810  0.72153  1.0000
  C   C2948     1.0  0.85766  0.33489  0.55247  1.0000
  C   C2949     1.0  0.87785  0.32860  0.54305  1.0000
  C   C2950     1.0  0.88799  0.31523  0.55866  1.0000
  C   C2951     1.0  0.87819  0.30837  0.58403  1.0000
  C   C2952     1.0  0.85808  0.31482  0.59373  1.0000
  C   C2953     1.0  0.84771  0.32790  0.57777  1.0000
  H   H2368     1.0  0.88554  0.33387  0.52354  1.0000
  H   H2369     1.0  0.90349  0.31018  0.55118  1.0000
  H   H2370     1.0  0.85061  0.30984  0.61355  1.0000
  H   H2371     1.0  0.83222  0.33287  0.58542  1.0000
  H   H2372     1.0  0.80768  0.30250  0.55435  1.0000
  C   C2954     1.0  0.90334  0.44429  0.53739  1.0000
  C   C2955     1.0  0.91246  0.43261  0.52247  1.0000
  C   C2956     1.0  0.90068  0.42598  0.51178  1.0000
  C   C2957     1.0  0.87980  0.43158  0.51489  1.0000
  C   C2958     1.0  0.87077  0.44364  0.52905  1.0000
  C   C2959     1.0  0.88242  0.44970  0.54085  1.0000
  H   H2373     1.0  0.92865  0.42861  0.51937  1.0000
  H   H2374     1.0  0.77152  0.26232  0.63203  1.0000
  H   H2375     1.0  0.85465  0.44805  0.53144  1.0000
  C   C2960     1.0  0.84417  0.43196  0.69502  1.0000
  C   C2961     1.0  0.82396  0.43155  0.70723  1.0000
  C   C2962     1.0  0.81879  0.42505  0.73455  1.0000
  C   C2963     1.0  0.83384  0.41841  0.74965  1.0000
  C   C2964     1.0  0.85415  0.41885  0.73748  1.0000
  C   C2965     1.0  0.85930  0.42585  0.71018  1.0000
  H   H2376     1.0  0.81226  0.43627  0.69550  1.0000
  H   H2377     1.0  0.80311  0.42482  0.74384  1.0000
  H   H2378     1.0  0.86582  0.41415  0.74914  1.0000
  H   H2379     1.0  0.87495  0.42617  0.70073  1.0000
  Fe  Fe213     1.0  0.85111  0.26466  0.69115  1.0000
  C   C2966     1.0  0.87817  0.36927  0.91006  1.0000
  C   C2967     1.0  0.93444  0.33766  0.92577  1.0000
  H   H2380     1.0  0.88284  0.37412  0.88899  1.0000
  C   C2968     1.0  0.99341  0.46592  0.65624  1.0000
  C   C2969     1.0  0.95481  0.29441  0.49461  1.0000
  C   C2970     1.0  0.94254  0.38352  0.51578  1.0000
  C   C2971     1.0  0.97493  0.33201  0.71181  1.0000
  C   C2972     1.0  0.86079  0.34561  0.64956  1.0000
  C   C2973     1.0  0.85241  0.35503  0.62768  1.0000
  C   C2974     1.0  0.86299  0.35404  0.60166  1.0000
  P   P98       1.0  0.82750  0.36699  0.63398  1.0000
  C   C2975     1.0  0.80883  0.35443  0.64601  1.0000
  C   C2976     1.0  0.82812  0.37681  0.65953  1.0000
  C   C2977     1.0  0.81828  0.37199  0.68613  1.0000
  C   C2978     1.0  0.81977  0.37914  0.70601  1.0000
  C   C2979     1.0  0.83100  0.39114  0.69948  1.0000
  C   C2980     1.0  0.84104  0.39584  0.67315  1.0000
  C   C2981     1.0  0.84008  0.38839  0.65341  1.0000
  C   C2982     1.0  0.78822  0.36140  0.65006  1.0000
  C   C2983     1.0  0.77349  0.35194  0.66048  1.0000
  H   H2381     1.0  0.94302  0.40223  0.53418  1.0000
  C   C2984     1.0  0.98098  0.27939  0.68420  1.0000
  C   C2985     1.0  0.81449  0.33783  0.65209  1.0000
  C   C2986     1.0  0.82086  0.38079  0.60416  1.0000
  C   C2987     1.0  0.81972  0.37497  0.58242  1.0000
  C   C2988     1.0  0.81556  0.38539  0.55873  1.0000
  C   C2989     1.0  0.81176  0.40172  0.55686  1.0000
  C   C2990     1.0  0.81160  0.40762  0.57894  1.0000
  C   C2991     1.0  0.81605  0.39723  0.60255  1.0000
  H   H2382     1.0  0.72978  0.24104  0.85816  1.0000
  H   H2383     1.0  0.84517  0.42324  0.57153  1.0000
  C   C2992     1.0  0.96563  0.28414  0.66911  1.0000
  H   H2384     1.0  0.85292  0.34612  0.66988  1.0000
  H   H2385     1.0  0.85739  0.36134  0.58423  1.0000
  H   H2386     1.0  0.80988  0.36246  0.69176  1.0000
  H   H2387     1.0  0.81238  0.37528  0.72656  1.0000
  H   H2388     1.0  0.83219  0.39664  0.71490  1.0000
  H   H2389     1.0  0.84984  0.40509  0.66810  1.0000
  H   H2390     1.0  0.84864  0.39169  0.63334  1.0000
  H   H2391     1.0  0.78359  0.37417  0.64551  1.0000
  H   H2392     1.0  0.75762  0.35740  0.66387  1.0000
  H   H2393     1.0  0.99575  0.37566  0.59646  1.0000
  C   C2993     1.0  0.99207  0.45707  0.72307  1.0000
  C   C2994     1.0  0.97310  0.44396  0.50424  1.0000
  H   H2394     1.0  0.82265  0.36234  0.58347  1.0000
  H   H2395     1.0  0.80831  0.42030  0.57759  1.0000
  H   H2396     1.0  0.81568  0.40218  0.61930  1.0000
  H   H2397     1.0  0.99192  0.39164  0.94136  1.0000
  H   H2398     1.0  0.77779  0.32199  0.62389  1.0000
  C   C2995     1.0  0.93739  0.45640  0.72835  1.0000
  P   P99       1.0  0.78927  0.29047  0.60974  1.0000
  C   C2996     1.0  0.81364  0.27776  0.60267  1.0000
  C   C2997     1.0  0.78100  0.29048  0.64503  1.0000
  C   C2998     1.0  0.79428  0.28420  0.66296  1.0000
  C   C2999     1.0  0.78774  0.28523  0.68981  1.0000
  C   C3000     1.0  0.76787  0.29232  0.69907  1.0000
  H   H2399     1.0  0.80898  0.40978  0.53828  1.0000
  H   H2400     1.0  0.97166  0.45601  0.96342  1.0000
  H   H2401     1.0  0.80222  0.44978  0.80361  1.0000
  H   H2402     1.0  0.76086  0.45809  0.73523  1.0000
  C   C3001     1.0  0.91452  0.24032  0.88588  1.0000
  C   C3002     1.0  0.92501  0.31881  0.68751  1.0000
  C   C3003     1.0  0.86285  0.42067  0.60101  1.0000
  C   C3004     1.0  0.98656  0.32589  0.75368  1.0000
  H   H2403     1.0  0.96119  0.43011  0.97685  1.0000
  H   H2404     1.0  0.80963  0.27835  0.65661  1.0000
  H   H2405     1.0  0.79816  0.28038  0.70349  1.0000
  H   H2406     1.0  0.76291  0.29304  0.71992  1.0000
  H   H2407     1.0  0.80297  0.26102  0.58854  1.0000
  H   H2408     1.0  0.96233  0.45495  0.53798  1.0000
  H   H2409     1.0  0.92396  0.35698  0.71218  1.0000
  C   C3005     1.0  0.86037  0.36314  0.91926  1.0000
  C   C3006     1.0  0.91934  0.47476  0.78281  1.0000
  H   H2410     1.0  0.94238  0.37237  0.76143  1.0000
  C   C3007     1.0  0.94796  0.36282  0.77671  1.0000
  C   C3008     1.0  0.99744  0.36481  0.61167  1.0000
  C   C3009     1.0  0.95634  0.33030  0.87678  1.0000
  C   C3010     1.0  0.88880  0.33326  0.61966  1.0000
  C   C3011     1.0  0.74705  0.28594  0.57135  1.0000
  C   C3012     1.0  0.81581  0.26430  0.59231  1.0000
  C   C3013     1.0  0.95533  0.27537  0.85050  1.0000
  H   H2411     1.0  0.99033  0.44215  0.65801  1.0000
  C   C3014     1.0  0.94352  0.33901  0.81056  1.0000
  H   H2412     1.0  0.96657  0.30247  0.54795  1.0000
  C   C3015     1.0  0.96582  0.37736  0.85665  1.0000
  S   S423      1.0  0.94213  0.35882  0.49404  1.0000
  C   C3016     1.0  0.83372  0.46576  0.77696  1.0000
  C   C3017     1.0  0.78297  0.46668  0.74706  1.0000
  C   C3018     1.0  0.90083  0.36419  0.65853  1.0000
  H   H2413     1.0  0.96010  0.28201  0.80751  1.0000
  C   C3019     1.0  0.83176  0.47338  0.70973  1.0000
  C   C3020     1.0  0.92438  0.33882  0.90532  1.0000
  C   C3021     1.0  0.79751  0.34060  0.56159  1.0000
  H   H2414     1.0  0.86246  0.42851  0.78461  1.0000
  C   C3022     1.0  0.76978  0.45642  0.75024  1.0000
  H   H2415     1.0  0.92649  0.38689  0.51596  1.0000
  C   C3023     1.0  0.84981  0.27194  0.60139  1.0000
  C   C3024     1.0  0.66692  0.26237  0.60615  1.0000
  H   H2416     1.0  0.84080  0.35196  0.95373  1.0000
  C   C3025     1.0  0.96150  0.35936  0.57739  1.0000
  C   C3026     1.0  0.95195  0.34944  0.57030  1.0000
  C   C3027     1.0  0.93097  0.35093  0.57760  1.0000
  C   C3028     1.0  0.91955  0.36228  0.59213  1.0000
  C   C3029     1.0  0.92889  0.37273  0.59843  1.0000
  C   C3030     1.0  0.95004  0.37110  0.59103  1.0000
  P   P100      1.0  0.91392  0.38814  0.61569  1.0000
  C   C3031     1.0  0.90293  0.38014  0.65008  1.0000
  C   C3032     1.0  0.93032  0.40142  0.61383  1.0000
  C   C3033     1.0  0.93571  0.41195  0.58956  1.0000
  C   C3034     1.0  0.94955  0.42155  0.58710  1.0000
  C   C3035     1.0  0.95776  0.42095  0.60898  1.0000
  C   C3036     1.0  0.95269  0.41035  0.63310  1.0000
  C   C3037     1.0  0.93919  0.40045  0.63549  1.0000
  C   C3038     1.0  0.88373  0.38472  0.69353  1.0000
  C   C3039     1.0  0.89466  0.39025  0.66812  1.0000
  C   C3040     1.0  0.89285  0.39975  0.60028  1.0000
  C   C3041     1.0  0.88856  0.39629  0.57804  1.0000
  C   C3042     1.0  0.87999  0.41227  0.61125  1.0000
  H   H2417     1.0  0.97774  0.35847  0.57121  1.0000
  H   H2418     1.0  0.96078  0.34090  0.55853  1.0000
  H   H2419     1.0  0.92360  0.34342  0.57161  1.0000
  H   H2420     1.0  0.90334  0.36332  0.59782  1.0000
  H   H2421     1.0  0.95783  0.37913  0.59492  1.0000
  H   H2422     1.0  0.93611  0.28163  0.66603  1.0000
  H   H2423     1.0  0.95356  0.42965  0.56828  1.0000
  H   H2424     1.0  0.96766  0.42897  0.60749  1.0000
  H   H2425     1.0  0.95892  0.41017  0.65001  1.0000
  H   H2426     1.0  0.93564  0.39219  0.65419  1.0000
  H   H2427     1.0  0.87690  0.39271  0.70702  1.0000
  H   H2428     1.0  0.89640  0.40249  0.66263  1.0000
  H   H2429     1.0  0.89876  0.38772  0.56749  1.0000
  H   H2430     1.0  0.88311  0.41580  0.62756  1.0000
  H   H2431     1.0  0.97160  0.37328  0.63949  1.0000
  C   C3043     1.0  0.92171  0.24339  0.85824  1.0000
  S   S424      1.0  0.91853  0.45266  0.55003  1.0000
  H   H2432     1.0  0.95493  0.41779  0.87139  1.0000
  C   C3044     1.0  0.88100  0.34309  0.59777  1.0000
  C   C3045     1.0  0.97897  0.33702  0.73269  1.0000
  H   H2433     1.0  0.83444  0.48303  0.79892  1.0000
  H   H2434     1.0  0.98853  0.42227  0.84429  1.0000
  H   H2435     1.0  0.90702  0.35603  0.64536  1.0000
  H   H2436     1.0  0.75891  0.26279  0.72889  1.0000
  C   C3046     1.0  0.85710  0.27366  0.83815  1.0000
  C   C3047     1.0  0.85179  0.25838  0.59175  1.0000
  Fe  Fe214     1.0  0.87694  0.39938  0.49228  1.0000
  H   H2437     1.0  0.93602  0.47737  0.65532  1.0000
  C   C3048     1.0  0.89025  0.35863  0.68423  1.0000
  C   C3049     1.0  0.98259  0.45430  0.65725  1.0000
  H   H2438     1.0  0.96009  0.39886  0.79470  1.0000
  H   H2439     1.0  0.90407  0.37342  0.92093  1.0000
  H   H2440     1.0  0.78995  0.44317  0.92984  1.0000
  C   C3050     1.0  0.97840  0.42940  0.80684  1.0000
  H   H2441     1.0  0.99329  0.43098  0.79531  1.0000
  H   H2442     1.0  0.68763  0.24500  0.54488  1.0000
  C   C3051     1.0  0.81942  0.43404  0.86197  1.0000
  C   C3052     1.0  0.81640  0.42064  0.85555  1.0000
  C   C3053     1.0  0.81574  0.40660  0.87496  1.0000
  C   C3054     1.0  0.81797  0.40594  0.90082  1.0000
  C   C3055     1.0  0.82048  0.41946  0.90766  1.0000
  C   C3056     1.0  0.82161  0.43344  0.88788  1.0000
  P   P101      1.0  0.82507  0.41817  0.94042  1.0000
  C   C3057     1.0  0.83089  0.28171  0.60649  1.0000
  S   S425      1.0  0.82571  0.25003  0.70650  1.0000
  C   C3058     1.0  0.79973  0.32843  0.66265  1.0000
  H   H2443     1.0  0.95800  0.25360  0.73611  1.0000
  C   C3059     1.0  0.85527  0.46152  0.80916  1.0000
  C   C3060     1.0  0.88675  0.40841  0.91451  1.0000
  C   C3061     1.0  0.86594  0.41277  0.91498  1.0000
  P   P102      1.0  0.99511  0.46947  0.54098  1.0000
  C   C3062     1.0  0.95192  0.39226  0.52601  1.0000
  Fe  Fe215     1.0  0.88969  0.48277  0.62599  1.0000
  Fe  Fe216     1.0  0.91046  0.37061  0.48876  1.0000
  H   H2444     1.0  0.74019  0.29241  0.55437  1.0000
  C   C3063     1.0  0.99062  0.30975  0.75366  1.0000
  C   C3064     1.0  0.98409  0.37491  0.51572  1.0000
  C   C3065     1.0  0.74696  0.25670  0.72982  1.0000
  H   H2445     1.0  0.82044  0.44478  0.84669  1.0000
  H   H2446     1.0  0.81513  0.42095  0.83536  1.0000
  H   H2447     1.0  0.81416  0.39602  0.86977  1.0000
  H   H2448     1.0  0.81821  0.39473  0.91519  1.0000
  H   H2449     1.0  0.73880  0.30330  0.68888  1.0000
  C   C3066     1.0  0.82271  0.44089  0.96981  1.0000
  C   C3067     1.0  0.98554  0.34923  0.65560  1.0000
  C   C3068     1.0  0.96275  0.30540  0.84792  1.0000
  H   H2450     1.0  0.89734  0.40801  0.89570  1.0000
  H   H2451     1.0  0.86085  0.41585  0.89623  1.0000
  C   C3069     1.0  0.93697  0.35083  0.78957  1.0000
  S   S426      1.0  0.98378  0.39889  0.53997  1.0000
  C   C3070     1.0  0.89390  0.40393  0.93842  1.0000
  H   H2452     1.0  0.99750  0.30123  0.76921  1.0000
  C   C3071     1.0  0.85450  0.35680  0.94658  1.0000
  H   H2453     1.0  0.90996  0.40008  0.93817  1.0000
  S   S427      1.0  0.98370  0.37068  0.87747  1.0000
  H   H2454     1.0  0.91855  0.31032  0.81235  1.0000
  C   C3072     1.0  0.88612  0.30339  0.85187  1.0000
  H   H2455     1.0  0.82964  0.29221  0.61387  1.0000
  C   C3073     1.0  0.94632  0.37391  0.86609  1.0000
  C   C3074     1.0  0.90021  0.30283  0.86727  1.0000
  C   C3075     1.0  0.89691  0.31397  0.88295  1.0000
  C   C3076     1.0  0.87971  0.32593  0.88303  1.0000
  H   H2456     1.0  0.99274  0.40707  0.77863  1.0000
  H   H2457     1.0  0.99669  0.34214  0.85518  1.0000
  C   C3077     1.0  0.85889  0.29806  0.80487  1.0000
  C   C3078     1.0  0.84196  0.29651  0.79668  1.0000
  C   C3079     1.0  0.83259  0.28354  0.80918  1.0000
  H   H2458     1.0  0.91592  0.31127  0.70277  1.0000
  C   C3080     1.0  0.94469  0.26693  0.70224  1.0000
  C   C3081     1.0  0.87094  0.40432  0.56857  1.0000
  C   C3082     1.0  0.86670  0.28662  0.82548  1.0000
  H   H2459     1.0  0.91362  0.29365  0.86740  1.0000
  H   H2460     1.0  0.90758  0.31327  0.89525  1.0000
  H   H2461     1.0  0.87708  0.33458  0.89522  1.0000
  H   H2462     1.0  0.86610  0.30807  0.79489  1.0000
  H   H2463     1.0  0.83632  0.30527  0.78032  1.0000
  H   H2464     1.0  0.81966  0.28225  0.80251  1.0000
  C   C3083     1.0  0.77025  0.28351  0.60047  1.0000
  H   H2465     1.0  0.97410  0.37230  0.77453  1.0000
  C   C3084     1.0  0.77926  0.33547  0.66699  1.0000
  C   C3085     1.0  0.87533  0.29741  0.51975  1.0000
  C   C3086     1.0  0.99503  0.40965  0.70366  1.0000
  C   C3087     1.0  0.93915  0.30744  0.48951  1.0000
  H   H2466     1.0  0.83020  0.33201  0.64919  1.0000
  C   C3088     1.0  0.95631  0.39189  0.81460  1.0000
  H   H2467     1.0  0.78279  0.34847  0.59804  1.0000
  C   C3089     1.0  0.94344  0.31682  0.52667  1.0000
  C   C3090     1.0  0.92329  0.28657  0.75866  1.0000
  H   H2468     1.0  0.78251  0.41877  0.96797  1.0000
  H   H2469     1.0  0.86295  0.27477  0.60519  1.0000
  C   C3091     1.0  0.89011  0.36895  0.92818  1.0000
  C   C3092     1.0  0.96578  0.36283  0.78428  1.0000
  C   C3093     1.0  0.98196  0.42123  0.74291  1.0000
  C   C3094     1.0  0.98287  0.42180  0.71584  1.0000
  P   P103      1.0  0.96643  0.43743  0.75777  1.0000
  C   C3095     1.0  0.94328  0.44184  0.74534  1.0000
  C   C3096     1.0  0.96215  0.43179  0.79396  1.0000
  C   C3097     1.0  0.94293  0.42997  0.80957  1.0000
  C   C3098     1.0  0.94034  0.42504  0.83742  1.0000
  C   C3099     1.0  0.95677  0.42217  0.84993  1.0000
  C   C3100     1.0  0.97518  0.46488  0.76481  1.0000
  C   C3101     1.0  0.88404  0.36287  0.95558  1.0000
  C   C3102     1.0  0.90764  0.44766  0.72564  1.0000
  C   C3103     1.0  0.91377  0.43302  0.74184  1.0000
  C   C3104     1.0  0.93182  0.42999  0.75098  1.0000
  C   C3105     1.0  0.86587  0.32682  0.86727  1.0000
  H   H2470     1.0  0.93339  0.32842  0.71553  1.0000
  H   H2471     1.0  0.92407  0.28040  0.74331  1.0000
  H   H2472     1.0  0.96378  0.38004  0.93814  1.0000
  H   H2473     1.0  0.93000  0.43179  0.80053  1.0000
  H   H2474     1.0  0.92575  0.42284  0.84920  1.0000
  C   C3106     1.0  0.94761  0.27801  0.67807  1.0000
  C   C3107     1.0  0.96181  0.45835  0.65726  1.0000
  C   C3108     1.0  0.96132  0.33903  0.81862  1.0000
  H   H2475     1.0  0.89374  0.44991  0.71838  1.0000
  H   H2476     1.0  0.90472  0.42391  0.74706  1.0000
  H   H2477     1.0  0.93692  0.41838  0.76253  1.0000
  H   H2478     1.0  0.96256  0.39938  0.69892  1.0000
  C   C3109     1.0  0.96005  0.26217  0.71738  1.0000
  C   C3110     1.0  0.95291  0.36426  0.69541  1.0000
  C   C3111     1.0  0.93262  0.36615  0.70870  1.0000
  C   C3112     1.0  0.92330  0.37995  0.71812  1.0000
  C   C3113     1.0  0.93399  0.39202  0.71415  1.0000
  C   C3114     1.0  0.95433  0.39004  0.70162  1.0000
  C   C3115     1.0  0.96388  0.37615  0.69254  1.0000
  C   C3116     1.0  0.98665  0.30469  0.73296  1.0000
  C   C3117     1.0  0.86621  0.35679  0.96476  1.0000
  H   H2479     1.0  0.90779  0.38120  0.72879  1.0000
  H   H2480     1.0  0.92664  0.40276  0.72126  1.0000
  H   H2481     1.0  0.97411  0.43168  0.70411  1.0000
  H   H2482     1.0  0.71136  0.24188  0.82330  1.0000
  C   C3118     1.0  0.97234  0.35111  0.80532  1.0000
  C   C3119     1.0  0.78785  0.33844  0.58846  1.0000
  H   H2483     1.0  0.92918  0.41285  0.57253  1.0000
  S   S428      1.0  0.87463  0.47020  0.60697  1.0000
  C   C3120     1.0  0.90328  0.46992  0.77770  1.0000
  C   C3121     1.0  0.76086  0.29718  0.65468  1.0000
  Fe  Fe217     1.0  0.90585  0.45807  0.59111  1.0000
  H   H2484     1.0  0.68178  0.26181  0.59329  1.0000
  H   H2485     1.0  0.84915  0.40730  0.98247  1.0000
  H   H2486     1.0  0.94236  0.36715  0.88621  1.0000
  H   H2487     1.0  0.81244  0.32938  0.52870  1.0000
  H   H2488     1.0  0.89418  0.24924  0.91897  1.0000
  S   S429      1.0  0.88962  0.46453  0.66440  1.0000
  H   H2489     1.0  0.87531  0.45884  0.55204  1.0000
  C   C3122     1.0  0.78510  0.32333  0.60311  1.0000
  H   H2490     1.0  0.81567  0.38078  0.54162  1.0000
  Fe  Fe218     1.0  0.91987  0.45331  0.64347  1.0000
  C   C3123     1.0  0.91967  0.45921  0.71837  1.0000
  H   H2491     1.0  0.85333  0.43052  0.60930  1.0000
  C   C3124     1.0  0.93343  0.31852  0.50590  1.0000
  S   S430      1.0  0.94811  0.44350  0.66071  1.0000
  S   S431      1.0  0.88329  0.25904  0.66833  1.0000
  H   H2492     1.0  0.87309  0.36472  0.72131  1.0000
  H   H2493     1.0  0.86751  0.40156  0.55163  1.0000
  C   C3125     1.0  0.90000  0.26944  0.85388  1.0000
  C   C3126     1.0  0.99295  0.40797  0.75781  1.0000
  S   S432      1.0  0.92094  0.47244  0.60650  1.0000
  H   H2494     1.0  0.91528  0.47034  0.70493  1.0000
  P   P104      1.0  0.96533  0.34614  0.68433  1.0000
  C   C3127     1.0  0.98394  0.36348  0.63628  1.0000
  H   H2495     1.0  0.88852  0.34636  0.69064  1.0000
  C   C3128     1.0  0.86312  0.32031  0.48744  1.0000
  C   C3129     1.0  0.81532  0.24321  0.66326  1.0000
  C   C3130     1.0  0.95902  0.30387  0.53159  1.0000
  C   C3131     1.0  0.95201  0.47415  0.65556  1.0000
  C   C3132     1.0  0.76842  0.44381  0.77242  1.0000
  H   H2496     1.0  0.94650  0.46548  0.72241  1.0000
  H   H2497     1.0  0.76511  0.30317  0.56706  1.0000
  H   H2498     1.0  0.98970  0.26454  0.72033  1.0000
  H   H2499     1.0  0.82454  0.44375  0.89236  1.0000
  C   C3133     1.0  0.79112  0.40709  0.97412  1.0000
  H   H2500     1.0  0.88103  0.27471  0.89096  1.0000
  C   C3134     1.0  0.89512  0.29759  0.50540  1.0000
  H   H2501     1.0  0.98579  0.35181  0.81135  1.0000
  H   H2502     1.0  0.76790  0.32814  0.67549  1.0000
  C   C3135     1.0  0.94809  0.33729  0.67485  1.0000
  C   C3136     1.0  0.93501  0.32849  0.69458  1.0000
  C   C3137     1.0  0.96321  0.30063  0.82445  1.0000
  C   C3138     1.0  0.97869  0.45437  0.74771  1.0000
  C   C3139     1.0  0.96470  0.29267  0.51557  1.0000
  H   H2503     1.0  0.85261  0.33623  0.86725  1.0000
  C   C3140     1.0  0.84203  0.45034  0.77310  1.0000
  H   H2504     1.0  0.96003  0.34333  0.63213  1.0000
  H   H2505     1.0  0.85813  0.31661  0.83960  1.0000
  H   H2506     1.0  0.88477  0.32736  0.66270  1.0000
  C   C3141     1.0  0.88024  0.40371  0.96279  1.0000
  H   H2507     1.0  0.94707  0.29890  0.73598  1.0000
  C   C3142     1.0  0.93983  0.32734  0.64097  1.0000
  H   H2508     1.0  0.94212  0.32649  0.62034  1.0000
  P   P105      1.0  0.88989  0.28804  0.83357  1.0000
  Fe  Fe219     1.0  0.89305  0.26889  0.69740  1.0000
  C   C3143     1.0  0.92760  0.31816  0.66076  1.0000
  H   H2509     1.0  0.96322  0.33190  0.93773  1.0000
  C   C3144     1.0  0.81449  0.43662  0.95150  1.0000
  C   C3145     1.0  0.97270  0.38805  0.52594  1.0000
  H   H2510     1.0  0.89994  0.45831  0.78760  1.0000
  S   S433      1.0  0.92194  0.25911  0.71465  1.0000
  H   H2511     1.0  0.97606  0.31159  0.69612  1.0000
  H   H2512     1.0  0.94352  0.31464  0.77015  1.0000
  C   C3146     1.0  0.87888  0.33480  0.64554  1.0000
  H   H2513     1.0  0.86646  0.25074  0.58813  1.0000
  C   C3147     1.0  0.76121  0.29199  0.57862  1.0000
  H   H2514     1.0  0.88873  0.34209  0.57765  1.0000
  H   H2515     1.0  0.75025  0.30182  0.64129  1.0000
  C   C3148     1.0  0.83614  0.47828  0.68187  1.0000
  C   C3149     1.0  0.85208  0.41269  0.93946  1.0000
  C   C3150     1.0  0.92001  0.30336  0.79780  1.0000
  C   C3151     1.0  0.93424  0.30583  0.77387  1.0000
  C   C3152     1.0  0.79213  0.31020  0.59101  1.0000
  S   S434      1.0  0.67092  0.24161  0.70618  1.0000
  C   C3153     1.0  0.97802  0.26842  0.70854  1.0000
  C   C3154     1.0  0.97079  0.38624  0.83079  1.0000
  C   C3155     1.0  0.84008  0.27217  0.83001  1.0000
  H   H2516     1.0  0.90236  0.32436  0.61648  1.0000
  C   C3156     1.0  0.73916  0.25859  0.70699  1.0000
  C   C3157     1.0  0.97573  0.42454  0.83466  1.0000
  C   C3158     1.0  0.97678  0.39836  0.97877  1.0000
  H   H2517     1.0  0.80428  0.31567  0.66788  1.0000
  C   C3159     1.0  0.80191  0.31248  0.56400  1.0000
  C   C3160     1.0  0.83481  0.25462  0.58701  1.0000
  H   H2518     1.0  0.74696  0.24469  0.77057  1.0000
  H   H2519     1.0  0.84414  0.30896  0.52245  1.0000
  H   H2520     1.0  0.92305  0.35097  0.78373  1.0000
  C   C3161     1.0  0.97195  0.48223  0.55330  1.0000
  C   C3162     1.0  0.79693  0.44634  0.94339  1.0000
  C   C3163     1.0  0.95541  0.33267  0.92192  1.0000
  H   H2521     1.0  0.98344  0.35564  0.49857  1.0000
  H   H2522     1.0  0.95890  0.29808  0.89108  1.0000
  C   C3164     1.0  0.75082  0.26300  0.60757  1.0000
  C   C3165     1.0  0.97884  0.31576  0.71214  1.0000
  H   H2523     1.0  0.93441  0.33012  0.82078  1.0000
  C   C3166     1.0  0.86904  0.31563  0.85165  1.0000
  C   C3167     1.0  0.71778  0.23962  0.73138  1.0000
  C   C3168     1.0  0.95493  0.27998  0.87397  1.0000
  H   H2524     1.0  0.89919  0.27586  0.78492  1.0000
  C   C3169     1.0  0.78790  0.46006  0.95326  1.0000
  H   H2525     1.0  0.95188  0.27192  0.89316  1.0000
  H   H2526     1.0  0.87246  0.28881  0.53834  1.0000
  C   C3170     1.0  0.95385  0.37027  0.50590  1.0000
  C   C3171     1.0  0.79497  0.46437  0.76609  1.0000
  C   C3172     1.0  0.90901  0.28415  0.78232  1.0000
  C   C3173     1.0  0.93528  0.33542  0.88081  1.0000
  H   H2527     1.0  0.96774  0.29257  0.65022  1.0000
  C   C3174     1.0  0.99686  0.32119  0.84149  1.0000
  H   H2528     1.0  0.74494  0.26620  0.68841  1.0000
  H   H2529     1.0  0.83698  0.46114  0.71852  1.0000
  C   C3175     1.0  0.79321  0.45184  0.78860  1.0000
  C   C3176     1.0  0.97455  0.45324  0.52106  1.0000
  C   C3177     1.0  0.89258  0.26613  0.88163  1.0000
  H   H2530     1.0  0.95260  0.26375  0.85146  1.0000
  H   H2531     1.0  0.73124  0.26652  0.57991  1.0000
  H   H2532     1.0  0.92713  0.33665  0.86520  1.0000
  H   H2533     1.0  0.75854  0.43565  0.77456  1.0000
  H   H2534     1.0  0.97658  0.28250  0.51968  1.0000
  H   H2535     1.0  0.83648  0.44559  0.76011  1.0000
  H   H2536     1.0  0.96668  0.30841  0.80516  1.0000
  H   H2537     1.0  0.95785  0.48460  0.51975  1.0000
  H   H2538     1.0  0.74729  0.25156  0.61842  1.0000
  C   C3178     1.0  0.74194  0.27139  0.58573  1.0000
  C   C3179     1.0  0.89993  0.25168  0.89756  1.0000
  C   C3180     1.0  0.82248  0.38793  0.97184  1.0000
  H   H2539     1.0  0.83288  0.26205  0.83954  1.0000
  C   C3181     1.0  0.97832  0.39182  0.95683  1.0000
  H   H2540     1.0  0.90811  0.34247  0.90840  1.0000
  C   C3182     1.0  0.97463  0.36594  0.50598  1.0000
  H   H2541     1.0  0.87436  0.43839  0.81646  1.0000
  P   P106      1.0  0.96964  0.32401  0.84618  1.0000
  C   C3183     1.0  0.93614  0.29716  0.75455  1.0000
  H   H2542     1.0  0.92021  0.25985  0.82093  1.0000
  C   C3184     1.0  0.96631  0.32871  0.89773  1.0000
  H   H2543     1.0  0.82859  0.24758  0.65095  1.0000
  C   C3185     1.0  0.85935  0.30881  0.51083  1.0000
  H   H2544     1.0  0.83844  0.38471  0.96391  1.0000
  C   C3186     1.0  0.72445  0.25012  0.70785  1.0000
  H   H2545     1.0  0.98242  0.32437  0.89569  1.0000
  C   C3187     1.0  0.95878  0.29488  0.87271  1.0000
  H   H2546     1.0  0.97980  0.37471  0.68339  1.0000
  H   H2547     1.0  0.86284  0.26454  0.85392  1.0000
  C   C3188     1.0  0.85665  0.44057  0.78720  1.0000
  C   C3189     1.0  0.86322  0.44612  0.80531  1.0000
  C   C3190     1.0  0.81359  0.45453  0.97976  1.0000
  H   H2548     1.0  0.97657  0.34945  0.73274  1.0000
  H   H2549     1.0  0.71847  0.25140  0.69014  1.0000
  H   H2550     1.0  0.99032  0.32980  0.76930  1.0000
  C   C3191     1.0  0.81199  0.40336  0.96389  1.0000
  S   S435      1.0  0.89910  0.36259  0.97803  1.0000
  C   C3192     1.0  0.85946  0.40793  0.96332  1.0000
  S   S436      1.0  0.86450  0.42360  0.50172  1.0000
  C   C3193     1.0  0.78013  0.44153  0.79159  1.0000
  H   H2551     1.0  0.77431  0.46744  0.94702  1.0000
  H   H2552     1.0  0.90739  0.28892  0.51300  1.0000
  H   H2553     1.0  0.98999  0.29221  0.73262  1.0000
  H   H2554     1.0  0.92806  0.46700  0.79718  1.0000
  H   H2555     1.0  0.78393  0.47628  0.72958  1.0000
  H   H2556     1.0  0.80006  0.35224  0.55033  1.0000
  H   H2557     1.0  0.98564  0.38901  0.82340  1.0000
  H   H2558     1.0  0.87955  0.47611  0.75507  1.0000
  C   C3194     1.0  0.96248  0.38527  0.95504  1.0000
  H   H2559     1.0  0.92121  0.32854  0.50264  1.0000
  C   C3195     1.0  0.74020  0.24628  0.75346  1.0000
  H   H2560     1.0  0.98917  0.40336  0.97991  1.0000
  H   H2561     1.0  0.77947  0.43151  0.80843  1.0000
  H   H2562     1.0  0.95980  0.43875  0.50823  1.0000
  C   C3196     1.0  0.98523  0.47766  0.75752  1.0000
  H   H2563     1.0  0.93900  0.32559  0.53890  1.0000
  C   C3197     1.0  0.91447  0.25786  0.84226  1.0000
  C   C3198     1.0  0.81058  0.24313  0.69063  1.0000
  H   H2564     1.0  0.84484  0.46996  0.66968  1.0000
  C   C3199     1.0  0.89190  0.47990  0.75929  1.0000
  C   C3200     1.0  0.67477  0.24062  0.55845  1.0000
  H   H2565     1.0  0.83595  0.43369  0.97702  1.0000
  H   H2566     1.0  0.99596  0.41045  0.68257  1.0000
  C   C3201     1.0  0.99195  0.45966  0.51674  1.0000
  C   C3202     1.0  0.94507  0.38535  0.97515  1.0000
  H   H2567     1.0  0.93283  0.38015  0.97388  1.0000
  H   H2568     1.0  0.99618  0.43492  0.55831  1.0000
  H   H2569     1.0  0.99486  0.44935  0.70935  1.0000
  H   H2570     1.0  0.98264  0.48563  0.77086  1.0000
  H   H2571     1.0  0.68372  0.24722  0.76575  1.0000
  H   H2572     1.0  0.86035  0.46585  0.82324  1.0000
  C   C3203     1.0  0.96283  0.48570  0.65492  1.0000
  C   C3204     1.0  0.67837  0.23990  0.78481  1.0000
  C   C3205     1.0  0.84058  0.47132  0.79509  1.0000
  H   H2573     1.0  0.98134  0.48330  0.58893  1.0000
  H   H2574     1.0  0.77342  0.48435  0.79808  1.0000
  P   P107      1.0  0.81264  0.47725  0.76148  1.0000
  H   H2575     1.0  0.67597  0.24110  0.63426  1.0000
  H   H2576     1.0  0.83629  0.24405  0.57965  1.0000
  C   C3206     1.0  0.82026  0.48409  0.72564  1.0000
  H   H2577     1.0  0.88571  0.39983  0.98139  1.0000
  C   C3207     1.0  0.99899  0.47994  0.73324  1.0000
  C   C3208     1.0  0.72552  0.23765  0.75440  1.0000
  C   C3209     1.0  0.98905  0.44090  0.48307  1.0000
  H   H2578     1.0  0.95918  0.28540  0.48290  1.0000
  S   S437      1.0  0.82773  0.51899  0.17624  1.0000
  Fe  Fe220     1.0  0.89491  0.56059  0.22047  1.0000
  S   S438      1.0  0.87025  0.58066  0.23160  1.0000
  S   S439      1.0  0.89212  0.53484  0.22744  1.0000
  Fe  Fe221     1.0  0.92666  0.58172  0.20032  1.0000
  S   S440      1.0  0.90462  0.60353  0.20904  1.0000
  S   S441      1.0  0.95962  0.58201  0.18291  1.0000
  Fe  Fe222     1.0  0.89328  0.58753  0.24759  1.0000
  S   S442      1.0  0.88547  0.59510  0.28714  1.0000
  Fe  Fe223     1.0  0.88382  0.59491  0.19221  1.0000
  S   S443      1.0  0.86381  0.61260  0.16629  1.0000
  S   S444      1.0  0.91687  0.56617  0.23998  1.0000
  S   S445      1.0  0.90690  0.57437  0.17972  1.0000
  Fe  Fe224     1.0  0.91503  0.70222  0.01197  1.0000
  S   S446      1.0  0.88431  0.71714  0.00977  1.0000
  C   C3210     1.0  0.99567  0.70493  0.01791  1.0000
  Fe  Fe225     1.0  0.89811  0.67250  0.04079  1.0000
  S   S447      1.0  0.86578  0.68508  0.04147  1.0000
  S   S448      1.0  0.91080  0.64686  0.05637  1.0000
  C   C3211     1.0  0.97556  0.50692  0.29480  1.0000
  Fe  Fe226     1.0  0.87557  0.70451  0.05240  1.0000
  S   S449      1.0  0.85687  0.71965  0.08160  1.0000
  C   C3212     1.0  0.93177  0.49011  0.24985  1.0000
  S   S450      1.0  0.90682  0.69084  0.05532  1.0000
  Fe  Fe227     1.0  0.90990  0.67217  0.37181  1.0000
  S   S451      1.0  0.90707  0.69840  0.35683  1.0000
  Fe  Fe228     1.0  0.91883  0.66579  0.31586  1.0000
  S   S452      1.0  0.91637  0.69159  0.29630  1.0000
  S   S453      1.0  0.93053  0.64877  0.28813  1.0000
  Fe  Fe229     1.0  0.93410  0.69239  0.32552  1.0000
  S   S454      1.0  0.95973  0.70544  0.31106  1.0000
  Fe  Fe230     1.0  0.88942  0.69540  0.32904  1.0000
  H   H2579     1.0  0.91115  0.70821  0.13229  1.0000
  S   S455      1.0  0.93878  0.66641  0.34285  1.0000
  S   S456      1.0  0.89000  0.66943  0.34620  1.0000
  H   H2580     1.0  0.96606  0.73136  0.27047  1.0000
  C   C3213     1.0  0.96975  0.69894  0.05709  1.0000
  C   C3214     1.0  0.98921  0.70924  0.33333  1.0000
  H   H2581     1.0  0.89714  0.65477  0.47272  1.0000
  C   C3215     1.0  0.94318  0.63797  0.19554  1.0000
  H   H2582     1.0  0.77802  0.49133  0.11870  1.0000
  C   C3216     1.0  0.88665  0.53108  0.09633  1.0000
  H   H2583     1.0  0.80149  0.70663  0.15417  1.0000
  C   C3217     1.0  0.85704  0.73558  0.21810  1.0000
  H   H2584     1.0  0.88151  0.51920  0.04236  1.0000
  C   C3218     1.0  0.97108  0.70389  0.33783  1.0000
  C   C3219     1.0  0.99067  0.69922  0.38026  1.0000
  H   H2585     1.0  0.80248  0.49833  0.07632  1.0000
  C   C3220     1.0  0.97194  0.69477  0.38497  1.0000
  C   C3221     1.0  0.96244  0.69670  0.36362  1.0000
  H   H2586     1.0  0.94267  0.65486  0.01254  1.0000
  H   H2587     1.0  0.84307  0.70457  0.26650  1.0000
  H   H2588     1.0  0.94852  0.69247  0.36709  1.0000
  C   C3222     1.0  0.84876  0.69014  0.16630  1.0000
  C   C3223     1.0  0.96102  0.70770  0.01321  1.0000
  C   C3224     1.0  0.95532  0.70299  0.04093  1.0000
  C   C3225     1.0  0.92604  0.54257  0.08364  1.0000
  C   C3226     1.0  0.86502  0.57639  0.14134  1.0000
  H   H2589     1.0  0.93975  0.70283  0.05008  1.0000
  C   C3227     1.0  0.87728  0.62241  0.13641  1.0000
  C   C3228     1.0  0.89694  0.61556  0.12564  1.0000
  C   C3229     1.0  0.90714  0.62319  0.10104  1.0000
  C   C3230     1.0  0.89790  0.63785  0.08748  1.0000
  C   C3231     1.0  0.87844  0.64489  0.09859  1.0000
  C   C3232     1.0  0.86805  0.63707  0.12289  1.0000
  H   H2590     1.0  0.90411  0.60425  0.13599  1.0000
  H   H2591     1.0  0.92222  0.61774  0.09252  1.0000
  H   H2592     1.0  0.87127  0.65621  0.08824  1.0000
  H   H2593     1.0  0.85286  0.64241  0.13123  1.0000
  C   C3233     1.0  0.89745  0.61037  0.28744  1.0000
  C   C3234     1.0  0.91411  0.61393  0.26754  1.0000
  C   C3235     1.0  0.92415  0.62563  0.26822  1.0000
  C   C3236     1.0  0.91724  0.63426  0.28841  1.0000
  C   C3237     1.0  0.90029  0.63101  0.30819  1.0000
  C   C3238     1.0  0.89054  0.61894  0.30786  1.0000
  H   H2594     1.0  0.91949  0.60743  0.25189  1.0000
  H   H2595     1.0  0.93746  0.62789  0.25317  1.0000
  H   H2596     1.0  0.89492  0.63759  0.32393  1.0000
  H   H2597     1.0  0.87764  0.61625  0.32338  1.0000
  H   H2598     1.0  0.94611  0.59179  0.23360  1.0000
  C   C3239     1.0  0.84601  0.52321  0.19003  1.0000
  C   C3240     1.0  0.86297  0.51184  0.19601  1.0000
  C   C3241     1.0  0.87696  0.51549  0.20762  1.0000
  C   C3242     1.0  0.87441  0.53065  0.21262  1.0000
  C   C3243     1.0  0.85768  0.54210  0.20612  1.0000
  C   C3244     1.0  0.84351  0.53837  0.19494  1.0000
  H   H2599     1.0  0.88996  0.50665  0.21231  1.0000
  H   H2600     1.0  0.85553  0.55381  0.20994  1.0000
  H   H2601     1.0  0.83050  0.54727  0.19015  1.0000
  C   C3245     1.0  0.88720  0.71283  0.11050  1.0000
  H   H2602     1.0  0.95529  0.54541  0.26237  1.0000
  H   H2603     1.0  0.90841  0.71972  0.39217  1.0000
  H   H2604     1.0  0.82861  0.68396  0.00967  1.0000
  H   H2605     1.0  0.86627  0.71696  0.46538  1.0000
  H   H2606     1.0  0.84512  0.51387  0.12157  1.0000
  C   C3246     1.0  0.92610  0.52606  0.17426  1.0000
  H   H2607     1.0  0.83816  0.49486  0.24038  1.0000
  C   C3247     1.0  0.94859  0.56181  0.28804  1.0000
  H   H2608     1.0  0.94492  0.73084  0.13684  1.0000
  H   H2609     1.0  0.98020  0.54413  0.04079  1.0000
  C   C3248     1.0  0.99472  0.51114  0.28698  1.0000
  C   C3249     1.0  0.98158  0.54502  0.27789  1.0000
  C   C3250     1.0  0.97593  0.53902  0.19375  1.0000
  H   H2610     1.0  0.95493  0.53167  0.12553  1.0000
  C   C3251     1.0  0.89744  0.71612  0.12760  1.0000
  H   H2611     1.0  0.96278  0.51471  0.28700  1.0000
  C   C3252     1.0  0.86602  0.71195  0.44894  1.0000
  C   C3253     1.0  0.97985  0.63877  0.40715  1.0000
  C   C3254     1.0  0.91458  0.68735  0.47283  1.0000
  C   C3255     1.0  0.95831  0.62694  0.18390  1.0000
  C   C3256     1.0  0.86222  0.51539  0.08126  1.0000
  Fe  Fe231     1.0  0.82918  0.49445  0.17018  1.0000
  C   C3257     1.0  0.95897  0.55483  0.12621  1.0000
  C   C3258     1.0  0.97846  0.62875  0.17800  1.0000
  H   H2612     1.0  0.86363  0.69309  0.39167  1.0000
  H   H2613     1.0  0.95201  0.63630  0.37596  1.0000
  C   C3259     1.0  0.98994  0.69974  0.04553  1.0000
  C   C3260     1.0  0.90858  0.73166  0.38043  1.0000
  C   C3261     1.0  0.97724  0.66273  0.04028  1.0000
  C   C3262     1.0  0.98757  0.64573  0.29225  1.0000
  H   H2614     1.0  0.96497  0.59646  0.26429  1.0000
  H   H2615     1.0  0.98293  0.66282  0.35788  1.0000
  C   C3263     1.0  0.99102  0.61023  0.34837  1.0000
  C   C3264     1.0  0.96017  0.62748  0.36448  1.0000
  C   C3265     1.0  0.97460  0.65238  0.99595  1.0000
  C   C3266     1.0  0.99373  0.55860  0.11530  1.0000
  C   C3267     1.0  0.95850  0.66132  0.03702  1.0000
  C   C3268     1.0  0.80139  0.65530  0.01862  1.0000
  H   H2616     1.0  0.97999  0.66844  0.43670  1.0000
  H   H2617     1.0  0.79428  0.64666  0.03435  1.0000
  C   C3269     1.0  0.93409  0.55639  0.07784  1.0000
  C   C3270     1.0  0.95343  0.55701  0.06211  1.0000
  P   P108      1.0  0.97554  0.66767  0.20717  1.0000
  H   H2618     1.0  0.85292  0.50910  0.07566  1.0000
  C   C3271     1.0  0.82063  0.67634  0.00483  1.0000
  H   H2619     1.0  0.96218  0.49162  0.25021  1.0000
  H   H2620     1.0  0.92763  0.63629  0.20080  1.0000
  C   C3272     1.0  0.85054  0.72654  0.20509  1.0000
  C   C3273     1.0  0.94699  0.71443  0.19445  1.0000
  S   S457      1.0  0.90353  0.73324  0.15978  1.0000
  H   H2621     1.0  0.99305  0.69451  0.22710  1.0000
  H   H2622     1.0  0.92472  0.49900  0.26164  1.0000
  H   H2623     1.0  0.92587  0.56652  0.08622  1.0000
  H   H2624     1.0  0.81213  0.66425  0.04571  1.0000
  H   H2625     1.0  0.86034  0.67737  0.43822  1.0000
  C   C3274     1.0  0.89023  0.72972  0.13827  1.0000
  C   C3275     1.0  0.89047  0.52901  0.06996  1.0000
  H   H2626     1.0  0.96922  0.54940  0.18058  1.0000
  C   C3276     1.0  0.99771  0.65838  0.34693  1.0000
  H   H2627     1.0  0.98143  0.56790  0.32068  1.0000
  C   C3277     1.0  0.86738  0.71393  0.40193  1.0000
  C   C3278     1.0  0.82345  0.67804  0.20081  1.0000
  C   C3279     1.0  0.98631  0.53299  0.11751  1.0000
  H   H2628     1.0  0.93243  0.51824  0.07933  1.0000
  C   C3280     1.0  0.97886  0.66172  0.28553  1.0000
  H   H2629     1.0  0.93762  0.63717  0.45643  1.0000
  C   C3281     1.0  0.98916  0.69674  0.47930  1.0000
  H   H2630     1.0  0.81931  0.66965  0.21922  1.0000
  C   C3282     1.0  0.97571  0.56275  0.30828  1.0000
  C   C3283     1.0  0.95583  0.56820  0.30447  1.0000
  H   H2631     1.0  0.79253  0.68711  0.19631  1.0000
  H   H2632     1.0  0.90899  0.69925  0.24007  1.0000
  C   C3284     1.0  0.98124  0.70874  0.00172  1.0000
  H   H2633     1.0  0.97828  0.66676  0.05747  1.0000
  C   C3285     1.0  0.96270  0.63331  0.42387  1.0000
  C   C3286     1.0  0.81139  0.66522  0.02507  1.0000
  H   H2634     1.0  0.95775  0.62344  0.42073  1.0000
  C   C3287     1.0  0.87011  0.52570  0.11479  1.0000
  H   H2635     1.0  0.98149  0.72339  0.21888  1.0000
  C   C3288     1.0  0.97313  0.59226  0.24641  1.0000
  C   C3289     1.0  0.92351  0.69948  0.22666  1.0000
  H   H2636     1.0  0.95444  0.61676  0.18011  1.0000
  H   H2637     1.0  0.92738  0.70284  0.43736  1.0000
  H   H2638     1.0  0.95299  0.60981  0.31859  1.0000
  C   C3290     1.0  0.97523  0.65851  0.43339  1.0000
  H   H2639     1.0  0.93057  0.53152  0.18745  1.0000
  C   C3291     1.0  0.88702  0.55970  0.11184  1.0000
  C   C3292     1.0  0.92814  0.71393  0.21136  1.0000
  C   C3293     1.0  0.98070  0.62107  0.36463  1.0000
  H   H2640     1.0  0.86159  0.71847  0.19402  1.0000
  H   H2641     1.0  0.97573  0.70132  0.17971  1.0000
  C   C3294     1.0  0.91388  0.51203  0.14087  1.0000
  C   C3295     1.0  0.86288  0.69640  0.45459  1.0000
  C   C3296     1.0  0.96565  0.53915  0.12322  1.0000
  H   H2642     1.0  0.96820  0.70758  0.43847  1.0000
  C   C3297     1.0  0.80075  0.48856  0.35095  1.0000
  C   C3298     1.0  0.85793  0.51793  0.10722  1.0000
  C   C3299     1.0  0.91015  0.52862  0.13694  1.0000
  S   S458      1.0  0.81089  0.49113  0.14320  1.0000
  H   H2643     1.0  0.96745  0.57671  0.12437  1.0000
  H   H2644     1.0  0.88972  0.72095  0.27453  1.0000
  H   H2645     1.0  0.86146  0.68951  0.47495  1.0000
  C   C3300     1.0  0.99351  0.51232  0.22752  1.0000
  C   C3301     1.0  0.81322  0.69902  0.16436  1.0000
  H   H2646     1.0  0.94656  0.72207  0.40616  1.0000
  S   S459      1.0  0.86099  0.71352  0.32434  1.0000
  C   C3302     1.0  0.96504  0.54377  0.05247  1.0000
  H   H2647     1.0  0.81006  0.49547  0.35502  1.0000
  C   C3303     1.0  0.96102  0.71973  0.43893  1.0000
  C   C3304     1.0  0.98865  0.64294  0.24760  1.0000
  H   H2648     1.0  0.82563  0.73560  0.28508  1.0000
  C   C3305     1.0  0.99039  0.60015  0.11826  1.0000
  H   H2649     1.0  0.93783  0.50243  0.19340  1.0000
  H   H2650     1.0  0.96773  0.68068  0.25556  1.0000
  H   H2651     1.0  0.83366  0.62010  0.21258  1.0000
  H   H2652     1.0  0.84534  0.64510  0.18963  1.0000
  C   C3306     1.0  0.80821  0.68802  0.18800  1.0000
  C   C3307     1.0  0.96059  0.61254  0.33199  1.0000
  H   H2653     1.0  0.86046  0.49343  0.28036  1.0000
  S   S460      1.0  0.94306  0.71259  0.99278  1.0000
  C   C3308     1.0  0.99626  0.59917  0.07153  1.0000
  H   H2654     1.0  0.97316  0.52261  0.17195  1.0000
  H   H2655     1.0  0.98046  0.55242  0.21941  1.0000
  H   H2656     1.0  0.90350  0.72452  0.05708  1.0000
  H   H2657     1.0  0.96643  0.51954  0.05137  1.0000
  H   H2658     1.0  0.90196  0.50834  0.31221  1.0000
  H   H2659     1.0  0.87549  0.51475  0.28509  1.0000
  H   H2660     1.0  0.91713  0.72478  0.21271  1.0000
  H   H2661     1.0  0.99915  0.62391  0.27853  1.0000
  H   H2662     1.0  0.78438  0.73372  0.36041  1.0000
  P   P109      1.0  0.99486  0.62887  0.38099  1.0000
  C   C3309     1.0  0.98347  0.64164  0.18364  1.0000
  C   C3310     1.0  0.96133  0.55022  0.27487  1.0000
  H   H2663     1.0  0.83711  0.60799  0.25956  1.0000
  C   C3311     1.0  0.87422  0.58742  0.09402  1.0000
  H   H2664     1.0  0.90265  0.53356  0.05506  1.0000
  C   C3312     1.0  0.93002  0.50962  0.17778  1.0000
  C   C3313     1.0  0.93794  0.52925  0.07414  1.0000
  C   C3314     1.0  0.99248  0.63635  0.27332  1.0000
  C   C3315     1.0  0.91742  0.67272  0.15677  1.0000
  C   C3316     1.0  0.92211  0.66028  0.14343  1.0000
  C   C3317     1.0  0.90931  0.64935  0.14992  1.0000
  C   C3318     1.0  0.89178  0.65085  0.16969  1.0000
  C   C3319     1.0  0.88691  0.66333  0.18321  1.0000
  C   C3320     1.0  0.89982  0.67433  0.17643  1.0000
  P   P110      1.0  0.86337  0.66626  0.20703  1.0000
  C   C3321     1.0  0.85555  0.64756  0.22368  1.0000
  C   C3322     1.0  0.84189  0.61915  0.24969  1.0000
  C   C3323     1.0  0.85036  0.62656  0.26328  1.0000
  C   C3324     1.0  0.85731  0.64061  0.25036  1.0000
  C   C3325     1.0  0.86667  0.67554  0.23180  1.0000
  C   C3326     1.0  0.88367  0.66972  0.24379  1.0000
  C   C3327     1.0  0.88563  0.67617  0.26419  1.0000
  C   C3328     1.0  0.87106  0.68872  0.27226  1.0000
  C   C3329     1.0  0.85430  0.69480  0.26013  1.0000
  C   C3330     1.0  0.85198  0.68814  0.24013  1.0000
  H   H2665     1.0  0.92736  0.68118  0.15178  1.0000
  H   H2666     1.0  0.93565  0.65910  0.12806  1.0000
  H   H2667     1.0  0.91288  0.63974  0.13952  1.0000
  H   H2668     1.0  0.88211  0.64226  0.17412  1.0000
  H   H2669     1.0  0.89622  0.68430  0.18603  1.0000
  H   H2670     1.0  0.85194  0.62120  0.28376  1.0000
  H   H2671     1.0  0.86404  0.64581  0.26150  1.0000
  H   H2672     1.0  0.86433  0.69121  0.15751  1.0000
  H   H2673     1.0  0.89507  0.65984  0.23806  1.0000
  H   H2674     1.0  0.89844  0.67140  0.27388  1.0000
  H   H2675     1.0  0.83865  0.69280  0.23144  1.0000
  H   H2676     1.0  0.96524  0.69523  0.07855  1.0000
  C   C3331     1.0  0.91786  0.68424  0.42740  1.0000
  C   C3332     1.0  0.88105  0.73187  0.27990  1.0000
  C   C3333     1.0  0.86880  0.72071  0.42242  1.0000
  C   C3334     1.0  0.91617  0.53552  0.15398  1.0000
  C   C3335     1.0  0.80630  0.73329  0.32372  1.0000
  C   C3336     1.0  0.88538  0.57260  0.09000  1.0000
  H   H2677     1.0  0.98110  0.71790  0.13328  1.0000
  C   C3337     1.0  0.99384  0.71804  0.22939  1.0000
  H   H2678     1.0  0.89286  0.70225  0.10261  1.0000
  H   H2679     1.0  0.86657  0.52752  0.13505  1.0000
  C   C3338     1.0  0.94813  0.65082  0.20141  1.0000
  C   C3339     1.0  0.95658  0.68572  0.20763  1.0000
  H   H2680     1.0  0.98277  0.62019  0.04593  1.0000
  H   H2681     1.0  0.86525  0.50028  0.19165  1.0000
  H   H2682     1.0  0.95058  0.72573  0.18292  1.0000
  C   C3340     1.0  0.95147  0.64084  0.44452  1.0000
  C   C3341     1.0  0.95722  0.65607  0.01493  1.0000
  C   C3342     1.0  0.92365  0.50258  0.16138  1.0000
  C   C3343     1.0  0.95766  0.65351  0.44915  1.0000
  P   P111      1.0  0.90231  0.54080  0.10681  1.0000
  H   H2683     1.0  0.94867  0.65965  0.46462  1.0000
  C   C3344     1.0  0.90364  0.66533  0.46496  1.0000
  C   C3345     1.0  0.97972  0.65900  0.24073  1.0000
  C   C3346     1.0  0.86415  0.69841  0.40769  1.0000
  H   H2684     1.0  0.90017  0.72481  0.45089  1.0000
  H   H2685     1.0  0.89292  0.57128  0.06994  1.0000
  C   C3347     1.0  0.86210  0.68959  0.43396  1.0000
  C   C3348     1.0  0.88064  0.50254  0.29469  1.0000
  H   H2686     1.0  0.87309  0.73443  0.21719  1.0000
  C   C3349     1.0  0.94864  0.72794  0.42057  1.0000
  C   C3350     1.0  0.77986  0.49135  0.36055  1.0000
  Fe  Fe232     1.0  0.87740  0.69662  0.99877  1.0000
  H   H2687     1.0  0.93453  0.62865  0.34744  1.0000
  C   C3351     1.0  0.97296  0.56457  0.12220  1.0000
  C   C3352     1.0  0.89568  0.49889  0.30981  1.0000
  C   C3353     1.0  0.86611  0.73151  0.30328  1.0000
  H   H2688     1.0  0.99176  0.59459  0.13876  1.0000
  H   H2689     1.0  0.99271  0.63541  0.23330  1.0000
  C   C3354     1.0  0.98923  0.72865  0.09165  1.0000
  C   C3355     1.0  0.99383  0.58184  0.19977  1.0000
  C   C3356     1.0  0.97651  0.62273  0.08668  1.0000
  C   C3357     1.0  0.96445  0.72735  0.45706  1.0000
  H   H2690     1.0  0.96739  0.63450  0.08261  1.0000
  C   C3358     1.0  0.92060  0.69247  0.44514  1.0000
  H   H2691     1.0  0.93615  0.65878  0.21123  1.0000
  C   C3359     1.0  0.98641  0.65110  0.41264  1.0000
  C   C3360     1.0  0.87620  0.56159  0.13738  1.0000
  C   C3361     1.0  0.93776  0.68547  0.22527  1.0000
  C   C3362     1.0  0.86961  0.72311  0.10399  1.0000
  C   C3363     1.0  0.98223  0.54072  0.21584  1.0000
  H   H2692     1.0  0.98284  0.49193  0.07596  1.0000
  H   H2693     1.0  0.85713  0.57791  0.16124  1.0000
  H   H2694     1.0  0.87344  0.59749  0.07730  1.0000
  C   C3364     1.0  0.95728  0.52990  0.05847  1.0000
  C   C3365     1.0  0.86416  0.58932  0.11970  1.0000
  H   H2695     1.0  0.94299  0.55960  0.13137  1.0000
  C   C3366     1.0  0.82987  0.72788  0.20649  1.0000
  C   C3367     1.0  0.98513  0.61460  0.06605  1.0000
  C   C3368     1.0  0.87840  0.52102  0.06257  1.0000
  H   H2696     1.0  0.90962  0.50638  0.12781  1.0000
  H   H2697     1.0  0.92635  0.48982  0.16443  1.0000
  H   H2698     1.0  0.82491  0.72066  0.19668  1.0000
  H   H2699     1.0  0.99161  0.52072  0.11600  1.0000
  H   H2700     1.0  0.87645  0.55168  0.15431  1.0000
  S   S461      1.0  0.90904  0.68269  0.99739  1.0000
  H   H2701     1.0  0.97212  0.62169  0.12883  1.0000
  C   C3369     1.0  0.95018  0.62320  0.34826  1.0000
  H   H2702     1.0  0.91367  0.54824  0.15124  1.0000
  H   H2703     1.0  0.93434  0.67456  0.23871  1.0000
  H   H2704     1.0  0.85570  0.60083  0.12291  1.0000
  C   C3370     1.0  0.97482  0.66833  0.25996  1.0000
  H   H2705     1.0  0.93634  0.72464  0.35370  1.0000
  H   H2706     1.0  0.94608  0.57753  0.31392  1.0000
  C   C3371     1.0  0.90928  0.67067  0.43725  1.0000
  H   H2707     1.0  0.98915  0.59805  0.31894  1.0000
  C   C3372     1.0  0.96114  0.70043  0.19251  1.0000
  H   H2708     1.0  0.96506  0.68935  0.40489  1.0000
  H   H2709     1.0  0.93568  0.73023  0.05994  1.0000
  C   C3373     1.0  0.79622  0.48772  0.08048  1.0000
  H   H2710     1.0  0.94493  0.66423  0.05163  1.0000
  P   P112      1.0  0.98264  0.71776  0.47822  1.0000
  H   H2711     1.0  0.97494  0.66902  0.30021  1.0000
  C   C3374     1.0  0.84387  0.67892  0.18991  1.0000
  C   C3375     1.0  0.98096  0.60594  0.33222  1.0000
  C   C3376     1.0  0.97917  0.61552  0.11274  1.0000
  H   H2712     1.0  0.95961  0.56764  0.05805  1.0000
  H   H2713     1.0  0.86896  0.72056  0.38139  1.0000
  H   H2714     1.0  0.93311  0.56611  0.28530  1.0000
  C   C3377     1.0  0.84676  0.64011  0.21027  1.0000
  C   C3378     1.0  0.83999  0.62597  0.22325  1.0000
  H   H2715     1.0  0.83729  0.70859  0.13525  1.0000
  C   C3379     1.0  0.99434  0.58923  0.24081  1.0000
  H   H2716     1.0  0.92259  0.68827  0.40615  1.0000
  C   C3380     1.0  0.97271  0.58490  0.20534  1.0000
  C   C3381     1.0  0.96238  0.58983  0.22893  1.0000
  C   C3382     1.0  0.83345  0.70011  0.15363  1.0000
  S   S462      1.0  0.90565  0.66009  0.41551  1.0000
  H   H2717     1.0  0.87273  0.69365  0.28805  1.0000
  H   H2718     1.0  0.98691  0.67852  0.14925  1.0000
  C   C3383     1.0  0.96834  0.65283  0.19548  1.0000
  C   C3384     1.0  0.86188  0.73632  0.11566  1.0000
  C   C3385     1.0  0.99348  0.65411  0.99871  1.0000
  C   C3386     1.0  0.97285  0.49248  0.31228  1.0000
  H   H2719     1.0  0.81686  0.72342  0.33268  1.0000
  C   C3387     1.0  0.87225  0.49047  0.29188  1.0000
  C   C3388     1.0  0.90644  0.73642  0.04962  1.0000
  C   C3389     1.0  0.80077  0.65639  0.99190  1.0000
  C   C3390     1.0  0.92463  0.73441  0.35889  1.0000
  H   H2720     1.0  0.99705  0.59473  0.40269  1.0000
  H   H2721     1.0  0.99033  0.64058  0.31217  1.0000
  C   C3391     1.0  0.97578  0.72587  0.11606  1.0000
  C   C3392     1.0  0.97826  0.52399  0.18873  1.0000
  C   C3393     1.0  0.98837  0.55098  0.29556  1.0000
  H   H2722     1.0  0.95809  0.48921  0.31806  1.0000
  H   H2723     1.0  0.77298  0.50040  0.37207  1.0000
  H   H2724     1.0  0.99597  0.71472  0.31333  1.0000
  H   H2725     1.0  0.99033  0.61985  0.16996  1.0000
  C   C3394     1.0  0.95544  0.73315  0.11804  1.0000
  C   C3395     1.0  0.99463  0.65914  0.02126  1.0000
  C   C3396     1.0  0.99049  0.52734  0.23334  1.0000
  C   C3397     1.0  0.98734  0.51069  0.20533  1.0000
  H   H2726     1.0  0.98960  0.49911  0.20103  1.0000
  H   H2727     1.0  0.79310  0.64850  0.98743  1.0000
  C   C3398     1.0  0.99885  0.67246  0.18556  1.0000
  P   P113      1.0  0.99790  0.52923  0.26256  1.0000
  C   C3399     1.0  0.99834  0.48957  0.07846  1.0000
  C   C3400     1.0  0.89295  0.73620  0.45571  1.0000
  C   C3401     1.0  0.99906  0.59184  0.09767  1.0000
  C   C3402     1.0  0.99810  0.66410  0.48070  1.0000
  C   C3403     1.0  0.77754  0.69900  0.77472  1.0000
  C   C3404     1.0  0.94457  0.64905  0.70056  1.0000
  H   H2728     1.0  0.75117  0.64511  0.59888  1.0000
  H   H2729     1.0  0.77003  0.66784  0.65754  1.0000
  S   S463      1.0  0.72889  0.66747  0.69000  1.0000
  H   H2730     1.0  0.79060  0.68173  0.57344  1.0000
  S   S464      1.0  0.88005  0.50916  0.62329  1.0000
  C   C3405     1.0  0.66679  0.65281  0.74414  1.0000
  C   C3406     1.0  0.80295  0.60945  0.87632  1.0000
  C   C3407     1.0  0.79142  0.71675  0.91771  1.0000
  Fe  Fe233     1.0  0.86136  0.65898  0.80681  1.0000
  S   S465      1.0  0.89366  0.66017  0.80330  1.0000
  S   S466      1.0  0.84913  0.63656  0.81961  1.0000
  Fe  Fe234     1.0  0.88146  0.67755  0.82993  1.0000
  C   C3408     1.0  0.75862  0.66268  0.91986  1.0000
  Fe  Fe235     1.0  0.88838  0.68110  0.76957  1.0000
  S   S467      1.0  0.91493  0.68543  0.73561  1.0000
  S   S468      1.0  0.84948  0.67476  0.83596  1.0000
  S   S469      1.0  0.85689  0.67817  0.77034  1.0000
  Fe  Fe236     1.0  0.86258  0.69232  0.57644  1.0000
  S   S470      1.0  0.88159  0.71091  0.55786  1.0000
  S   S471      1.0  0.82939  0.69568  0.57709  1.0000
  Fe  Fe237     1.0  0.89871  0.66671  0.58878  1.0000
  S   S472      1.0  0.92072  0.68311  0.57105  1.0000
  S   S473      1.0  0.90917  0.64155  0.60854  1.0000
  Fe  Fe238     1.0  0.89721  0.69999  0.59280  1.0000
  S   S474      1.0  0.90687  0.71453  0.61486  1.0000
  Fe  Fe239     1.0  0.90303  0.69211  0.53809  1.0000
  H   H2731     1.0  0.98781  0.69958  0.82020  1.0000
  S   S475      1.0  0.87638  0.68289  0.61289  1.0000
  S   S476      1.0  0.88288  0.67426  0.55425  1.0000
  Fe  Fe240     1.0  0.83382  0.56244  0.71941  1.0000
  S   S477      1.0  0.85899  0.57403  0.69275  1.0000
  S   S478      1.0  0.83868  0.53577  0.72813  1.0000
  Fe  Fe241     1.0  0.80732  0.59354  0.73033  1.0000
  S   S479      1.0  0.83024  0.60771  0.70466  1.0000
  S   S480      1.0  0.77938  0.60665  0.75340  1.0000
  Fe  Fe242     1.0  0.83423  0.59212  0.67609  1.0000
  S   S481      1.0  0.83901  0.60310  0.63234  1.0000
  Fe  Fe243     1.0  0.85307  0.58863  0.72338  1.0000
  S   S482      1.0  0.87940  0.59557  0.73178  1.0000
  S   S483      1.0  0.80915  0.57934  0.70001  1.0000
  S   S484      1.0  0.82991  0.57552  0.75201  1.0000
  Fe  Fe244     1.0  0.74366  0.72104  0.68320  1.0000
  C   C3409     1.0  0.87055  0.64830  0.91972  1.0000
  Fe  Fe245     1.0  0.72702  0.69065  0.70098  1.0000
  C   C3410     1.0  0.95665  0.48823  0.53817  1.0000
  S   S485      1.0  0.75302  0.69765  0.71012  1.0000
  H   H2732     1.0  0.89251  0.55382  0.65488  1.0000
  C   C3411     1.0  0.80567  0.65594  0.78249  1.0000
  C   C3412     1.0  0.76749  0.62404  0.73393  1.0000
  C   C3413     1.0  0.76243  0.62370  0.71009  1.0000
  C   C3414     1.0  0.75082  0.63716  0.69643  1.0000
  C   C3415     1.0  0.74469  0.65113  0.70618  1.0000
  C   C3416     1.0  0.75041  0.65165  0.72943  1.0000
  C   C3417     1.0  0.76155  0.63808  0.74343  1.0000
  H   H2733     1.0  0.76687  0.61289  0.70272  1.0000
  H   H2734     1.0  0.74643  0.63670  0.67844  1.0000
  H   H2735     1.0  0.97146  0.52429  0.63395  1.0000
  H   H2736     1.0  0.76557  0.63847  0.76166  1.0000
  H   H2737     1.0  0.74598  0.72617  0.80822  1.0000
  H   H2738     1.0  0.87365  0.49369  0.67997  1.0000
  H   H2739     1.0  0.93472  0.66702  0.78614  1.0000
  C   C3418     1.0  0.78126  0.49409  0.79399  1.0000
  C   C3419     1.0  0.96088  0.70008  0.89796  1.0000
  S   S486      1.0  0.70378  0.69911  0.73468  1.0000
  H   H2740     1.0  0.97950  0.71726  0.89433  1.0000
  C   C3420     1.0  0.98136  0.67016  0.74744  1.0000
  S   S487      1.0  0.89924  0.67435  0.86198  1.0000
  H   H2741     1.0  0.97443  0.64069  0.63163  1.0000
  C   C3421     1.0  0.88956  0.63105  0.61483  1.0000
  C   C3422     1.0  0.87876  0.63234  0.59499  1.0000
  C   C3423     1.0  0.86355  0.62343  0.60010  1.0000
  C   C3424     1.0  0.85886  0.61351  0.62520  1.0000
  C   C3425     1.0  0.86973  0.61226  0.64490  1.0000
  C   C3426     1.0  0.88507  0.62094  0.63969  1.0000
  H   H2742     1.0  0.88233  0.63998  0.57559  1.0000
  H   H2743     1.0  0.85522  0.62438  0.58481  1.0000
  H   H2744     1.0  0.86638  0.60465  0.66428  1.0000
  H   H2745     1.0  0.89310  0.62009  0.65522  1.0000
  C   C3427     1.0  0.81293  0.70639  0.60003  1.0000
  C   C3428     1.0  0.79741  0.69960  0.61835  1.0000
  H   H2746     1.0  0.99099  0.50154  0.50753  1.0000
  C   C3429     1.0  0.69155  0.62320  0.73977  1.0000
  C   C3430     1.0  0.81401  0.72205  0.59868  1.0000
  H   H2747     1.0  0.96553  0.70303  0.62678  1.0000
  C   C3431     1.0  0.81770  0.50461  0.68512  1.0000
  C   C3432     1.0  0.88748  0.68168  0.89105  1.0000
  C   C3433     1.0  0.88941  0.68421  0.93509  1.0000
  C   C3434     1.0  0.95649  0.68208  0.94155  1.0000
  C   C3435     1.0  0.85924  0.69673  0.91716  1.0000
  C   C3436     1.0  0.86795  0.69081  0.89381  1.0000
  C   C3437     1.0  0.74265  0.66119  0.80012  1.0000
  C   C3438     1.0  0.83462  0.68490  0.66290  1.0000
  H   H2748     1.0  0.85981  0.69353  0.87772  1.0000
  C   C3439     1.0  0.91081  0.69417  0.70298  1.0000
  C   C3440     1.0  0.89758  0.69443  0.66429  1.0000
  C   C3441     1.0  0.90791  0.70653  0.64889  1.0000
  C   C3442     1.0  0.91948  0.71251  0.66077  1.0000
  C   C3443     1.0  0.92119  0.70618  0.68755  1.0000
  C   C3444     1.0  0.98599  0.67687  0.81606  1.0000
  H   H2749     1.0  0.93069  0.71054  0.69627  1.0000
  C   C3445     1.0  0.85833  0.62485  0.79573  1.0000
  C   C3446     1.0  0.84995  0.61161  0.79838  1.0000
  C   C3447     1.0  0.85624  0.60272  0.77853  1.0000
  C   C3448     1.0  0.87150  0.60666  0.75657  1.0000
  C   C3449     1.0  0.88044  0.61955  0.75437  1.0000
  C   C3450     1.0  0.87363  0.62882  0.77376  1.0000
  H   H2750     1.0  0.83810  0.60854  0.81528  1.0000
  H   H2751     1.0  0.84917  0.59289  0.78015  1.0000
  H   H2752     1.0  0.89222  0.62263  0.73732  1.0000
  H   H2753     1.0  0.88014  0.63904  0.77166  1.0000
  H   H2754     1.0  0.81017  0.69348  0.77093  1.0000
  H   H2755     1.0  0.77725  0.69054  0.76348  1.0000
  C   C3451     1.0  0.86768  0.51610  0.65270  1.0000
  C   C3452     1.0  0.86704  0.50608  0.67806  1.0000
  C   C3453     1.0  0.85763  0.51210  0.70111  1.0000
  C   C3454     1.0  0.84948  0.52827  0.69900  1.0000
  C   C3455     1.0  0.85011  0.53831  0.67369  1.0000
  C   C3456     1.0  0.85900  0.53221  0.65063  1.0000
  C   C3457     1.0  0.82105  0.65359  0.76035  1.0000
  H   H2756     1.0  0.85665  0.50421  0.72057  1.0000
  H   H2757     1.0  0.84366  0.55078  0.67182  1.0000
  H   H2758     1.0  0.85944  0.54005  0.63114  1.0000
  C   C3458     1.0  0.97513  0.66458  0.82444  1.0000
  H   H2759     1.0  0.98757  0.70685  0.93859  1.0000
  C   C3459     1.0  0.76885  0.66992  0.60442  1.0000
  H   H2760     1.0  0.95142  0.50256  0.60324  1.0000
  H   H2761     1.0  0.93621  0.65196  0.71949  1.0000
  C   C3460     1.0  0.96523  0.64239  0.69741  1.0000
  H   H2762     1.0  0.70121  0.61184  0.73791  1.0000
  C   C3461     1.0  0.70000  0.63570  0.74068  1.0000
  H   H2763     1.0  0.77954  0.62384  0.93871  1.0000
  C   C3462     1.0  0.92422  0.48951  0.76927  1.0000
  C   C3463     1.0  0.80072  0.51972  0.78393  1.0000
  C   C3464     1.0  0.82550  0.63932  0.75190  1.0000
  H   H2764     1.0  0.89925  0.54805  0.70026  1.0000
  Fe  Fe246     1.0  0.84704  0.69417  0.79950  1.0000
  H   H2765     1.0  0.97388  0.52365  0.77245  1.0000
  H   H2766     1.0  0.77425  0.53019  0.80913  1.0000
  H   H2767     1.0  0.80818  0.52974  0.77957  1.0000
  H   H2768     1.0  0.82117  0.71209  0.85746  1.0000
  C   C3465     1.0  0.78288  0.70840  0.63522  1.0000
  H   H2769     1.0  0.88623  0.63607  0.88811  1.0000
  H   H2770     1.0  0.88795  0.50218  0.73136  1.0000
  S   S488      1.0  0.91791  0.69819  0.49448  1.0000
  H   H2771     1.0  0.73318  0.71115  0.59482  1.0000
  H   H2772     1.0  0.95421  0.68075  0.66195  1.0000
  H   H2773     1.0  0.76783  0.70753  0.56712  1.0000
  C   C3466     1.0  0.95488  0.71914  0.56660  1.0000
  H   H2774     1.0  0.99269  0.60989  0.71888  1.0000
  C   C3467     1.0  0.80732  0.68914  0.91912  1.0000
  H   H2775     1.0  0.92751  0.72184  0.64908  1.0000
  H   H2776     1.0  0.99030  0.51922  0.69041  1.0000
  H   H2777     1.0  0.80583  0.63582  0.94555  1.0000
  H   H2778     1.0  0.74594  0.66244  0.73688  1.0000
  P   P114      1.0  0.95455  0.70740  0.86508  1.0000
  H   H2779     1.0  0.98794  0.58472  0.64559  1.0000
  P   P115      1.0  0.77507  0.64646  0.82551  1.0000
  C   C3468     1.0  0.72830  0.63331  0.80775  1.0000
  C   C3469     1.0  0.91305  0.49951  0.75042  1.0000
  C   C3470     1.0  0.96647  0.72398  0.84589  1.0000
  C   C3471     1.0  0.97615  0.63896  0.67271  1.0000
  C   C3472     1.0  0.95085  0.67897  0.85547  1.0000
  H   H2780     1.0  0.68855  0.69568  0.65984  1.0000
  H   H2781     1.0  0.93782  0.65207  0.63769  1.0000
  C   C3473     1.0  0.77380  0.72912  0.72339  1.0000
  S   S489      1.0  0.72181  0.73202  0.71535  1.0000
  C   C3474     1.0  0.88534  0.72381  0.87621  1.0000
  C   C3475     1.0  0.67437  0.69655  0.67413  1.0000
  C   C3476     1.0  0.74815  0.62149  0.62033  1.0000
  C   C3477     1.0  0.75608  0.60792  0.63768  1.0000
  C   C3478     1.0  0.77313  0.60765  0.64738  1.0000
  C   C3479     1.0  0.78212  0.62099  0.64006  1.0000
  C   C3480     1.0  0.77400  0.63479  0.62309  1.0000
  C   C3481     1.0  0.75720  0.63482  0.61281  1.0000
  P   P116      1.0  0.78646  0.65160  0.61235  1.0000
  C   C3482     1.0  0.79674  0.65276  0.63985  1.0000
  C   C3483     1.0  0.81178  0.65264  0.68444  1.0000
  C   C3484     1.0  0.82379  0.64454  0.66494  1.0000
  C   C3485     1.0  0.81623  0.64449  0.64284  1.0000
  C   C3486     1.0  0.80639  0.64880  0.58366  1.0000
  C   C3487     1.0  0.80598  0.63858  0.56766  1.0000
  C   C3488     1.0  0.82129  0.63678  0.54516  1.0000
  C   C3489     1.0  0.83699  0.64526  0.53837  1.0000
  C   C3490     1.0  0.83747  0.65541  0.55424  1.0000
  C   C3491     1.0  0.82239  0.65703  0.57694  1.0000
  H   H2782     1.0  0.73508  0.62163  0.61253  1.0000
  H   H2783     1.0  0.74917  0.59755  0.64341  1.0000
  H   H2784     1.0  0.77955  0.59709  0.66050  1.0000
  H   H2785     1.0  0.79547  0.62043  0.64759  1.0000
  C   C3492     1.0  0.71820  0.64765  0.79463  1.0000
  H   H2786     1.0  0.81734  0.65245  0.70187  1.0000
  H   H2787     1.0  0.83884  0.63803  0.66707  1.0000
  H   H2788     1.0  0.82543  0.63775  0.62838  1.0000
  H   H2789     1.0  0.74401  0.66245  0.63544  1.0000
  H   H2790     1.0  0.79396  0.63193  0.57252  1.0000
  H   H2791     1.0  0.82102  0.62877  0.53304  1.0000
  C   C3493     1.0  0.68773  0.65047  0.74264  1.0000
  H   H2792     1.0  0.84956  0.66202  0.54911  1.0000
  H   H2793     1.0  0.82317  0.66475  0.58927  1.0000
  C   C3494     1.0  0.88340  0.57361  0.60432  1.0000
  C   C3495     1.0  0.88722  0.56192  0.58958  1.0000
  C   C3496     1.0  0.90710  0.55583  0.57840  1.0000
  C   C3497     1.0  0.92318  0.56127  0.58230  1.0000
  C   C3498     1.0  0.91948  0.57263  0.59789  1.0000
  C   C3499     1.0  0.89944  0.57910  0.60823  1.0000
  P   P117      1.0  0.94027  0.57997  0.60207  1.0000
  C   C3500     1.0  0.93370  0.58759  0.63218  1.0000
  C   C3501     1.0  0.96138  0.56394  0.60760  1.0000
  C   C3502     1.0  0.95799  0.54853  0.61969  1.0000
  C   C3503     1.0  0.97417  0.53619  0.62498  1.0000
  H   H2794     1.0  0.67657  0.69256  0.82539  1.0000
  C   C3504     1.0  0.96928  0.68896  0.94974  1.0000
  C   C3505     1.0  0.98109  0.56695  0.60217  1.0000
  C   C3506     1.0  0.92400  0.57882  0.65599  1.0000
  C   C3507     1.0  0.91915  0.58433  0.67966  1.0000
  C   C3508     1.0  0.92417  0.59855  0.67983  1.0000
  C   C3509     1.0  0.93426  0.60718  0.65635  1.0000
  C   C3510     1.0  0.93916  0.60169  0.63262  1.0000
  C   C3511     1.0  0.94551  0.59508  0.57236  1.0000
  C   C3512     1.0  0.96122  0.59184  0.55083  1.0000
  C   C3513     1.0  0.77340  0.66955  0.92385  1.0000
  C   C3514     1.0  0.97051  0.71308  0.73562  1.0000
  C   C3515     1.0  0.93592  0.62168  0.54661  1.0000
  C   C3516     1.0  0.93259  0.60993  0.56975  1.0000
  H   H2795     1.0  0.86795  0.57848  0.61265  1.0000
  H   H2796     1.0  0.87473  0.55768  0.58668  1.0000
  H   H2797     1.0  0.90998  0.54690  0.56671  1.0000
  H   H2798     1.0  0.93849  0.55661  0.57318  1.0000
  H   H2799     1.0  0.89611  0.58840  0.61926  1.0000
  H   H2800     1.0  0.94285  0.54599  0.62531  1.0000
  H   H2801     1.0  0.77149  0.68232  0.91916  1.0000
  C   C3517     1.0  0.85223  0.67753  0.69973  1.0000
  H   H2802     1.0  0.67707  0.66399  0.83051  1.0000
  H   H2803     1.0  0.96037  0.71135  0.72445  1.0000
  H   H2804     1.0  0.91999  0.56782  0.65619  1.0000
  H   H2805     1.0  0.91101  0.57779  0.69779  1.0000
  H   H2806     1.0  0.91968  0.60309  0.69801  1.0000
  H   H2807     1.0  0.93753  0.61846  0.65628  1.0000
  H   H2808     1.0  0.94680  0.60867  0.61466  1.0000
  H   H2809     1.0  0.97074  0.58021  0.55176  1.0000
  H   H2810     1.0  0.85616  0.72712  0.76583  1.0000
  S   S490      1.0  0.71989  0.71312  0.67095  1.0000
  C   C3518     1.0  0.93775  0.50441  0.56993  1.0000
  H   H2811     1.0  0.91986  0.61242  0.58565  1.0000
  Fe  Fe247     1.0  0.72946  0.70799  0.74165  1.0000
  H   H2812     1.0  0.86916  0.73524  0.59154  1.0000
  H   H2813     1.0  0.82969  0.68169  0.64743  1.0000
  S   S491      1.0  0.87824  0.69865  0.79617  1.0000
  H   H2814     1.0  0.82691  0.68442  0.88236  1.0000
  C   C3519     1.0  0.96448  0.60359  0.52755  1.0000
  C   C3520     1.0  0.79262  0.66664  0.84118  1.0000
  C   C3521     1.0  0.76335  0.62525  0.87301  1.0000
  C   C3522     1.0  0.81014  0.50668  0.77242  1.0000
  C   C3523     1.0  0.95031  0.66332  0.77675  1.0000
  C   C3524     1.0  0.79258  0.66121  0.68135  1.0000
  C   C3525     1.0  0.95239  0.68754  0.91577  1.0000
  H   H2815     1.0  0.88851  0.71792  0.83816  1.0000
  C   C3526     1.0  0.86009  0.72861  0.74428  1.0000
  C   C3527     1.0  0.96121  0.67468  0.76009  1.0000
  C   C3528     1.0  0.75628  0.67396  0.84494  1.0000
  C   C3529     1.0  0.77434  0.69059  0.85617  1.0000
  C   C3530     1.0  0.79908  0.62976  0.78760  1.0000
  H   H2816     1.0  0.89148  0.67874  0.70305  1.0000
  H   H2817     1.0  0.92606  0.72281  0.55551  1.0000
  C   C3531     1.0  0.74291  0.69958  0.59699  1.0000
  H   H2818     1.0  0.68440  0.67510  0.70071  1.0000
  C   C3532     1.0  0.77459  0.66372  0.83771  1.0000
  H   H2819     1.0  0.80650  0.68288  0.85110  1.0000
  C   C3533     1.0  0.97335  0.70715  0.90669  1.0000
  H   H2820     1.0  0.81265  0.51680  0.67557  1.0000
  H   H2821     1.0  0.81202  0.62584  0.83998  1.0000
  P   P118      1.0  0.91833  0.51898  0.73371  1.0000
  C   C3534     1.0  0.90141  0.53341  0.75145  1.0000
  C   C3535     1.0  0.94436  0.51953  0.73276  1.0000
  C   C3536     1.0  0.94992  0.52111  0.75562  1.0000
  H   H2822     1.0  0.88417  0.64765  0.92674  1.0000
  C   C3537     1.0  0.73625  0.68679  0.61604  1.0000
  C   C3538     1.0  0.97900  0.51984  0.70862  1.0000
  C   C3539     1.0  0.95915  0.51870  0.70931  1.0000
  C   C3540     1.0  0.90784  0.54691  0.75284  1.0000
  C   C3541     1.0  0.89464  0.55810  0.76638  1.0000
  C   C3542     1.0  0.87478  0.55619  0.77788  1.0000
  C   C3543     1.0  0.86803  0.54312  0.77574  1.0000
  C   C3544     1.0  0.88126  0.53178  0.76256  1.0000
  C   C3545     1.0  0.91378  0.52357  0.70010  1.0000
  C   C3546     1.0  0.91943  0.51181  0.68502  1.0000
  C   C3547     1.0  0.91582  0.51534  0.65903  1.0000
  C   C3548     1.0  0.90667  0.53059  0.64793  1.0000
  C   C3549     1.0  0.90064  0.54225  0.66299  1.0000
  C   C3550     1.0  0.90427  0.53883  0.68893  1.0000
  C   C3551     1.0  0.95932  0.64732  0.78092  1.0000
  C   C3552     1.0  0.72535  0.66159  0.79083  1.0000
  H   H2823     1.0  0.79666  0.68749  0.61948  1.0000
  C   C3553     1.0  0.82929  0.49389  0.66957  1.0000
  H   H2824     1.0  0.74937  0.64094  0.92201  1.0000
  H   H2825     1.0  0.93879  0.52168  0.77396  1.0000
  H   H2826     1.0  0.78961  0.59466  0.91244  1.0000
  H   H2827     1.0  0.95554  0.51722  0.69143  1.0000
  H   H2828     1.0  0.92285  0.54905  0.74302  1.0000
  H   H2829     1.0  0.89955  0.56859  0.76719  1.0000
  H   H2830     1.0  0.86445  0.56513  0.78770  1.0000
  H   H2831     1.0  0.87544  0.52207  0.76043  1.0000
  C   C3554     1.0  0.95296  0.49867  0.58494  1.0000
  H   H2832     1.0  0.91949  0.50617  0.64765  1.0000
  H   H2833     1.0  0.90331  0.53310  0.62814  1.0000
  C   C3555     1.0  0.78505  0.66127  0.65918  1.0000
  C   C3556     1.0  0.89808  0.67829  0.91185  1.0000
  C   C3557     1.0  0.89895  0.68835  0.69136  1.0000
  H   H2834     1.0  0.88665  0.72746  0.91441  1.0000
  Fe  Fe248     1.0  0.69830  0.72237  0.70534  1.0000
  H   H2835     1.0  0.80237  0.66711  0.78846  1.0000
  H   H2836     1.0  0.78338  0.66763  0.69634  1.0000
  H   H2837     1.0  0.85237  0.54200  0.78361  1.0000
  H   H2838     1.0  0.77090  0.70305  0.64920  1.0000
  H   H2839     1.0  0.91872  0.65751  0.68156  1.0000
  C   C3558     1.0  0.77530  0.68277  0.58495  1.0000
  H   H2840     1.0  0.91300  0.67095  0.91009  1.0000
  C   C3559     1.0  0.79617  0.70057  0.77910  1.0000
  H   H2841     1.0  0.95433  0.62763  0.50746  1.0000
  H   H2842     1.0  0.92424  0.51253  0.57684  1.0000
  C   C3560     1.0  0.84612  0.67341  0.67965  1.0000
  P   P119      1.0  0.81049  0.66865  0.93663  1.0000
  H   H2843     1.0  0.88851  0.68977  0.65546  1.0000
  H   H2844     1.0  0.72333  0.62240  0.80954  1.0000
  H   H2845     1.0  0.85338  0.69639  0.71713  1.0000
  H   H2846     1.0  0.94205  0.68230  0.91014  1.0000
  C   C3561     1.0  0.93471  0.65236  0.67913  1.0000
  C   C3562     1.0  0.96991  0.48757  0.57680  1.0000
  C   C3563     1.0  0.94553  0.64929  0.65437  1.0000
  H   H2847     1.0  0.72141  0.68841  0.62878  1.0000
  H   H2848     1.0  0.85048  0.66134  0.67689  1.0000
  C   C3564     1.0  0.81372  0.70902  0.87825  1.0000
  C   C3565     1.0  0.97173  0.71943  0.51238  1.0000
  H   H2849     1.0  0.80691  0.65874  0.83630  1.0000
  C   C3566     1.0  0.74911  0.67201  0.61968  1.0000
  C   C3567     1.0  0.84781  0.69332  0.70219  1.0000
  H   H2850     1.0  0.74558  0.67014  0.91229  1.0000
  C   C3568     1.0  0.98496  0.69071  0.69366  1.0000
  C   C3569     1.0  0.78677  0.60455  0.89596  1.0000
  H   H2851     1.0  0.82154  0.70949  0.65201  1.0000
  S   S492      1.0  0.81924  0.71362  0.80101  1.0000
  C   C3570     1.0  0.79448  0.70098  0.93175  1.0000
  C   C3571     1.0  0.79659  0.71143  0.79388  1.0000
  C   C3572     1.0  0.75932  0.70819  0.78536  1.0000
  C   C3573     1.0  0.97413  0.68753  0.49047  1.0000
  H   H2852     1.0  0.92754  0.50327  0.53533  1.0000
  C   C3574     1.0  0.96620  0.64276  0.65108  1.0000
  H   H2853     1.0  0.98392  0.57886  0.59394  1.0000
  C   C3575     1.0  0.81993  0.67751  0.97818  1.0000
  S   S493      1.0  0.73542  0.70558  0.78289  1.0000
  C   C3576     1.0  0.79054  0.65997  0.93324  1.0000
  C   C3577     1.0  0.89681  0.49460  0.74566  1.0000
  H   H2854     1.0  0.83777  0.63727  0.73520  1.0000
  C   C3578     1.0  0.83007  0.70066  0.66545  1.0000
  C   C3579     1.0  0.95731  0.66579  0.84373  1.0000
  C   C3580     1.0  0.79924  0.73098  0.61524  1.0000
  H   H2855     1.0  0.82262  0.65252  0.89156  1.0000
  H   H2856     1.0  0.94834  0.65660  0.84956  1.0000
  C   C3581     1.0  0.95068  0.72140  0.52151  1.0000
  H   H2857     1.0  0.82963  0.66279  0.74994  1.0000
  C   C3582     1.0  0.97781  0.70139  0.93223  1.0000
  C   C3583     1.0  0.98428  0.52167  0.73133  1.0000
  C   C3584     1.0  0.77843  0.72087  0.80371  1.0000
  C   C3585     1.0  0.97105  0.69958  0.64532  1.0000
  C   C3586     1.0  0.77191  0.50714  0.80561  1.0000
  C   C3587     1.0  0.94231  0.72139  0.54848  1.0000
  C   C3588     1.0  0.96207  0.69113  0.84792  1.0000
  H   H2858     1.0  0.80354  0.50828  0.72422  1.0000
  C   C3589     1.0  0.75992  0.71908  0.79988  1.0000
  H   H2859     1.0  0.98047  0.65424  0.81573  1.0000
  C   C3590     1.0  0.83575  0.65115  0.90008  1.0000
  H   H2860     1.0  0.70526  0.64785  0.78665  1.0000
  C   C3591     1.0  0.80100  0.72076  0.89093  1.0000
  H   H2861     1.0  0.93694  0.67973  0.87018  1.0000
  C   C3592     1.0  0.92740  0.71359  0.86969  1.0000
  C   C3593     1.0  0.81418  0.62757  0.76516  1.0000
  H   H2862     1.0  0.90209  0.66929  0.50390  1.0000
  H   H2863     1.0  0.95118  0.73459  0.74484  1.0000
  H   H2864     1.0  0.95531  0.49787  0.65389  1.0000
  H   H2865     1.0  0.96606  0.67299  0.70450  1.0000
  C   C3594     1.0  0.97935  0.69017  0.82747  1.0000
  H   H2866     1.0  0.88913  0.73433  0.74076  1.0000
  C   C3595     1.0  0.96478  0.68692  0.66510  1.0000
  C   C3596     1.0  0.80040  0.49385  0.77707  1.0000
  H   H2867     1.0  0.71796  0.67266  0.77988  1.0000
  C   C3597     1.0  0.78159  0.51997  0.80048  1.0000
  H   H2868     1.0  0.81837  0.60349  0.87755  1.0000
  C   C3598     1.0  0.99383  0.53915  0.61885  1.0000
  H   H2869     1.0  0.81735  0.61660  0.75840  1.0000
  H   H2870     1.0  0.95886  0.69298  0.49830  1.0000
  H   H2871     1.0  0.77447  0.70133  0.86204  1.0000
  C   C3599     1.0  0.67076  0.62542  0.74106  1.0000
  C   C3600     1.0  0.97939  0.64269  0.76853  1.0000
  C   C3601     1.0  0.79933  0.62208  0.85488  1.0000
  H   H2872     1.0  0.94930  0.67280  0.95542  1.0000
  C   C3602     1.0  0.67118  0.68861  0.81112  1.0000
  C   C3603     1.0  0.81297  0.49973  0.71296  1.0000
  H   H2873     1.0  0.92647  0.49989  0.69339  1.0000
  C   C3604     1.0  0.77950  0.62981  0.85271  1.0000
  C   C3605     1.0  0.98863  0.70219  0.73854  1.0000
  H   H2874     1.0  0.79061  0.62042  0.79767  1.0000
  C   C3606     1.0  0.76697  0.61250  0.89437  1.0000
  C   C3607     1.0  0.95189  0.61854  0.52550  1.0000
  C   C3608     1.0  0.89529  0.72390  0.89610  1.0000
  C   C3609     1.0  0.76238  0.69753  0.58134  1.0000
  H   H2875     1.0  0.89779  0.68156  0.95083  1.0000
  H   H2876     1.0  0.79514  0.71345  0.70064  1.0000
  C   C3610     1.0  0.91627  0.71893  0.89280  1.0000
  C   C3611     1.0  0.89632  0.71854  0.85314  1.0000
  H   H2877     1.0  0.92367  0.71913  0.90847  1.0000
  H   H2878     1.0  0.85532  0.63826  0.87107  1.0000
  H   H2879     1.0  0.84885  0.64390  0.52096  1.0000
  C   C3612     1.0  0.83715  0.70505  0.68459  1.0000
  H   H2880     1.0  0.74868  0.67192  0.79566  1.0000
  H   H2881     1.0  0.93672  0.49298  0.77354  1.0000
  P   P120      1.0  0.99475  0.68486  0.72420  1.0000
  C   C3613     1.0  0.81014  0.66748  0.97143  1.0000
  C   C3614     1.0  0.85203  0.65634  0.93165  1.0000
  C   C3615     1.0  0.84665  0.72616  0.73072  1.0000
  H   H2882     1.0  0.98566  0.71467  0.57198  1.0000
  C   C3616     1.0  0.78369  0.72416  0.63354  1.0000
  H   H2883     1.0  0.82741  0.68607  0.96277  1.0000
  C   C3617     1.0  0.75232  0.64699  0.81446  1.0000
  H   H2884     1.0  0.74221  0.69574  0.85791  1.0000
  H   H2885     1.0  0.97660  0.60108  0.51095  1.0000
  C   C3618     1.0  0.76080  0.64622  0.92526  1.0000
  H   H2886     1.0  0.78163  0.72587  0.92758  1.0000
  C   C3619     1.0  0.87173  0.64176  0.89796  1.0000
  H   H2887     1.0  0.86091  0.66855  0.71292  1.0000
  H   H2888     1.0  0.98643  0.63030  0.77196  1.0000
  C   C3620     1.0  0.96978  0.52222  0.75486  1.0000
  C   C3621     1.0  0.86979  0.73258  0.68862  1.0000
  H   H2889     1.0  0.94070  0.72252  0.50804  1.0000
  H   H2890     1.0  0.92594  0.63318  0.54511  1.0000
  C   C3622     1.0  0.85431  0.64308  0.88830  1.0000
  H   H2891     1.0  0.83325  0.49772  0.64800  1.0000
  H   H2892     1.0  0.69469  0.66011  0.74276  1.0000
  H   H2893     1.0  0.97201  0.68511  0.96996  1.0000
  H   H2894     1.0  0.95071  0.63857  0.79377  1.0000
  S   S494      1.0  0.85898  0.70141  0.96661  1.0000
  C   C3623     1.0  0.97857  0.67129  0.49123  1.0000
  H   H2895     1.0  0.87405  0.73396  0.66714  1.0000
  C   C3624     1.0  0.91728  0.71346  0.84984  1.0000
  C   C3625     1.0  0.67196  0.68488  0.69760  1.0000
  C   C3626     1.0  0.99081  0.70364  0.67392  1.0000
  H   H2896     1.0  0.95355  0.68691  0.75665  1.0000
  C   C3627     1.0  0.74535  0.63295  0.81759  1.0000
  C   C3628     1.0  0.83441  0.65772  0.92209  1.0000
  H   H2897     1.0  0.92551  0.70923  0.83197  1.0000
  C   C3629     1.0  0.79260  0.64343  0.93863  1.0000
  C   C3630     1.0  0.81690  0.69330  0.89234  1.0000
  C   C3631     1.0  0.97152  0.68258  0.68930  1.0000
  C   C3632     1.0  0.99034  0.65403  0.75168  1.0000
  H   H2898     1.0  0.75347  0.62164  0.82666  1.0000
  H   H2899     1.0  0.85176  0.66172  0.94787  1.0000
  H   H2900     1.0  0.71613  0.63396  0.73962  1.0000
  H   H2901     1.0  0.82491  0.50674  0.75943  1.0000
  H   H2902     1.0  0.75705  0.50738  0.81839  1.0000
  C   C3633     1.0  0.87003  0.69354  0.93780  1.0000
  H   H2903     1.0  0.84426  0.70400  0.91905  1.0000
  C   C3634     1.0  0.98400  0.70799  0.64978  1.0000
  C   C3635     1.0  0.79488  0.64389  0.79667  1.0000
  C   C3636     1.0  0.79247  0.68015  0.85002  1.0000
  H   H2904     1.0  0.74800  0.63149  0.87219  1.0000
  H   H2905     1.0  0.74204  0.67180  0.84335  1.0000
  C   C3637     1.0  0.98744  0.72270  0.84242  1.0000
  C   C3638     1.0  0.77776  0.63660  0.93469  1.0000
  C   C3639     1.0  0.98428  0.71656  0.53094  1.0000
  H   H2906     1.0  0.83262  0.72256  0.74216  1.0000
  H   H2907     1.0  0.75443  0.60879  0.90970  1.0000
  C   C3640     1.0  0.75623  0.68744  0.85380  1.0000
  H   H2908     1.0  0.78679  0.69804  0.95240  1.0000
  H   H2909     1.0  0.97259  0.64029  0.71412  1.0000
  H   H2910     1.0  0.86903  0.72731  0.87910  1.0000
  C   C3641     1.0  0.93956  0.49912  0.54664  1.0000
  H   H2911     1.0  0.96668  0.66443  0.49948  1.0000
  H   H2912     1.0  0.90895  0.73230  0.48755  1.0000
  H   H2913     1.0  0.98890  0.71786  0.63455  1.0000
  C   C3642     1.0  0.85311  0.73108  0.63232  1.0000
  C   C3643     1.0  0.97587  0.71665  0.55787  1.0000
  H   H2914     1.0  0.79862  0.73295  0.87995  1.0000
  H   H2915     1.0  0.97303  0.64834  0.97918  1.0000
  C   C3644     1.0  0.85125  0.72833  0.70273  1.0000
  H   H2916     1.0  0.97848  0.61064  0.65810  1.0000
  H   H2917     1.0  0.77861  0.72937  0.81494  1.0000
  C   C3645     1.0  0.99427  0.60508  0.65457  1.0000
  C   C3646     1.0  0.79274  0.72401  0.70833  1.0000
  H   H2918     1.0  0.76201  0.72237  0.72759  1.0000
  H   H2919     1.0  0.98769  0.63838  0.90483  1.0000
  H   H2920     1.0  0.94826  0.71910  0.58749  1.0000
  H   H2921     1.0  0.82584  0.72741  0.58434  1.0000
  C   C3647     1.0  0.99690  0.73519  0.82691  1.0000
  H   H2922     1.0  0.99650  0.71198  0.85182  1.0000
  S   S495      1.0  0.99594  0.49626  0.65698  1.0000
  P   P121      1.0  0.83323  0.72569  0.68559  1.0000
  H   H2923     1.0  0.86289  0.71975  0.63765  1.0000
  C   C3648     1.0  0.97785  0.72874  0.76190  1.0000
  H   H2924     1.0  0.98576  0.71247  0.98034  1.0000
  C   C3649     1.0  0.99728  0.55454  0.60758  1.0000
  C   C3650     1.0  0.99588  0.71803  0.76489  1.0000
  C   C3651     1.0  0.80826  0.73252  0.70352  1.0000
  C   C3652     1.0  0.67155  0.67252  0.81390  1.0000
  C   C3653     1.0  0.96515  0.72627  0.74727  1.0000
  C   C3654     1.0  0.99538  0.64614  0.90976  1.0000
  C   C3655     1.0  0.87850  0.73282  0.73014  1.0000
  H   H2925     1.0  0.99586  0.63259  0.94971  1.0000
  S   S496      1.0  0.76535  0.73546  0.65406  1.0000
  H   H2926     1.0  0.99706  0.66189  0.87090  1.0000
  C   C3656     1.0  0.88330  0.73488  0.70231  1.0000
  C   C3657     1.0  0.83723  0.73697  0.65158  1.0000
  C   C3658     1.0  0.90627  0.67364  0.48269  1.0000
  P   P122      1.0  0.80420  0.76240  0.24978  1.0000
  Fe  Fe249     1.0  0.89945  0.75811  0.16536  1.0000
  S   S497      1.0  0.90426  0.77878  0.13151  1.0000
  H   H2927     1.0  0.76050  0.75660  0.33997  1.0000
  Fe  Fe250     1.0  0.88963  0.77839  0.20651  1.0000
  S   S498      1.0  0.89372  0.80085  0.17580  1.0000
  S   S499      1.0  0.87770  0.77904  0.24985  1.0000
  Fe  Fe251     1.0  0.87623  0.79219  0.15375  1.0000
  S   S500      1.0  0.84932  0.80468  0.13427  1.0000
  Fe  Fe252     1.0  0.92144  0.78537  0.15673  1.0000
  S   S501      1.0  0.95278  0.79024  0.13546  1.0000
  S   S502      1.0  0.87048  0.77083  0.18567  1.0000
  S   S503      1.0  0.91848  0.76357  0.18929  1.0000
  Fe  Fe253     1.0  0.74060  0.85167  0.17879  1.0000
  S   S504      1.0  0.71781  0.85215  0.21705  1.0000
  S   S505      1.0  0.77276  0.85200  0.18067  1.0000
  C   C3659     1.0  0.74058  0.84151  0.27924  1.0000
  C   C3660     1.0  0.77463  0.75203  0.32782  1.0000
  S   S506      1.0  0.72136  0.87163  0.15478  1.0000
  S   S507      1.0  0.72957  0.83273  0.16882  1.0000
  H   H2928     1.0  0.75557  0.83706  0.08843  1.0000
  C   C3661     1.0  0.82810  0.81622  0.15121  1.0000
  C   C3662     1.0  0.80853  0.81409  0.15211  1.0000
  C   C3663     1.0  0.79137  0.82476  0.16164  1.0000
  C   C3664     1.0  0.79368  0.83757  0.17050  1.0000
  C   C3665     1.0  0.81319  0.83928  0.17071  1.0000
  C   C3666     1.0  0.83034  0.82870  0.16099  1.0000
  H   H2929     1.0  0.80663  0.80441  0.14480  1.0000
  H   H2930     1.0  0.77641  0.82331  0.16145  1.0000
  H   H2931     1.0  0.81509  0.84913  0.17761  1.0000
  H   H2932     1.0  0.84532  0.83056  0.16013  1.0000
  C   C3667     1.0  0.96933  0.79639  0.14976  1.0000
  C   C3668     1.0  0.96242  0.80285  0.17255  1.0000
  C   C3669     1.0  0.97586  0.80844  0.18232  1.0000
  C   C3670     1.0  0.88451  0.74645  0.26309  1.0000
  C   C3671     1.0  0.93924  0.74367  0.42054  1.0000
  H   H2933     1.0  0.71965  0.89876  0.10723  1.0000
  H   H2934     1.0  0.94664  0.80390  0.18225  1.0000
  H   H2935     1.0  0.97031  0.81379  0.19957  1.0000
  H   H2936     1.0  0.76951  0.82316  0.22969  1.0000
  P   P123      1.0  0.70420  0.83765  0.31474  1.0000
  H   H2937     1.0  0.94933  0.81630  0.00346  1.0000
  H   H2938     1.0  0.74337  0.82604  0.33224  1.0000
  C   C3672     1.0  0.98888  0.76126  0.00480  1.0000
  C   C3673     1.0  0.68355  0.79584  0.34196  1.0000
  C   C3674     1.0  0.95503  0.74320  0.45686  1.0000
  H   H2939     1.0  0.92911  0.78544  0.23865  1.0000
  H   H2940     1.0  0.67799  0.84725  0.27583  1.0000
  H   H2941     1.0  0.86645  0.75018  0.14101  1.0000
  H   H2942     1.0  0.96558  0.77793  0.21974  1.0000
  C   C3675     1.0  0.81128  0.76835  0.39256  1.0000
  C   C3676     1.0  0.69902  0.84528  0.36401  1.0000
  H   H2943     1.0  0.80032  0.76601  0.43507  1.0000
  C   C3677     1.0  0.72527  0.83950  0.38979  1.0000
  C   C3678     1.0  0.69047  0.85671  0.30062  1.0000
  C   C3679     1.0  0.70558  0.90594  0.10229  1.0000
  C   C3680     1.0  0.89608  0.76364  0.02780  1.0000
  H   H2944     1.0  0.70469  0.92190  0.17374  1.0000
  P   P124      1.0  0.71683  0.93072  0.11462  1.0000
  C   C3681     1.0  0.72853  0.91630  0.14031  1.0000
  C   C3682     1.0  0.73604  0.93606  0.08563  1.0000
  H   H2945     1.0  0.85892  0.75357  0.36301  1.0000
  H   H2946     1.0  0.68892  0.97132  0.05225  1.0000
  H   H2947     1.0  0.74535  0.94304  0.01748  1.0000
  H   H2948     1.0  0.67287  0.82830  0.40500  1.0000
  C   C3683     1.0  0.73285  0.93775  0.05972  1.0000
  C   C3684     1.0  0.71914  0.91471  0.16744  1.0000
  C   C3685     1.0  0.72806  0.90323  0.18701  1.0000
  C   C3686     1.0  0.74633  0.89319  0.17974  1.0000
  C   C3687     1.0  0.75572  0.89457  0.15283  1.0000
  C   C3688     1.0  0.74681  0.90597  0.13317  1.0000
  C   C3689     1.0  0.69325  0.89924  0.09289  1.0000
  H   H2949     1.0  0.68847  0.79153  0.20066  1.0000
  S   S508      1.0  0.68293  0.85291  0.18435  1.0000
  C   C3690     1.0  0.98985  0.79524  0.13729  1.0000
  H   H2950     1.0  0.69778  0.88700  0.09104  1.0000
  H   H2951     1.0  0.82628  0.76821  0.35163  1.0000
  H   H2952     1.0  0.93262  0.74863  0.09770  1.0000
  C   C3691     1.0  0.68207  0.86029  0.09559  1.0000
  C   C3692     1.0  0.69610  0.80708  0.33336  1.0000
  H   H2953     1.0  0.75930  0.80007  0.19185  1.0000
  C   C3693     1.0  0.74781  0.94189  0.03742  1.0000
  Fe  Fe254     1.0  0.69764  0.87056  0.19239  1.0000
  H   H2954     1.0  0.97726  0.79920  0.08254  1.0000
  C   C3694     1.0  0.68006  0.88513  0.29729  1.0000
  C   C3695     1.0  0.69166  0.87063  0.30749  1.0000
  H   H2955     1.0  0.71888  0.93582  0.05664  1.0000
  C   C3696     1.0  0.84296  0.74639  0.23169  1.0000
  H   H2956     1.0  0.72035  0.90175  0.20778  1.0000
  H   H2957     1.0  0.75290  0.88398  0.19484  1.0000
  H   H2958     1.0  0.76955  0.88637  0.14726  1.0000
  H   H2959     1.0  0.75399  0.90638  0.11241  1.0000
  H   H2960     1.0  0.91733  0.77885  0.02074  1.0000
  S   S509      1.0  0.69976  0.81168  0.23372  1.0000
  C   C3697     1.0  0.67438  0.79962  0.19794  1.0000
  C   C3698     1.0  0.82390  0.78054  0.00019  1.0000
  C   C3699     1.0  0.69981  0.92173  0.10507  1.0000
  C   C3700     1.0  0.74188  0.81681  0.25505  1.0000
  H   H2961     1.0  0.91148  0.76611  0.27392  1.0000
  C   C3701     1.0  0.82785  0.76482  0.37237  1.0000
  H   H2962     1.0  0.74187  0.80769  0.24497  1.0000
  Fe  Fe255     1.0  0.70543  0.83457  0.20549  1.0000
  C   C3702     1.0  0.94375  0.78394  0.06878  1.0000
  H   H2963     1.0  0.67859  0.93719  0.15201  1.0000
  H   H2964     1.0  0.85991  0.76996  0.43596  1.0000
  H   H2965     1.0  0.73999  0.85141  0.28787  1.0000
  H   H2966     1.0  0.70105  0.80623  0.39646  1.0000
  H   H2967     1.0  0.69609  0.85496  0.05702  1.0000
  C   C3703     1.0  0.67845  0.85770  0.28230  1.0000
  C   C3704     1.0  0.71035  0.96261  0.11772  1.0000
  H   H2968     1.0  0.79067  0.79064  0.20905  1.0000
  C   C3705     1.0  0.89297  0.74424  0.38655  1.0000
  H   H2969     1.0  0.70159  0.87038  0.32048  1.0000
  C   C3706     1.0  0.85858  0.76024  0.29350  1.0000
  H   H2970     1.0  0.68098  0.89588  0.30246  1.0000
  P   P125      1.0  0.95283  0.75903  0.04197  1.0000
  C   C3707     1.0  0.72513  0.83259  0.28834  1.0000
  C   C3708     1.0  0.96199  0.74617  0.07100  1.0000
  H   H2971     1.0  0.75385  0.81614  0.06655  1.0000
  H   H2972     1.0  0.82768  0.78150  0.20465  1.0000
  H   H2973     1.0  0.80567  0.78044  0.28894  1.0000
  H   H2974     1.0  0.86899  0.77731  0.47277  1.0000
  H   H2975     1.0  0.93945  0.82387  0.04760  1.0000
  H   H2976     1.0  0.88269  0.76965  0.37679  1.0000
  H   H2977     1.0  0.93512  0.76350  0.43872  1.0000
  C   C3709     1.0  0.81542  0.77921  0.24707  1.0000
  H   H2978     1.0  0.95186  0.74416  0.99843  1.0000
  C   C3710     1.0  0.70311  0.94831  0.12687  1.0000
  H   H2979     1.0  0.71230  0.80315  0.33153  1.0000
  C   C3711     1.0  0.82221  0.74824  0.23241  1.0000
  C   C3712     1.0  0.75666  0.83796  0.25840  1.0000
  C   C3713     1.0  0.82235  0.79859  0.26691  1.0000
  C   C3714     1.0  0.83307  0.80530  0.24211  1.0000
  H   H2980     1.0  0.82131  0.80326  0.28425  1.0000
  H   H2981     1.0  0.84042  0.81506  0.24023  1.0000
  C   C3715     1.0  0.79763  0.75224  0.13124  1.0000
  C   C3716     1.0  0.80464  0.75208  0.15391  1.0000
  C   C3717     1.0  0.81747  0.76230  0.15248  1.0000
  C   C3718     1.0  0.82333  0.77264  0.12833  1.0000
  C   C3719     1.0  0.81669  0.77265  0.10533  1.0000
  C   C3720     1.0  0.80343  0.76261  0.10710  1.0000
  P   P126      1.0  0.82300  0.78674  0.07463  1.0000
  C   C3721     1.0  0.80246  0.80355  0.07636  1.0000
  C   C3722     1.0  0.84743  0.79148  0.07128  1.0000
  C   C3723     1.0  0.85122  0.80674  0.05882  1.0000
  C   C3724     1.0  0.87029  0.81020  0.05627  1.0000
  C   C3725     1.0  0.88579  0.79837  0.06550  1.0000
  C   C3726     1.0  0.88232  0.78302  0.07694  1.0000
  C   C3727     1.0  0.86328  0.77957  0.07966  1.0000
  C   C3728     1.0  0.78451  0.80383  0.06841  1.0000
  C   C3729     1.0  0.78646  0.82753  0.09297  1.0000
  C   C3730     1.0  0.80322  0.81541  0.08891  1.0000
  C   C3731     1.0  0.82575  0.77797  0.04649  1.0000
  C   C3732     1.0  0.83393  0.76178  0.04819  1.0000
  H   H2982     1.0  0.69004  0.78334  0.34643  1.0000
  C   C3733     1.0  0.82107  0.78738  0.02219  1.0000
  C   C3734     1.0  0.68066  0.97578  0.14445  1.0000
  C   C3735     1.0  0.77948  0.75903  0.30064  1.0000
  H   H2983     1.0  0.82297  0.76226  0.16997  1.0000
  H   H2984     1.0  0.83309  0.78057  0.12763  1.0000
  H   H2985     1.0  0.79759  0.76278  0.08984  1.0000
  H   H2986     1.0  0.83947  0.81601  0.05131  1.0000
  H   H2987     1.0  0.87296  0.82211  0.04749  1.0000
  H   H2988     1.0  0.90043  0.80109  0.06391  1.0000
  H   H2989     1.0  0.89436  0.77373  0.08379  1.0000
  H   H2990     1.0  0.86097  0.76760  0.08835  1.0000
  H   H2991     1.0  0.78324  0.79446  0.05975  1.0000
  H   H2992     1.0  0.78707  0.83648  0.10311  1.0000
  H   H2993     1.0  0.81657  0.81508  0.09630  1.0000
  H   H2994     1.0  0.83835  0.75436  0.06640  1.0000
  C   C3736     1.0  0.73265  0.83176  0.34717  1.0000
  H   H2995     1.0  0.89601  0.74671  0.24501  1.0000
  H   H2996     1.0  0.97948  0.75759  0.14089  1.0000
  C   C3737     1.0  0.97046  0.75595  0.01142  1.0000
  C   C3738     1.0  0.76872  0.82783  0.08477  1.0000
  C   C3739     1.0  0.76777  0.81601  0.07243  1.0000
  C   C3740     1.0  0.72570  0.82041  0.27569  1.0000
  C   C3741     1.0  0.92870  0.75510  0.04134  1.0000
  Fe  Fe256     1.0  0.70806  0.85263  0.14840  1.0000
  C   C3742     1.0  0.87857  0.74649  0.44154  1.0000
  H   H2997     1.0  0.84378  0.80396  0.20080  1.0000
  S   S510      1.0  0.70450  0.85137  0.10790  1.0000
  C   C3743     1.0  0.68174  0.93081  0.09761  1.0000
  H   H2998     1.0  0.75695  0.93767  0.10868  1.0000
  H   H2999     1.0  0.84832  0.75341  0.24143  1.0000
  H   H3000     1.0  0.95780  0.74934  0.47040  1.0000
  S   S511      1.0  0.68151  0.89146  0.21083  1.0000
  C   C3744     1.0  0.94215  0.81154  0.04648  1.0000
  C   C3745     1.0  0.87030  0.76151  0.44740  1.0000
  H   H3001     1.0  0.79684  0.77456  0.38748  1.0000
  C   C3746     1.0  0.70532  0.84593  0.38679  1.0000
  C   C3747     1.0  0.73890  0.83236  0.37005  1.0000
  C   C3748     1.0  0.76125  0.78894  0.20632  1.0000
  C   C3749     1.0  0.83161  0.76434  0.00225  1.0000
  H   H3002     1.0  0.69472  0.85142  0.40214  1.0000
  H   H3003     1.0  0.94221  0.77520  0.08735  1.0000
  C   C3750     1.0  0.84871  0.75224  0.40572  1.0000
  C   C3751     1.0  0.96837  0.75399  0.24340  1.0000
  C   C3752     1.0  0.77911  0.78349  0.21631  1.0000
  H   H3004     1.0  0.68346  0.85013  0.36202  1.0000
  C   C3753     1.0  0.68593  0.80391  0.40511  1.0000
  C   C3754     1.0  0.95120  0.79132  0.02039  1.0000
  C   C3755     1.0  0.99638  0.80728  0.16980  1.0000
  C   C3756     1.0  0.94853  0.74325  0.09568  1.0000
  C   C3757     1.0  0.74816  0.76595  0.23408  1.0000
  C   C3758     1.0  0.93763  0.74741  0.27380  1.0000
  C   C3759     1.0  0.92727  0.76271  0.26522  1.0000
  C   C3760     1.0  0.93730  0.77364  0.24552  1.0000
  C   C3761     1.0  0.95785  0.76932  0.23472  1.0000
  C   C3762     1.0  0.98582  0.75475  0.17996  1.0000
  C   C3763     1.0  0.94003  0.79990  0.06996  1.0000
  C   C3764     1.0  0.94776  0.80726  0.02168  1.0000
  H   H3005     1.0  0.71338  0.81404  0.28087  1.0000
  C   C3765     1.0  0.91443  0.76699  0.02911  1.0000
  C   C3766     1.0  0.94931  0.77950  0.04395  1.0000
  C   C3767     1.0  0.71273  0.83846  0.34383  1.0000
  C   C3768     1.0  0.75737  0.82555  0.24640  1.0000
  C   C3769     1.0  0.85474  0.74571  0.30984  1.0000
  H   H3006     1.0  0.97036  0.75397  0.18991  1.0000
  C   C3770     1.0  0.76608  0.76038  0.24399  1.0000
  H   H3007     1.0  0.93559  0.80323  0.08921  1.0000
  C   C3771     1.0  0.66906  0.79932  0.26971  1.0000
  H   H3008     1.0  0.91119  0.77428  0.33873  1.0000
  H   H3009     1.0  0.88494  0.77288  0.01880  1.0000
  C   C3772     1.0  0.83497  0.79904  0.21984  1.0000
  H   H3010     1.0  0.95512  0.78826  0.00097  1.0000
  C   C3773     1.0  0.81357  0.78557  0.26945  1.0000
  C   C3774     1.0  0.68781  0.82326  0.32636  1.0000
  H   H3011     1.0  0.81542  0.79999  0.02017  1.0000
  H   H3012     1.0  0.73016  0.84004  0.40743  1.0000
  C   C3775     1.0  0.87336  0.76065  0.27002  1.0000
  H   H3013     1.0  0.83385  0.75901  0.98523  1.0000
  H   H3014     1.0  0.68893  0.81738  0.16860  1.0000
  H   H3015     1.0  0.84997  0.77119  0.29886  1.0000
  C   C3776     1.0  0.69916  0.97627  0.12652  1.0000
  C   C3777     1.0  0.89425  0.75970  0.37183  1.0000
  H   H3016     1.0  0.75435  0.82734  0.37242  1.0000
  C   C3778     1.0  0.82612  0.78611  0.22224  1.0000
  H   H3017     1.0  0.76828  0.84512  0.25083  1.0000
  C   C3779     1.0  0.91041  0.76239  0.35039  1.0000
  H   H3018     1.0  0.77762  0.94758  0.02349  1.0000
  H   H3019     1.0  0.93809  0.75171  0.32721  1.0000
  H   H3020     1.0  0.67909  0.78798  0.26944  1.0000
  C   C3780     1.0  0.94234  0.75128  0.43880  1.0000
  C   C3781     1.0  0.89205  0.74837  0.03824  1.0000
  C   C3782     1.0  0.67341  0.96164  0.15367  1.0000
  C   C3783     1.0  0.81325  0.76358  0.41934  1.0000
  C   C3784     1.0  0.95816  0.74311  0.26310  1.0000
  H   H3021     1.0  0.78331  0.94488  0.06914  1.0000
  H   H3022     1.0  0.92965  0.74995  0.40630  1.0000
  C   C3785     1.0  0.89810  0.74048  0.47644  1.0000
  C   C3786     1.0  0.78155  0.76928  0.23565  1.0000
  C   C3787     1.0  0.83186  0.75543  0.42593  1.0000
  C   C3788     1.0  0.84646  0.75666  0.37891  1.0000
  C   C3789     1.0  0.67467  0.81423  0.18003  1.0000
  C   C3790     1.0  0.76600  0.94444  0.04080  1.0000
  H   H3023     1.0  0.67763  0.96568  0.01519  1.0000
  H   H3024     1.0  0.99172  0.77676  0.05991  1.0000
  H   H3025     1.0  0.69482  0.77873  0.40780  1.0000
  P   P127      1.0  0.87233  0.74095  0.41448  1.0000
  C   C3791     1.0  0.74568  0.78029  0.21544  1.0000
  H   H3026     1.0  0.72452  0.96337  0.10370  1.0000
  H   H3027     1.0  0.84790  0.74395  0.11147  1.0000
  H   H3028     1.0  0.79999  0.74410  0.17254  1.0000
  H   H3029     1.0  0.99543  0.79020  0.11977  1.0000
  C   C3792     1.0  0.76921  0.94291  0.06651  1.0000
  H   H3030     1.0  0.76771  0.74926  0.25848  1.0000
  C   C3793     1.0  0.68241  0.78844  0.41146  1.0000
  C   C3794     1.0  0.92556  0.74972  0.34386  1.0000
  C   C3795     1.0  0.98241  0.73868  0.06917  1.0000
  H   H3031     1.0  0.73605  0.75926  0.24106  1.0000
  H   H3032     1.0  0.66634  0.86796  0.03668  1.0000
  C   C3796     1.0  0.75428  0.93878  0.08886  1.0000
  H   H3033     1.0  0.83305  0.75142  0.44680  1.0000
  H   H3034     1.0  0.87788  0.74569  0.03739  1.0000
  C   C3797     1.0  0.68457  0.94798  0.14494  1.0000
  H   H3035     1.0  0.67694  0.94301  0.09933  1.0000
  H   H3036     1.0  0.84314  0.74543  0.32778  1.0000
  P   P128      1.0  0.99505  0.74870  0.23059  1.0000
  C   C3798     1.0  0.68249  0.86042  0.06898  1.0000
  C   C3799     1.0  0.79775  0.75309  0.28473  1.0000
  H   H3037     1.0  0.73162  0.78483  0.20822  1.0000
  H   H3038     1.0  0.76909  0.76916  0.29207  1.0000
  C   C3800     1.0  0.83664  0.75498  0.02624  1.0000
  C   C3801     1.0  0.87557  0.76579  0.46809  1.0000
  H   H3039     1.0  0.92985  0.73886  0.28891  1.0000
  C   C3802     1.0  0.67545  0.81313  0.25385  1.0000
  H   H3040     1.0  0.99291  0.82293  0.06893  1.0000
  H   H3041     1.0  0.99276  0.76690  0.01817  1.0000
  C   C3803     1.0  0.99021  0.79993  0.06619  1.0000
  C   C3804     1.0  0.99099  0.75657  0.15216  1.0000
  C   C3805     1.0  0.92468  0.73972  0.05119  1.0000
  C   C3806     1.0  0.99910  0.81330  0.05851  1.0000
  H   H3042     1.0  0.99315  0.74022  0.05049  1.0000
  C   C3807     1.0  0.99833  0.78731  0.05333  1.0000
  C   C3808     1.0  0.96582  0.74859  0.99380  1.0000
  H   H3043     1.0  0.78761  0.74438  0.13237  1.0000
  C   C3809     1.0  0.66990  0.81644  0.40984  1.0000
  H   H3044     1.0  0.67186  0.98636  0.15116  1.0000
  C   C3810     1.0  0.67518  0.90829  0.08584  1.0000
  C   C3811     1.0  0.81120  0.74023  0.29655  1.0000
  C   C3812     1.0  0.87233  0.73982  0.13240  1.0000
  H   H3045     1.0  0.84280  0.74241  0.02788  1.0000
  C   C3813     1.0  0.66948  0.92411  0.08807  1.0000
  C   C3814     1.0  0.67318  0.97091  0.05405  1.0000
  H   H3046     1.0  0.66814  0.89799  0.16013  1.0000
  C   C3815     1.0  0.66736  0.88583  0.28010  1.0000
  H   H3047     1.0  0.66735  0.83849  0.24205  1.0000
  C   C3816     1.0  0.66669  0.82805  0.32984  1.0000
  C   C3817     1.0  0.66656  0.87211  0.27265  1.0000
  C   C3818     1.0  0.81571  0.73860  0.22030  1.0000
  H   H3048     1.0  0.79978  0.73945  0.22127  1.0000
  C   C3819     1.0  0.78804  0.73915  0.33935  1.0000
  C   C3820     1.0  0.66680  0.96777  0.03318  1.0000
  H   H3049     1.0  0.70478  0.98726  0.11937  1.0000
  C   C3821     1.0  0.96453  0.75066  0.81833  1.0000
  C   C3822     1.0  0.71050  0.79125  0.65735  1.0000
  C   C3823     1.0  0.84420  0.75442  0.59869  1.0000
  H   H3050     1.0  0.97388  0.73906  0.77061  1.0000
  C   C3824     1.0  0.69048  0.79928  0.65739  1.0000
  H   H3051     1.0  0.66990  0.76857  0.65582  1.0000
  H   H3052     1.0  0.95564  0.76152  0.80899  1.0000
  C   C3825     1.0  0.95506  0.73809  0.83364  1.0000
  H   H3053     1.0  0.84687  0.76108  0.57825  1.0000
  H   H3054     1.0  0.78266  0.76179  0.73680  1.0000
  H   H3055     1.0  0.97576  0.74075  0.95665  1.0000
  C   C3826     1.0  0.82469  0.75162  0.64401  1.0000
  H   H3056     1.0  0.68678  0.81169  0.65796  1.0000
  C   C3827     1.0  0.67559  0.79123  0.65685  1.0000
  H   H3057     1.0  0.72193  0.79745  0.65794  1.0000
  C   C3828     1.0  0.70107  0.76711  0.65609  1.0000
  C   C3829     1.0  0.97943  0.74660  0.96996  1.0000
  H   H3058     1.0  0.73876  0.98629  0.72034  1.0000
  C   C3830     1.0  0.99786  0.75171  0.96371  1.0000
  H   H3059     1.0  0.70888  0.97335  0.73291  1.0000
  C   C3831     1.0  0.82821  0.76031  0.61765  1.0000
  H   H3060     1.0  0.73121  0.76881  0.65705  1.0000
  H   H3061     1.0  0.81833  0.77149  0.61187  1.0000
  C   C3832     1.0  0.80442  0.74631  0.71359  1.0000
  C   C3833     1.0  0.78544  0.75132  0.72869  1.0000
  C   C3834     1.0  0.71577  0.77515  0.65679  1.0000
  C   C3835     1.0  0.68111  0.77511  0.65601  1.0000
  H   H3062     1.0  0.81200  0.75626  0.65821  1.0000
  H   H3063     1.0  0.70507  0.75456  0.65605  1.0000
  H   H3064     1.0  0.67786  0.98682  0.71576  1.0000
  H   H3065     1.0  0.81620  0.75306  0.71005  1.0000
  H   H3066     1.0  0.89336  0.75844  0.49890  1.0000
  S   S512      1.0  0.67007  0.73844  0.69217  1.0000
  H   H3067     1.0  0.75547  0.74633  0.74567  1.0000
  H   H3068     1.0  0.79974  0.74320  0.61375  1.0000
  H   H3069     1.0  0.93887  0.73949  0.83583  1.0000
  C   C3836     1.0  0.77014  0.74268  0.73366  1.0000
  C   C3837     1.0  0.70830  0.98500  0.71984  1.0000
  C   C3838     1.0  0.85667  0.73984  0.60607  1.0000
  H   H3070     1.0  0.99287  0.75880  0.80270  1.0000
  C   C3839     1.0  0.98546  0.74916  0.81482  1.0000
  H   H3071     1.0  0.82022  0.78782  0.98147  1.0000
  H   H3072     1.0  0.89766  0.73799  0.69132  1.0000
  C   C3840     1.0  0.88935  0.75522  0.48274  1.0000
