data_image0
_chemical_formula_structural       HCSFeC2SC5H4C3HC5H5C5H2PC2HCH2C2H3CH2CH3CHC4H2FeC4HCSH3FeSHFeSCS2FeS2HFeS3FeS2FeCSCHC6H5C6SH3C7PC9HCHCH2SH6CH3CHCH2C3PC18H9SH5CH3C2H2FeCFeCFeC2H2CSCH2CH2CS2HCHCHC3HCH4CHC2FeHCHSH2C2H6CH2C2H4CSHCHCSHC4HCHCHC3HC2HCHCH2C2HC2HCH2C2HCH2CH3PC2HC2HC4HC2SCH4CH2CHFeS2FeS2FeHFeS2FeS2H2FeCSHC2H4C6H4C4H3C3H2CHC3HC7PC9HSC7HCH8C2H5CHCH2C4H4C2PHC5HFeC2HSH2C2H2C2HPC3H2C6HC2H2CH5C3HC2SHCH2CH3CSCH5S2FeS2FeH2FeHFeS3HC3SH2CHC2H3C6H4PC5H2C6HC4H2C2HCH2C2H2C3H4CHC4HC2H2CH2C3HC2HC2HSH2PH2C7FeH4C2H3CH2C2PHC2HC4HC3HCH2CPC2H4C5HC2H2C2HC3HC4HCHC4HC2HFeCHCPHCHPC4HC3H2C5HCHC3HCHCSH4CHCHCHCHCH2C5HCHC4HCH3CH4C5H3SC2HC3HFeS2FeSCFePFeS4C6H2CHC2H2C5H3CHSH3CH2C3HCHC3H3C6H3CH2C2H3CHC3HC2H3C2H3SCH2SFeS2FeHS2FeS2FeS2FeCFeS2C7H5C7H2C8PC18H6CH8CH2C3HC2H3CHC2H4CH2C3SH3CHCHCH3CHSCH3CHCHC3H4CHCH2C3HC4PC2PHC2H3C2FePC3H4CH5C2FeSHC2SFeS2FeS2FeCFeS3H2C4HC8H4C6H5SHC2HCSC2HCH2C2H3CHC2HC3HCHCSP2CH2CHCH2C2HC5HC4H4C2HC2H4C2H4CHFeC8H2CH2C2H5C2H2CH2CHC5H5CH2C5HCHC2HCH3C3PC6HCHCHCHC2HCPH3CHC2S2C2H2CHFeSCSFeS2FeS2FeSFeHS2C3H3C3HC6H4C6H5CH3C5H4SHCHC3H3CHCHCHCHC2HC2H2CHCHCHC3HC3HC2HCHC3HC2H3CHCHCPHCH2CH3C3H2CHCH2C2H2C2PC3HC2HC3HC3SCH2CH2C3HCH2C3HC3FeC
_chemical_formula_sum              "H576 C720 S96 Fe48 P24"
_cell_length_a       31.7744
_cell_length_b       31.7348
_cell_length_c       41.1982
_cell_angle_alpha    90.475
_cell_angle_beta     89.9971
_cell_angle_gamma    90.2181

_space_group_name_H-M_alt    "P 1"
_space_group_IT_number       1

loop_
  _space_group_symop_operation_xyz
  'x, y, z'

loop_
  _atom_site_type_symbol
  _atom_site_label
  _atom_site_symmetry_multiplicity
  _atom_site_fract_x
  _atom_site_fract_y
  _atom_site_fract_z
  _atom_site_occupancy
  H   H1        1.0  0.32853  0.07362  0.22188  1.0000
  C   C1        1.0  0.44712  0.20937  0.23985  1.0000
  S   S1        1.0  0.44529  0.07176  0.30157  1.0000
  Fe  Fe1       1.0  0.45182  0.49212  0.26798  1.0000
  C   C2        1.0  0.43255  0.02105  0.24813  1.0000
  C   C3        1.0  0.32029  0.21078  0.29836  1.0000
  S   S2        1.0  0.45401  0.42053  0.26012  1.0000
  C   C4        1.0  0.39040  0.35820  0.33156  1.0000
  C   C5        1.0  0.43686  0.30803  0.30572  1.0000
  C   C6        1.0  0.45187  0.34031  0.28529  1.0000
  C   C7        1.0  0.43656  0.38177  0.28810  1.0000
  C   C8        1.0  0.40606  0.39064  0.31164  1.0000
  H   H2        1.0  0.05528  0.03736  0.13140  1.0000
  H   H3        1.0  0.44893  0.27634  0.30333  1.0000
  H   H4        1.0  0.46599  0.44236  0.17453  1.0000
  H   H5        1.0  0.43238  0.14858  0.26049  1.0000
  C   C9        1.0  0.35457  0.21802  0.27784  1.0000
  C   C10       1.0  0.41662  0.05476  0.26675  1.0000
  C   C11       1.0  0.28710  0.18494  0.28819  1.0000
  H   H6        1.0  0.33156  0.48246  0.34057  1.0000
  C   C12       1.0  0.38022  0.34224  0.21768  1.0000
  C   C13       1.0  0.35752  0.05872  0.22924  1.0000
  C   C14       1.0  0.37898  0.07371  0.25708  1.0000
  C   C15       1.0  0.35968  0.15667  0.13418  1.0000
  C   C16       1.0  0.40734  0.10882  0.16075  1.0000
  H   H7        1.0  0.36635  0.09975  0.27108  1.0000
  H   H8        1.0  0.42369  0.25663  0.15914  1.0000
  H   H9        1.0  0.47538  0.33314  0.26714  1.0000
  H   H10       1.0  0.38059  0.23705  0.28665  1.0000
  H   H11       1.0  0.36996  0.36649  0.23462  1.0000
  C   C17       1.0  0.39395  0.17788  0.18464  1.0000
  C   C18       1.0  0.39291  0.26823  0.20528  1.0000
  C   C19       1.0  0.37988  0.11769  0.13529  1.0000
  C   C20       1.0  0.36646  0.18658  0.15880  1.0000
  C   C21       1.0  0.41443  0.13870  0.18530  1.0000
  H   H12       1.0  0.32058  0.16111  0.21222  1.0000
  H   H13       1.0  0.34902  0.21582  0.15830  1.0000
  P   P1        1.0  0.39745  0.21421  0.21874  1.0000
  C   C22       1.0  0.49709  0.45621  0.17249  1.0000
  C   C23       1.0  0.35482  0.20142  0.24618  1.0000
  H   H14       1.0  0.26227  0.14648  0.24935  1.0000
  C   C24       1.0  0.40557  0.31671  0.32873  1.0000
  H   H15       1.0  0.37360  0.09385  0.11688  1.0000
  H   H16       1.0  0.42198  0.07804  0.16206  1.0000
  C   C25       1.0  0.28775  0.16695  0.25716  1.0000
  C   C26       1.0  0.32121  0.17538  0.23611  1.0000
  H   H17       1.0  0.36636  0.29243  0.25034  1.0000
  H   H18       1.0  0.31990  0.22465  0.32249  1.0000
  H   H19       1.0  0.47158  0.27060  0.22561  1.0000
  C   C27       1.0  0.49467  0.16873  0.27341  1.0000
  H   H20       1.0  0.33783  0.16317  0.11468  1.0000
  H   H21       1.0  0.03343  0.37057  0.04188  1.0000
  C   C28       1.0  0.37819  0.29985  0.22649  1.0000
  H   H22       1.0  0.39369  0.42224  0.31390  1.0000
  H   H23       1.0  0.34046  0.00781  0.28942  1.0000
  H   H24       1.0  0.39913  0.38664  0.18135  1.0000
  C   C29       1.0  0.39701  0.35362  0.18770  1.0000
  H   H25       1.0  0.42546  0.33148  0.14337  1.0000
  C   C30       1.0  0.47742  0.24180  0.23865  1.0000
  C   C31       1.0  0.45571  0.17330  0.25809  1.0000
  C   C32       1.0  0.41031  0.28008  0.17530  1.0000
  C   C33       1.0  0.41190  0.32254  0.16643  1.0000
  H   H26       1.0  0.26114  0.17858  0.30451  1.0000
  H   H27       1.0  0.43476  0.13012  0.20513  1.0000
  Fe  Fe2       1.0  0.42982  0.12031  0.34132  1.0000
  C   C34       1.0  0.37324  0.02459  0.21088  1.0000
  C   C35       1.0  0.03868  0.00979  0.14012  1.0000
  C   C36       1.0  0.00371  0.35681  0.04928  1.0000
  C   C37       1.0  0.41102  0.00596  0.22043  1.0000
  H   H28       1.0  0.46183  0.00646  0.25522  1.0000
  C   C38       1.0  0.34998  0.00989  0.34116  1.0000
  S   S3        1.0  0.34519  0.00711  0.17586  1.0000
  H   H29       1.0  0.37274  0.03546  0.34012  1.0000
  H   H30       1.0  0.01687  0.36236  0.10038  1.0000
  H   H31       1.0  0.50129  0.14042  0.28702  1.0000
  Fe  Fe3       1.0  0.47114  0.16067  0.40202  1.0000
  S   S4        1.0  0.41136  0.19345  0.41569  1.0000
  H   H32       1.0  0.34649  0.30682  0.49715  1.0000
  Fe  Fe4       1.0  0.37887  0.13258  0.40329  1.0000
  S   S5        1.0  0.33621  0.10106  0.43997  1.0000
  C   C39       1.0  0.03879  0.30751  0.51448  1.0000
  S   S6        1.0  0.15474  0.46128  0.54351  1.0000
  S   S7        1.0  0.03106  0.03213  0.55262  1.0000
  Fe  Fe5       1.0  0.09828  0.08075  0.48420  1.0000
  S   S8        1.0  0.12728  0.05222  0.52860  1.0000
  S   S9        1.0  0.13618  0.10759  0.44231  1.0000
  H   H33       1.0  0.28277  0.31117  0.61610  1.0000
  Fe  Fe6       1.0  0.07607  0.08666  0.55556  1.0000
  S   S10       1.0  0.08277  0.12185  0.60335  1.0000
  S   S11       1.0  0.05303  0.02715  0.47501  1.0000
  S   S12       1.0  0.05020  0.11915  0.51173  1.0000
  Fe  Fe7       1.0  0.19303  0.34628  0.61638  1.0000
  S   S13       1.0  0.13384  0.38314  0.61458  1.0000
  S   S14       1.0  0.20084  0.28199  0.59363  1.0000
  Fe  Fe8       1.0  0.17198  0.43532  0.59315  1.0000
  C   C40       1.0  0.07475  0.29826  0.57586  1.0000
  S   S15       1.0  0.23017  0.39618  0.59142  1.0000
  C   C41       1.0  0.45356  0.28616  0.47830  1.0000
  H   H34       1.0  0.03890  0.47027  0.42762  1.0000
  C   C42       1.0  0.11219  0.16878  0.60029  1.0000
  C   C43       1.0  0.11748  0.19531  0.62749  1.0000
  C   C44       1.0  0.14306  0.23158  0.62554  1.0000
  C   C45       1.0  0.16362  0.24100  0.59644  1.0000
  C   C46       1.0  0.15727  0.21509  0.56921  1.0000
  C   C47       1.0  0.13147  0.17927  0.57100  1.0000
  H   H35       1.0  0.10269  0.18726  0.65024  1.0000
  H   H36       1.0  0.14814  0.25125  0.64675  1.0000
  H   H37       1.0  0.17286  0.22249  0.54672  1.0000
  H   H38       1.0  0.12739  0.15917  0.54990  1.0000
  H   H39       1.0  0.33513  0.33182  0.44167  1.0000
  C   C48       1.0  0.28071  0.10387  0.44001  1.0000
  C   C49       1.0  0.25824  0.12179  0.41444  1.0000
  C   C50       1.0  0.21394  0.12317  0.41558  1.0000
  C   C51       1.0  0.19189  0.10662  0.44220  1.0000
  C   C52       1.0  0.21451  0.08880  0.46769  1.0000
  C   C53       1.0  0.25867  0.08745  0.46659  1.0000
  S   S16       1.0  0.43930  0.09857  0.39281  1.0000
  H   H40       1.0  0.19669  0.13674  0.39563  1.0000
  H   H41       1.0  0.19807  0.07575  0.48821  1.0000
  H   H42       1.0  0.27582  0.07365  0.48652  1.0000
  C   C54       1.0  0.35038  0.43748  0.67278  1.0000
  C   C55       1.0  0.14821  0.24759  0.40848  1.0000
  C   C56       1.0  0.12462  0.21116  0.41418  1.0000
  C   C57       1.0  0.09734  0.20946  0.44072  1.0000
  C   C58       1.0  0.09364  0.24403  0.46171  1.0000
  C   C59       1.0  0.11682  0.28102  0.45594  1.0000
  C   C60       1.0  0.14436  0.28242  0.42928  1.0000
  P   P2        1.0  0.11454  0.32543  0.48357  1.0000
  C   C61       1.0  0.08241  0.31296  0.51839  1.0000
  C   C62       1.0  0.16829  0.33577  0.49553  1.0000
  C   C63       1.0  0.19424  0.30207  0.50439  1.0000
  C   C64       1.0  0.23559  0.30950  0.51452  1.0000
  C   C65       1.0  0.25154  0.35052  0.51555  1.0000
  C   C66       1.0  0.22616  0.38410  0.50610  1.0000
  C   C67       1.0  0.18481  0.37681  0.49596  1.0000
  C   C68       1.0  0.10012  0.30886  0.54938  1.0000
  C   C69       1.0  0.26941  0.49076  0.54277  1.0000
  H   H43       1.0  0.15929  0.42628  0.42720  1.0000
  C   C70       1.0  0.47221  0.24856  0.48794  1.0000
  H   H44       1.0  0.49016  0.35081  0.53814  1.0000
  C   C71       1.0  0.17174  0.45735  0.42216  1.0000
  H   H45       1.0  0.35324  0.00549  0.39284  1.0000
  H   H46       1.0  0.16916  0.02790  0.40069  1.0000
  S   S17       1.0  0.21181  0.36803  0.66618  1.0000
  H   H47       1.0  0.14349  0.01273  0.45587  1.0000
  H   H48       1.0  0.07344  0.24104  0.48267  1.0000
  H   H49       1.0  0.16338  0.31022  0.42494  1.0000
  H   H50       1.0  0.18216  0.27014  0.50416  1.0000
  H   H51       1.0  0.25470  0.28356  0.52264  1.0000
  H   H52       1.0  0.43490  0.28683  0.45623  1.0000
  C   C72       1.0  0.09068  0.37100  0.46524  1.0000
  H   H53       1.0  0.16586  0.40352  0.48928  1.0000
  H   H54       1.0  0.13343  0.31380  0.55332  1.0000
  H   H55       1.0  0.16995  0.24851  0.38824  1.0000
  C   C73       1.0  0.07976  0.37130  0.43220  1.0000
  H   H56       1.0  0.43409  0.35809  0.63811  1.0000
  C   C74       1.0  0.38118  0.49721  0.37432  1.0000
  H   H57       1.0  0.46824  0.22032  0.47325  1.0000
  H   H58       1.0  0.39998  0.35175  0.57482  1.0000
  C   C75       1.0  0.30799  0.27119  0.57835  1.0000
  C   C76       1.0  0.34078  0.26484  0.55608  1.0000
  C   C77       1.0  0.37465  0.29340  0.55572  1.0000
  P   P3        1.0  0.33890  0.22178  0.52701  1.0000
  C   C78       1.0  0.38756  0.19242  0.52925  1.0000
  C   C79       1.0  0.29710  0.18528  0.53733  1.0000
  C   C80       1.0  0.30354  0.15498  0.56149  1.0000
  C   C81       1.0  0.27171  0.12610  0.56912  1.0000
  C   C82       1.0  0.23334  0.12708  0.55259  1.0000
  C   C83       1.0  0.22666  0.15713  0.52862  1.0000
  C   C84       1.0  0.25798  0.18662  0.52142  1.0000
  C   C85       1.0  0.40008  0.16632  0.50335  1.0000
  C   C86       1.0  0.43679  0.14237  0.50555  1.0000
  C   C87       1.0  0.46105  0.14370  0.53381  1.0000
  C   C88       1.0  0.44845  0.16893  0.55999  1.0000
  C   C89       1.0  0.41192  0.19325  0.55777  1.0000
  C   C90       1.0  0.33066  0.24154  0.48625  1.0000
  C   C91       1.0  0.31719  0.21398  0.46148  1.0000
  C   C92       1.0  0.31015  0.22870  0.43009  1.0000
  C   C93       1.0  0.31667  0.27113  0.42300  1.0000
  C   C94       1.0  0.32989  0.29896  0.44738  1.0000
  C   C95       1.0  0.33671  0.28437  0.47889  1.0000
  H   H59       1.0  0.28168  0.24947  0.57945  1.0000
  H   H60       1.0  0.40054  0.28848  0.53910  1.0000
  H   H61       1.0  0.33311  0.15351  0.57443  1.0000
  H   H62       1.0  0.27679  0.10282  0.58776  1.0000
  H   H63       1.0  0.20864  0.10469  0.55837  1.0000
  H   H64       1.0  0.19698  0.15764  0.51563  1.0000
  H   H65       1.0  0.25145  0.20999  0.50319  1.0000
  H   H66       1.0  0.38156  0.16392  0.48146  1.0000
  H   H67       1.0  0.44635  0.12273  0.48520  1.0000
  S   S18       1.0  0.36696  0.15020  0.35143  1.0000
  H   H68       1.0  0.12804  0.18375  0.39852  1.0000
  H   H69       1.0  0.40247  0.21202  0.57854  1.0000
  H   H70       1.0  0.31191  0.18098  0.46644  1.0000
  H   H71       1.0  0.30040  0.20695  0.41111  1.0000
  H   H72       1.0  0.31200  0.28233  0.39847  1.0000
  C   C96       1.0  0.06109  0.40701  0.41870  1.0000
  H   H73       1.0  0.22587  0.44944  0.45265  1.0000
  H   H74       1.0  0.44621  0.35225  0.48875  1.0000
  H   H75       1.0  0.05741  0.46965  0.48614  1.0000
  C   C97       1.0  0.33914  0.49266  0.36505  1.0000
  C   C98       1.0  0.30121  0.46065  0.54479  1.0000
  H   H76       1.0  0.08875  0.29483  0.59965  1.0000
  H   H77       1.0  0.27494  0.13414  0.39369  1.0000
  Fe  Fe9       1.0  0.40493  0.20934  0.36281  1.0000
  C   C99       1.0  0.20934  0.47068  0.43675  1.0000
  Fe  Fe10      1.0  0.00787  0.06243  0.50736  1.0000
  C   C100      1.0  0.32361  0.44906  0.51696  1.0000
  Fe  Fe11      1.0  0.24464  0.42133  0.64087  1.0000
  C   C101      1.0  0.08684  0.42083  0.66780  1.0000
  C   C102      1.0  0.03159  0.29181  0.57165  1.0000
  H   H78       1.0  0.12106  0.47397  0.38995  1.0000
  H   H79       1.0  0.45714  0.30362  0.59844  1.0000
  C   C103      1.0  0.45994  0.32287  0.49664  1.0000
  S   S19       1.0  0.31136  0.44786  0.64326  1.0000
  C   C104      1.0  0.47961  0.32662  0.60745  1.0000
  H   H80       1.0  0.23776  0.41611  0.50778  1.0000
  H   H81       1.0  0.46699  0.16948  0.58204  1.0000
  C   C105      1.0  0.46654  0.35714  0.62996  1.0000
  H   H82       1.0  0.28307  0.35638  0.52452  1.0000
  H   H83       1.0  0.34766  0.42507  0.51843  1.0000
  C   C106      1.0  0.37456  0.32898  0.57604  1.0000
  S   S20       1.0  0.38264  0.27674  0.35323  1.0000
  S   S21       1.0  0.18788  0.46353  0.64176  1.0000
  H   H84       1.0  0.34114  0.36301  0.61358  1.0000
  C   C107      1.0  0.30849  0.30625  0.59921  1.0000
  H   H85       1.0  0.07779  0.35009  0.66918  1.0000
  C   C108      1.0  0.08178  0.40648  0.48462  1.0000
  H   H86       1.0  0.08524  0.34409  0.41684  1.0000
  C   C109      1.0  0.02870  0.03043  0.63784  1.0000
  C   C110      1.0  0.06339  0.44215  0.47103  1.0000
  C   C111      1.0  0.34145  0.33541  0.59781  1.0000
  H   H87       1.0  0.05267  0.40713  0.39322  1.0000
  C   C112      1.0  0.05312  0.44249  0.43807  1.0000
  H   H88       1.0  0.02444  0.31100  0.49081  1.0000
  H   H89       1.0  0.30793  0.44591  0.56789  1.0000
  H   H90       1.0  0.00394  0.17659  0.60053  1.0000
  H   H91       1.0  0.08965  0.40681  0.51027  1.0000
  C   C113      1.0  0.15014  0.48421  0.40126  1.0000
  H   H92       1.0  0.06097  0.42673  0.65139  1.0000
  C   C114      1.0  0.38881  0.45948  0.67160  1.0000
  C   C115      1.0  0.48473  0.32181  0.52473  1.0000
  Fe  Fe12      1.0  0.14986  0.40874  0.66727  1.0000
  H   H93       1.0  0.33217  0.45820  0.46598  1.0000
  C   C116      1.0  0.31493  0.46834  0.48726  1.0000
  H   H94       1.0  0.48961  0.12517  0.53537  1.0000
  S   S22       1.0  0.46710  0.18050  0.34968  1.0000
  H   H95       1.0  0.10398  0.48916  0.67508  1.0000
  H   H96       1.0  0.27470  0.49948  0.37882  1.0000
  C   C117      1.0  0.49719  0.24739  0.51584  1.0000
  C   C118      1.0  0.49557  0.38610  0.64257  1.0000
  H   H97       1.0  0.39457  0.48144  0.65213  1.0000
  H   H98       1.0  0.02625  0.16031  0.65645  1.0000
  H   H99       1.0  0.36414  0.03268  0.48846  1.0000
  H   H100      1.0  0.01218  0.28310  0.59218  1.0000
  H   H101      1.0  0.07985  0.18074  0.44550  1.0000
  H   H102      1.0  0.05196  0.05282  0.64671  1.0000
  C   C119      1.0  0.18604  0.00568  0.41566  1.0000
  H   H103      1.0  0.36612  0.36528  0.34917  1.0000
  H   H104      1.0  0.48566  0.40936  0.66037  1.0000
  C   C120      1.0  0.09656  0.37612  0.67829  1.0000
  C   C121      1.0  0.01355  0.29666  0.54098  1.0000
  H   H105      1.0  0.40606  0.49066  0.35702  1.0000
  H   H106      1.0  0.14065  0.49361  0.48025  1.0000
  H   H107      1.0  0.31047  0.01281  0.44814  1.0000
  H   H108      1.0  0.25096  0.49868  0.56412  1.0000
  C   C122      1.0  0.28440  0.50024  0.48533  1.0000
  S   S23       1.0  0.44771  0.42216  0.75440  1.0000
  H   H109      1.0  0.16107  0.30880  0.75569  1.0000
  C   C123      1.0  0.24836  0.45521  0.72489  1.0000
  H   H110      1.0  0.19598  0.24018  0.74884  1.0000
  C   C124      1.0  0.05497  0.02768  0.93135  1.0000
  S   S24       1.0  0.07700  0.41871  0.73076  1.0000
  H   H111      1.0  0.23644  0.44612  0.70132  1.0000
  C   C125      1.0  0.05595  0.38631  0.76204  1.0000
  C   C126      1.0  0.06870  0.34462  0.76683  1.0000
  C   C127      1.0  0.05352  0.32161  0.79347  1.0000
  C   C128      1.0  0.23212  0.43712  0.75325  1.0000
  H   H112      1.0  0.28077  0.37132  0.74398  1.0000
  C   C129      1.0  0.11293  0.44097  0.82191  1.0000
  H   H113      1.0  0.09046  0.32996  0.75042  1.0000
  C   C130      1.0  0.21432  0.26897  0.74748  1.0000
  H   H114      1.0  0.36740  0.38308  0.74247  1.0000
  C   C131      1.0  0.41176  0.42685  0.72177  1.0000
  C   C132      1.0  0.41950  0.45403  0.69587  1.0000
  C   C133      1.0  0.01060  0.38062  0.81003  1.0000
  H   H115      1.0  0.09182  0.41055  0.86558  1.0000
  C   C134      1.0  0.02469  0.33955  0.81534  1.0000
  C   C135      1.0  0.37360  0.40426  0.72259  1.0000
  H   H116      1.0  0.18198  0.34188  0.80929  1.0000
  C   C136      1.0  0.25773  0.26702  0.74232  1.0000
  H   H117      1.0  0.13672  0.34781  0.85740  1.0000
  C   C137      1.0  0.26160  0.34320  0.74447  1.0000
  H   H118      1.0  0.27305  0.23677  0.73948  1.0000
  H   H119      1.0  0.13765  0.33619  0.70909  1.0000
  C   C138      1.0  0.16182  0.40108  0.78830  1.0000
  C   C139      1.0  0.11231  0.40853  0.84459  1.0000
  H   H120      1.0  0.06440  0.28978  0.79727  1.0000
  C   C140      1.0  0.28143  0.48433  0.72660  1.0000
  C   C141      1.0  0.21778  0.34563  0.74864  1.0000
  H   H121      1.0  0.44861  0.47170  0.69502  1.0000
  C   C142      1.0  0.34338  0.40904  0.69787  1.0000
  H   H122      1.0  0.31431  0.39141  0.69830  1.0000
  H   H123      1.0  0.13675  0.46225  0.77617  1.0000
  C   C143      1.0  0.16257  0.36949  0.81205  1.0000
  C   C144      1.0  0.13775  0.43740  0.79399  1.0000
  H   H124      1.0  0.07524  0.03970  0.95051  1.0000
  C   C145      1.0  0.25023  0.44802  0.78332  1.0000
  H   H125      1.0  0.02689  0.20791  0.84214  1.0000
  H   H126      1.0  0.23914  0.43363  0.80549  1.0000
  C   C146      1.0  0.19449  0.30803  0.75085  1.0000
  H   H127      1.0  0.09290  0.46819  0.82527  1.0000
  H   H128      1.0  0.31516  0.30276  0.73741  1.0000
  H   H129      1.0  0.01602  0.43596  0.78014  1.0000
  P   P4        1.0  0.19198  0.39651  0.75112  1.0000
  C   C147      1.0  0.02632  0.40387  0.78359  1.0000
  C   C148      1.0  0.49943  0.48713  0.85498  1.0000
  H   H130      1.0  0.02528  0.08706  0.92363  1.0000
  C   C149      1.0  0.15657  0.40479  0.71690  1.0000
  C   C150      1.0  0.13745  0.37302  0.83983  1.0000
  H   H131      1.0  0.02595  0.04965  0.82619  1.0000
  C   C151      1.0  0.28140  0.30414  0.74109  1.0000
  C   C152      1.0  0.02631  0.05438  0.91607  1.0000
  C   C153      1.0  0.13147  0.36818  0.70237  1.0000
  C   C154      1.0  0.14679  0.44922  0.70602  1.0000
  H   H132      1.0  0.16254  0.47589  0.71716  1.0000
  C   C155      1.0  0.11204  0.45722  0.68156  1.0000
  C   C156      1.0  0.00990  0.19062  0.86062  1.0000
  S   S25       1.0  0.00840  0.30981  0.84934  1.0000
  C   C157      1.0  0.28384  0.47661  0.78489  1.0000
  H   H133      1.0  0.01028  0.24274  0.89449  1.0000
  H   H134      1.0  0.29828  0.48414  0.80804  1.0000
  H   H135      1.0  0.44928  0.45404  0.83023  1.0000
  H   H136      1.0  0.29406  0.49770  0.70448  1.0000
  C   C158      1.0  0.29957  0.49459  0.75651  1.0000
  H   H137      1.0  0.02482  0.03686  0.76700  1.0000
  H   H138      1.0  0.00528  0.13424  0.83211  1.0000
  C   C159      1.0  0.46429  0.48432  0.83468  1.0000
  H   H139      1.0  0.09785  0.87446  0.04874  1.0000
  Fe  Fe13      1.0  0.30951  0.88472  0.10128  1.0000
  S   S26       1.0  0.34343  0.94581  0.09117  1.0000
  S   S27       1.0  0.24369  0.86118  0.08709  1.0000
  Fe  Fe14      1.0  0.37967  0.85369  0.14611  1.0000
  S   S28       1.0  0.41812  0.91254  0.13959  1.0000
  S   S29       1.0  0.40539  0.80913  0.18394  1.0000
  Fe  Fe15      1.0  0.35768  0.94802  0.14497  1.0000
  H   H140      1.0  0.49039  0.78743  0.20467  1.0000
  Fe  Fe16      1.0  0.40187  0.90543  0.08654  1.0000
  S   S30       1.0  0.31999  0.88967  0.15514  1.0000
  S   S31       1.0  0.36719  0.84392  0.09298  1.0000
  Fe  Fe17      1.0  0.43701  0.57756  0.23412  1.0000
  S   S32       1.0  0.46565  0.61422  0.27542  1.0000
  S   S33       1.0  0.41271  0.60868  0.18812  1.0000
  H   H141      1.0  0.37700  0.77929  0.28571  1.0000
  H   H142      1.0  0.02097  0.83987  0.33546  1.0000
  Fe  Fe18      1.0  0.42774  0.57076  0.30684  1.0000
  C   C160      1.0  0.31419  0.75499  0.27586  1.0000
  S   S34       1.0  0.39629  0.53617  0.26547  1.0000
  H   H143      1.0  0.18988  0.92026  0.23794  1.0000
  C   C161      1.0  0.30793  0.67873  0.27842  1.0000
  C   C162      1.0  0.29855  0.77780  0.20069  1.0000
  H   H144      1.0  0.13946  0.82931  0.25996  1.0000
  H   H145      1.0  0.25215  0.57092  0.30666  1.0000
  H   H146      1.0  0.32938  0.56176  0.30883  1.0000
  H   H147      1.0  0.30676  0.75937  0.15068  1.0000
  C   C163      1.0  0.40681  0.75344  0.18363  1.0000
  C   C164      1.0  0.41852  0.73321  0.21233  1.0000
  C   C165      1.0  0.41958  0.68910  0.21398  1.0000
  C   C166      1.0  0.40946  0.66447  0.18682  1.0000
  C   C167      1.0  0.39757  0.68467  0.15796  1.0000
  C   C168      1.0  0.39615  0.72909  0.15635  1.0000
  H   H148      1.0  0.42672  0.75176  0.23355  1.0000
  H   H149      1.0  0.42848  0.67424  0.23630  1.0000
  H   H150      1.0  0.38974  0.66591  0.13676  1.0000
  H   H151      1.0  0.38716  0.74439  0.13405  1.0000
  C   C169      1.0  0.18461  0.84889  0.33239  1.0000
  C   C170      1.0  0.20185  0.88915  0.06839  1.0000
  C   C171      1.0  0.16222  0.86952  0.06566  1.0000
  C   C172      1.0  0.12795  0.89019  0.05100  1.0000
  H   H152      1.0  0.15822  0.83796  0.07471  1.0000
  H   H153      1.0  0.42391  0.98025  0.20624  1.0000
  H   H154      1.0  0.36473  0.64525  0.29021  1.0000
  C   C173      1.0  0.27337  0.79924  0.22333  1.0000
  C   C174      1.0  0.34745  0.86502  0.23977  1.0000
  C   C175      1.0  0.24928  0.82123  0.29116  1.0000
  H   H155      1.0  0.03806  0.92258  0.22897  1.0000
  H   H156      1.0  0.33776  0.85457  0.21595  1.0000
  C   C176      1.0  0.28634  0.77475  0.16817  1.0000
  H   H157      1.0  0.23731  0.94524  0.05780  1.0000
  C   C177      1.0  0.49374  0.81387  0.09387  1.0000
  C   C178      1.0  0.17309  0.94992  0.04044  1.0000
  C   C179      1.0  0.01031  0.80342  0.22676  1.0000
  H   H158      1.0  0.24214  0.76147  0.31597  1.0000
  C   C180      1.0  0.37493  0.89223  0.30087  1.0000
  C   C181      1.0  0.06838  0.76528  0.29685  1.0000
  C   C182      1.0  0.09423  0.80030  0.29169  1.0000
  C   C183      1.0  0.11979  0.80196  0.26410  1.0000
  C   C184      1.0  0.12020  0.76817  0.24206  1.0000
  C   C185      1.0  0.09590  0.73195  0.24805  1.0000
  C   C186      1.0  0.06902  0.73132  0.27507  1.0000
  P   P5        1.0  0.09596  0.68805  0.21995  1.0000
  C   C187      1.0  0.04977  0.69446  0.19495  1.0000
  C   C188      1.0  0.14461  0.68553  0.19733  1.0000
  C   C189      1.0  0.18304  0.69380  0.21308  1.0000
  C   C190      1.0  0.22098  0.69081  0.19600  1.0000
  C   C191      1.0  0.22093  0.67908  0.16326  1.0000
  C   C192      1.0  0.18296  0.66953  0.14768  1.0000
  C   C193      1.0  0.14496  0.67215  0.16474  1.0000
  C   C194      1.0  0.05134  0.71811  0.16631  1.0000
  C   C195      1.0  0.27037  0.58815  0.32459  1.0000
  H   H159      1.0  0.38538  0.90315  0.32453  1.0000
  S   S35       1.0  0.48961  0.53026  0.23225  1.0000
  C   C196      1.0  0.01504  0.72314  0.14746  1.0000
  C   C197      1.0  0.09340  0.63859  0.24122  1.0000
  C   C198      1.0  0.10950  0.63496  0.27282  1.0000
  C   C199      1.0  0.10711  0.59646  0.28900  1.0000
  C   C200      1.0  0.08951  0.56120  0.27361  1.0000
  C   C201      1.0  0.07442  0.56431  0.24187  1.0000
  C   C202      1.0  0.07658  0.60276  0.22564  1.0000
  H   H160      1.0  0.24874  0.88487  0.27272  1.0000
  C   C203      1.0  0.03135  0.82162  0.20053  1.0000
  H   H161      1.0  0.13967  0.77027  0.22057  1.0000
  H   H162      1.0  0.04892  0.70432  0.27965  1.0000
  H   H163      1.0  0.18371  0.70196  0.23867  1.0000
  H   H164      1.0  0.25063  0.69706  0.20814  1.0000
  H   H165      1.0  0.25045  0.67668  0.15015  1.0000
  H   H166      1.0  0.18310  0.65942  0.12249  1.0000
  H   H167      1.0  0.11610  0.66300  0.15259  1.0000
  H   H168      1.0  0.08036  0.73294  0.15870  1.0000
  C   C204      1.0  0.19200  0.91945  0.15552  1.0000
  C   C205      1.0  0.13681  0.90530  0.20722  1.0000
  H   H169      1.0  0.41369  0.93654  0.27488  1.0000
  H   H170      1.0  0.00732  0.87880  0.11231  1.0000
  H   H171      1.0  0.12391  0.66163  0.28514  1.0000
  H   H172      1.0  0.11886  0.59399  0.31359  1.0000
  H   H173      1.0  0.03843  0.80224  0.17964  1.0000
  C   C206      1.0  0.17878  0.91651  0.21326  1.0000
  H   H174      1.0  0.06465  0.60454  0.20107  1.0000
  C   C207      1.0  0.24843  0.79247  0.15808  1.0000
  H   H175      1.0  0.21457  0.83273  0.22991  1.0000
  H   H176      1.0  0.28838  0.94999  0.29154  1.0000
  C   C208      1.0  0.06094  0.97303  0.14716  1.0000
  C   C209      1.0  0.31422  0.58301  0.32568  1.0000
  C   C210      1.0  0.13337  0.93034  0.03782  1.0000
  C   C211      1.0  0.37475  0.71230  0.29005  1.0000
  H   H177      1.0  0.23947  0.79092  0.13269  1.0000
  H   H178      1.0  0.19165  0.90898  0.30921  1.0000
  H   H179      1.0  0.09446  0.82602  0.30914  1.0000
  H   H180      1.0  0.12131  0.81910  0.14540  1.0000
  C   C212      1.0  0.09266  0.79260  0.10271  1.0000
  C   C213      1.0  0.23480  0.86296  0.28970  1.0000
  P   P6        1.0  0.06749  0.88878  0.16666  1.0000
  H   H181      1.0  0.49475  0.64214  0.15251  1.0000
  C   C214      1.0  0.33096  0.84614  0.26763  1.0000
  C   C215      1.0  0.34482  0.86005  0.29826  1.0000
  C   C216      1.0  0.39090  0.91113  0.27290  1.0000
  C   C217      1.0  0.30226  0.96179  0.31383  1.0000
  C   C218      1.0  0.29146  0.94399  0.34366  1.0000
  H   H182      1.0  0.38963  0.91173  0.22054  1.0000
  Fe  Fe19      1.0  0.02153  0.95085  0.02089  1.0000
  C   C219      1.0  0.35043  0.67582  0.28668  1.0000
  C   C220      1.0  0.28986  0.71812  0.27300  1.0000
  H   H183      1.0  0.19358  0.82721  0.17246  1.0000
  S   S36       1.0  0.45803  0.91866  0.05328  1.0000
  H   H184      1.0  0.11668  0.76876  0.09958  1.0000
  H   H185      1.0  0.33226  0.84595  0.32001  1.0000
  C   C221      1.0  0.20699  0.92977  0.05605  1.0000
  C   C222      1.0  0.05946  0.79504  0.08057  1.0000
  H   H186      1.0  0.13930  0.90652  0.12447  1.0000
  H   H187      1.0  0.05750  0.77301  0.06039  1.0000
  C   C223      1.0  0.09540  0.82146  0.12848  1.0000
  C   C224      1.0  0.23490  0.81636  0.21312  1.0000
  H   H188      1.0  0.40780  0.70969  0.29622  1.0000
  P   P7        1.0  0.29159  0.80500  0.26472  1.0000
  C   C225      1.0  0.22259  0.81298  0.18058  1.0000
  C   C226      1.0  0.04204  0.86457  0.20113  1.0000
  C   C227      1.0  0.25004  0.61570  0.34622  1.0000
  H   H189      1.0  0.25705  0.71975  0.26611  1.0000
  H   H190      1.0  0.32816  0.76418  0.20809  1.0000
  C   C228      1.0  0.03149  0.85507  0.11004  1.0000
  C   C229      1.0  0.03947  0.93675  0.15752  1.0000
  C   C230      1.0  0.35690  0.75178  0.28438  1.0000
  C   C231      1.0  0.23122  0.79352  0.31363  1.0000
  C   C232      1.0  0.06511  0.85331  0.13211  1.0000
  C   C233      1.0  0.37719  0.89743  0.24236  1.0000
  H   H191      1.0  0.23893  0.93231  0.19192  1.0000
  C   C234      1.0  0.01108  0.67765  0.20512  1.0000
  C   C235      1.0  0.02874  0.82603  0.08442  1.0000
  H   H192      1.0  0.28916  0.65030  0.27597  1.0000
  H   H193      1.0  0.21339  0.92499  0.13543  1.0000
  C   C236      1.0  0.20247  0.87667  0.31016  1.0000
  H   H194      1.0  0.06046  0.53707  0.22998  1.0000
  H   H195      1.0  0.17778  0.98079  0.03007  1.0000
  H   H196      1.0  0.46308  0.82817  0.09071  1.0000
  H   H197      1.0  0.04844  0.76374  0.31820  1.0000
  H   H198      1.0  0.11605  0.90032  0.22759  1.0000
  C   C237      1.0  0.03098  0.88914  0.22832  1.0000
  C   C238      1.0  0.19884  0.80734  0.33399  1.0000
  C   C239      1.0  0.20639  0.92350  0.18741  1.0000
  H   H199      1.0  0.46180  0.84326  0.23983  1.0000
  C   C240      1.0  0.12205  0.90140  0.17517  1.0000
  C   C241      1.0  0.15004  0.90858  0.14939  1.0000
  S   S37       1.0  0.48083  0.52419  0.31146  1.0000
  H   H200      1.0  0.01607  0.74114  0.12525  1.0000
  C   C242      1.0  0.49373  0.84601  0.23073  1.0000
  H   H201      1.0  0.49042  0.81621  0.14573  1.0000
  H   H202      1.0  0.09469  0.97314  0.14392  1.0000
  C   C243      1.0  0.01015  0.87081  0.25465  1.0000
  H   H203      1.0  0.08747  0.53154  0.28633  1.0000
  H   H204      1.0  0.42081  0.84753  0.01736  1.0000
  H   H205      1.0  0.26874  0.91854  0.34434  1.0000
  C   C244      1.0  0.33170  0.99450  0.31258  1.0000
  S   S38       1.0  0.19508  0.62197  0.34254  1.0000
  C   C245      1.0  0.47293  0.89098  0.01748  1.0000
  H   H206      1.0  0.02276  0.61235  0.32091  1.0000
  H   H207      1.0  0.00869  0.66053  0.22766  1.0000
  H   H208      1.0  0.47630  0.50796  0.14309  1.0000
  H   H209      1.0  0.00181  0.77029  0.22598  1.0000
  H   H210      1.0  0.00275  0.82781  0.06746  1.0000
  S   S39       1.0  0.09303  0.95544  0.01513  1.0000
  S   S40       1.0  0.09398  0.93108  0.52776  1.0000
  Fe  Fe20      1.0  0.10759  0.66343  0.44054  1.0000
  S   S41       1.0  0.16781  0.69351  0.42311  1.0000
  S   S42       1.0  0.10384  0.64341  0.49336  1.0000
  Fe  Fe21      1.0  0.05992  0.68338  0.37691  1.0000
  H   H211      1.0  0.05239  0.71685  0.52215  1.0000
  H   H212      1.0  0.24785  0.93017  0.47159  1.0000
  Fe  Fe22      1.0  0.15308  0.65936  0.37644  1.0000
  H   H213      1.0  0.42377  0.51633  0.41225  1.0000
  Fe  Fe23      1.0  0.12564  0.74487  0.40467  1.0000
  S   S43       1.0  0.13496  0.81574  0.40481  1.0000
  S   S44       1.0  0.09481  0.62623  0.39470  1.0000
  S   S45       1.0  0.06667  0.71741  0.42485  1.0000
  H   H214      1.0  0.18236  0.96357  0.49123  1.0000
  C   C246      1.0  0.39373  0.97157  0.48836  1.0000
  C   C247      1.0  0.11951  0.59304  0.50695  1.0000
  C   C248      1.0  0.12537  0.55941  0.48531  1.0000
  S   S46       1.0  0.39361  0.60009  0.34992  1.0000
  H   H215      1.0  0.07061  0.78274  0.55198  1.0000
  H   H216      1.0  0.12092  0.56406  0.45955  1.0000
  C   C249      1.0  0.13665  0.51952  0.49708  1.0000
  H   H217      1.0  0.32738  0.67536  0.45229  1.0000
  C   C250      1.0  0.31786  0.63255  0.37045  1.0000
  C   C251      1.0  0.27383  0.63774  0.36940  1.0000
  H   H218      1.0  0.26180  0.70317  0.47725  1.0000
  H   H219      1.0  0.33634  0.65015  0.38796  1.0000
  H   H220      1.0  0.25842  0.65896  0.38624  1.0000
  C   C252      1.0  0.12236  0.84674  0.43925  1.0000
  C   C253      1.0  0.11366  0.88970  0.43517  1.0000
  C   C254      1.0  0.10376  0.91546  0.46200  1.0000
  C   C255      1.0  0.10461  0.89904  0.49335  1.0000
  C   C256      1.0  0.11427  0.85627  0.49750  1.0000
  C   C257      1.0  0.12216  0.82992  0.47051  1.0000
  H   H221      1.0  0.11428  0.90316  0.41114  1.0000
  H   H222      1.0  0.09624  0.94820  0.45841  1.0000
  H   H223      1.0  0.11571  0.84346  0.52169  1.0000
  H   H224      1.0  0.12912  0.79691  0.47397  1.0000
  P   P8        1.0  0.29452  0.93622  0.41082  1.0000
  C   C258      1.0  0.02471  0.84076  0.38759  1.0000
  C   C259      1.0  0.32188  0.85746  0.38935  1.0000
  C   C260      1.0  0.19380  0.96994  0.46694  1.0000
  C   C261      1.0  0.00645  0.82738  0.41665  1.0000
  C   C262      1.0  0.16628  0.52426  0.39471  1.0000
  H   H225      1.0  0.00485  0.93245  0.55015  1.0000
  H   H226      1.0  0.22175  0.79766  0.41728  1.0000
  C   C263      1.0  0.14223  0.51274  0.53047  1.0000
  C   C264      1.0  0.25293  0.85794  0.41448  1.0000
  C   C265      1.0  0.30506  0.61121  0.45033  1.0000
  C   C266      1.0  0.36293  0.91945  0.45198  1.0000
  C   C267      1.0  0.30156  0.65419  0.45773  1.0000
  C   C268      1.0  0.28926  0.87985  0.40468  1.0000
  H   H227      1.0  0.21617  0.56855  0.40342  1.0000
  C   C269      1.0  0.27154  0.58354  0.45682  1.0000
  C   C270      1.0  0.23445  0.59981  0.47051  1.0000
  C   C271      1.0  0.23117  0.64261  0.47819  1.0000
  C   C272      1.0  0.01133  0.96132  0.61618  1.0000
  H   H228      1.0  0.23404  0.99489  0.38031  1.0000
  H   H229      1.0  0.05361  0.85892  0.38816  1.0000
  C   C273      1.0  0.12536  0.58638  0.54037  1.0000
  C   C274      1.0  0.33323  0.98950  0.45567  1.0000
  H   H230      1.0  0.41660  0.90816  0.48275  1.0000
  C   C275      1.0  0.04076  0.98950  0.62942  1.0000
  H   H231      1.0  0.33365  0.60018  0.43899  1.0000
  H   H232      1.0  0.22669  0.87406  0.42573  1.0000
  C   C276      1.0  0.30977  0.95914  0.37252  1.0000
  C   C277      1.0  0.26467  0.66987  0.47172  1.0000
  H   H233      1.0  0.20777  0.57951  0.47508  1.0000
  H   H234      1.0  0.20224  0.65464  0.48874  1.0000
  C   C278      1.0  0.31847  0.81389  0.38429  1.0000
  C   C279      1.0  0.13691  0.54643  0.55212  1.0000
  C   C280      1.0  0.33895  0.99251  0.37109  1.0000
  H   H235      1.0  0.02183  0.83567  0.43926  1.0000
  H   H236      1.0  0.35003  0.87377  0.38142  1.0000
  H   H237      1.0  0.27965  0.75861  0.39040  1.0000
  H   H238      1.0  0.34380  0.79672  0.37259  1.0000
  C   C281      1.0  0.04603  0.78295  0.53376  1.0000
  H   H239      1.0  0.01396  0.93975  0.49127  1.0000
  C   C282      1.0  0.24978  0.81436  0.40951  1.0000
  C   C283      1.0  0.23070  0.95098  0.45567  1.0000
  C   C284      1.0  0.24544  0.95910  0.42417  1.0000
  C   C285      1.0  0.28242  0.79235  0.39437  1.0000
  H   H240      1.0  0.14107  0.54160  0.57787  1.0000
  C   C286      1.0  0.33293  0.94894  0.44180  1.0000
  C   C287      1.0  0.00481  0.74625  0.49285  1.0000
  H   H241      1.0  0.12078  0.61222  0.55727  1.0000
  H   H242      1.0  0.15007  0.54502  0.37812  1.0000
  C   C288      1.0  0.39322  0.93082  0.47517  1.0000
  H   H243      1.0  0.41757  0.98059  0.50594  1.0000
  H   H244      1.0  0.07338  0.98019  0.63184  1.0000
  C   C289      1.0  0.20376  0.53766  0.40926  1.0000
  C   C290      1.0  0.02554  0.82054  0.52628  1.0000
  C   C291      1.0  0.22293  0.98684  0.40427  1.0000
  H   H245      1.0  0.36329  0.88782  0.44215  1.0000
  C   C292      1.0  0.03574  0.74586  0.51699  1.0000
  C   C293      1.0  0.33822  0.60525  0.34855  1.0000
  H   H246      1.0  0.15996  0.85963  0.34863  1.0000
  C   C294      1.0  0.00638  0.82991  0.35786  1.0000
  C   C295      1.0  0.17157  0.99730  0.44694  1.0000
  H   H247      1.0  0.02193  0.93039  0.60858  1.0000
  S   S47       1.0  0.11732  0.71375  0.35594  1.0000
  H   H248      1.0  0.03439  0.84958  0.53866  1.0000
  H   H249      1.0  0.23584  0.53322  0.51244  1.0000
  P   P9        1.0  0.27512  0.52774  0.44756  1.0000
  H   H250      1.0  0.36729  0.53253  0.45163  1.0000
  H   H251      1.0  0.18510  0.78589  0.35142  1.0000
  C   C296      1.0  0.36364  0.00084  0.47865  1.0000
  C   C297      1.0  0.31658  0.51673  0.41851  1.0000
  C   C298      1.0  0.35902  0.52130  0.42756  1.0000
  C   C299      1.0  0.39112  0.51169  0.40551  1.0000
  C   C300      1.0  0.26094  0.51040  0.51323  1.0000
  C   C301      1.0  0.22524  0.51118  0.43076  1.0000
  C   C302      1.0  0.30693  0.50258  0.38693  1.0000
  Fe  Fe24      1.0  0.07937  0.00060  0.52093  1.0000
  H   H252      1.0  0.42324  0.51677  0.80227  1.0000
  H   H253      1.0  0.30891  0.57500  0.84400  1.0000
  H   H254      1.0  0.44411  0.80985  0.96734  1.0000
  H   H255      1.0  0.45363  0.87321  0.83077  1.0000
  C   C303      1.0  0.49907  0.64127  0.71349  1.0000
  C   C304      1.0  0.47689  0.56580  0.74378  1.0000
  H   H256      1.0  0.49553  0.53583  0.69897  1.0000
  H   H257      1.0  0.42813  0.72953  0.87314  1.0000
  H   H258      1.0  0.38640  0.57965  0.84782  1.0000
  C   C305      1.0  0.49193  0.72669  0.85595  1.0000
  H   H259      1.0  0.32638  0.51577  0.75752  1.0000
  H   H260      1.0  0.27259  0.59431  0.79293  1.0000
  C   C306      1.0  0.46263  0.83591  0.97672  1.0000
  C   C307      1.0  0.38892  0.89133  0.72325  1.0000
  P   P10       1.0  0.45142  0.60503  0.80152  1.0000
  H   H261      1.0  0.45460  0.81985  0.77741  1.0000
  C   C308      1.0  0.47290  0.60409  0.76086  1.0000
  C   C309      1.0  0.43062  0.88596  0.73324  1.0000
  H   H262      1.0  0.39133  0.62369  0.74895  1.0000
  C   C310      1.0  0.30659  0.59648  0.79457  1.0000
  C   C311      1.0  0.39474  0.60148  0.79856  1.0000
  C   C312      1.0  0.49961  0.84806  0.96045  1.0000
  C   C313      1.0  0.32708  0.58548  0.82328  1.0000
  H   H263      1.0  0.42937  0.94957  0.80040  1.0000
  C   C314      1.0  0.47020  0.55912  0.82284  1.0000
  C   C315      1.0  0.37388  0.61293  0.76990  1.0000
  C   C316      1.0  0.37657  0.93776  0.76916  1.0000
  H   H264      1.0  0.46856  0.53610  0.75481  1.0000
  C   C317      1.0  0.32999  0.61023  0.76792  1.0000
  H   H265      1.0  0.02915  0.93541  0.89377  1.0000
  H   H266      1.0  0.45152  0.86662  0.71868  1.0000
  C   C318      1.0  0.37096  0.58809  0.82534  1.0000
  P   P11       1.0  0.49972  0.90051  0.77325  1.0000
  C   C319      1.0  0.36184  0.91707  0.74128  1.0000
  C   C320      1.0  0.41827  0.93250  0.77918  1.0000
  H   H267      1.0  0.37771  0.87589  0.70131  1.0000
  H   H268      1.0  0.40568  0.66511  0.84403  1.0000
  H   H269      1.0  0.47945  0.67190  0.75732  1.0000
  H   H270      1.0  0.07742  0.96411  0.93600  1.0000
  C   C321      1.0  0.45045  0.71230  0.85824  1.0000
  C   C322      1.0  0.44529  0.90576  0.76168  1.0000
  C   C323      1.0  0.46696  0.65294  0.82269  1.0000
  C   C324      1.0  0.49192  0.56541  0.71189  1.0000
  C   C325      1.0  0.44975  0.52007  0.81865  1.0000
  H   H271      1.0  0.35576  0.95824  0.78286  1.0000
  C   C326      1.0  0.43793  0.67560  0.84171  1.0000
  C   C327      1.0  0.44933  0.85720  0.00510  1.0000
  H   H272      1.0  0.31409  0.61871  0.74563  1.0000
  H   H273      1.0  0.47826  0.74621  0.77384  1.0000
  C   C328      1.0  0.47915  0.89355  0.83864  1.0000
  C   C329      1.0  0.05621  0.98491  0.92314  1.0000
  H   H274      1.0  0.32959  0.92139  0.73344  1.0000
  C   C330      1.0  0.48338  0.64189  0.74520  1.0000
  C   C331      1.0  0.48539  0.90032  0.87188  1.0000
  C   C332      1.0  0.02897  0.96881  0.89942  1.0000
  H   H275      1.0  0.46488  0.88537  0.88944  1.0000
  C   C333      1.0  0.48745  0.81339  0.77263  1.0000
  C   C334      1.0  0.50078  0.77151  0.77070  1.0000
  C   C335      1.0  0.85224  0.39221  0.14876  1.0000
  C   C336      1.0  0.59474  0.35700  0.18125  1.0000
  H   H276      1.0  0.53542  0.44674  0.31350  1.0000
  C   C337      1.0  0.88982  0.15670  0.09114  1.0000
  H   H277      1.0  0.75361  0.45989  0.09561  1.0000
  C   C338      1.0  0.97463  0.34385  0.02581  1.0000
  C   C339      1.0  0.84907  0.44130  0.04945  1.0000
  C   C340      1.0  0.73243  0.45118  0.07604  1.0000
  C   C341      1.0  0.87160  0.42429  0.02303  1.0000
  H   H278      1.0  0.65485  0.38083  0.05782  1.0000
  C   C342      1.0  0.59140  0.31303  0.18014  1.0000
  C   C343      1.0  0.53088  0.43832  0.18911  1.0000
  H   H279      1.0  0.55372  0.19820  0.28556  1.0000
  Fe  Fe25      1.0  0.95062  0.01636  0.02879  1.0000
  C   C344      1.0  0.57655  0.49424  0.17019  1.0000
  H   H280      1.0  0.58024  0.29739  0.15828  1.0000
  C   C345      1.0  0.70419  0.41779  0.07996  1.0000
  P   P12       1.0  0.61418  0.43418  0.21076  1.0000
  H   H281      1.0  0.89322  0.12269  0.09166  1.0000
  C   C346      1.0  0.83636  0.30777  0.04985  1.0000
  H   H282      1.0  0.82521  0.38621  0.19642  1.0000
  P   P13       1.0  0.87606  0.30061  0.08073  1.0000
  C   C347      1.0  0.85992  0.32713  0.11769  1.0000
  C   C348      1.0  0.88165  0.24456  0.08682  1.0000
  C   C349      1.0  0.84577  0.21851  0.08690  1.0000
  C   C350      1.0  0.84991  0.17475  0.08898  1.0000
  H   H283      1.0  0.70350  0.40055  0.10252  1.0000
  C   C351      1.0  0.57020  0.44207  0.26886  1.0000
  C   C352      1.0  0.71839  0.50185  0.18280  1.0000
  C   C353      1.0  0.93570  0.32711  0.03507  1.0000
  H   H284      1.0  0.58651  0.37504  0.15998  1.0000
  H   H285      1.0  0.59261  0.48460  0.34289  1.0000
  C   C354      1.0  0.59728  0.47433  0.31802  1.0000
  C   C355      1.0  0.86495  0.37104  0.12056  1.0000
  C   C356      1.0  0.92581  0.32283  0.06809  1.0000
  C   C357      1.0  0.92560  0.18237  0.09155  1.0000
  C   C358      1.0  0.80656  0.34018  0.05244  1.0000
  H   H286      1.0  0.87867  0.38907  0.10095  1.0000
  C   C359      1.0  0.57105  0.45711  0.18814  1.0000
  H   H287      1.0  0.68146  0.38547  0.17822  1.0000
  C   C360      1.0  0.86558  0.47470  0.06807  1.0000
  C   C361      1.0  0.73037  0.42943  0.16688  1.0000
  C   C362      1.0  0.67745  0.42920  0.02572  1.0000
  H   H288      1.0  0.96341  0.17541  0.02602  1.0000
  C   C363      1.0  0.66507  0.44873  0.19415  1.0000
  H   H289      1.0  0.95738  0.48831  0.02665  1.0000
  C   C364      1.0  0.52434  0.20124  0.27243  1.0000
  S   S48       1.0  0.94659  0.08755  0.03704  1.0000
  H   H290      1.0  0.82231  0.15464  0.08813  1.0000
  H   H291      1.0  0.81465  0.23193  0.08454  1.0000
  H   H292      1.0  0.95650  0.16800  0.09234  1.0000
  H   H293      1.0  0.75526  0.37239  0.02931  1.0000
  C   C365      1.0  0.99489  0.01059  0.14317  1.0000
  H   H294      1.0  0.63163  0.36831  0.25865  1.0000
  C   C366      1.0  0.61687  0.30935  0.23540  1.0000
  H   H295      1.0  0.75043  0.40580  0.15586  1.0000
  C   C367      1.0  0.63534  0.48264  0.30231  1.0000
  H   H296      1.0  0.67096  0.47704  0.25865  1.0000
  C   C368      1.0  0.60844  0.37749  0.20972  1.0000
  H   H297      1.0  0.94994  0.24518  0.08880  1.0000
  C   C369      1.0  0.64097  0.47057  0.26986  1.0000
  H   H298      1.0  0.77421  0.48019  0.15827  1.0000
  H   H299      1.0  0.83812  0.27089  0.14215  1.0000
  C   C370      1.0  0.69110  0.41813  0.17962  1.0000
  C   C371      1.0  0.67932  0.49065  0.19581  1.0000
  C   C372      1.0  0.83467  0.36971  0.17445  1.0000
  C   C373      1.0  0.83542  0.28095  0.02259  1.0000
  C   C374      1.0  0.92165  0.22615  0.08936  1.0000
  H   H300      1.0  0.85806  0.25567  0.01988  1.0000
  C   C375      1.0  0.99427  0.35233  0.08218  1.0000
  H   H301      1.0  0.81846  0.42884  0.05539  1.0000
  C   C376      1.0  0.92717  0.47491  0.03307  1.0000
  C   C377      1.0  0.60804  0.45090  0.25261  1.0000
  C   C378      1.0  0.67679  0.40673  0.05478  1.0000
  C   C379      1.0  0.60240  0.28922  0.20722  1.0000
  H   H302      1.0  0.59970  0.25515  0.20638  1.0000
  C   C380      1.0  0.62012  0.35330  0.23663  1.0000
  H   H303      1.0  0.54460  0.42615  0.25660  1.0000
  H   H304      1.0  0.81622  0.30857  0.19190  1.0000
  H   H305      1.0  0.62551  0.29093  0.25642  1.0000
  C   C381      1.0  0.56496  0.45349  0.30140  1.0000
  H   H306      1.0  0.80605  0.36094  0.07332  1.0000
  H   H307      1.0  0.85628  0.42614  0.15066  1.0000
  H   H308      1.0  0.53788  0.26375  0.25540  1.0000
  H   H309      1.0  0.94898  0.33161  0.11720  1.0000
  C   C382      1.0  0.84212  0.30472  0.14357  1.0000
  C   C383      1.0  0.95561  0.33516  0.09158  1.0000
  C   C384      1.0  0.82959  0.32601  0.17186  1.0000
  C   C385      1.0  0.70552  0.46311  0.02167  1.0000
  C   C386      1.0  0.74389  0.47132  0.16830  1.0000
  H   H310      1.0  0.97760  0.03867  0.13669  1.0000
  H   H311      1.0  0.75555  0.49953  0.04458  1.0000
  H   H312      1.0  0.52511  0.41035  0.20335  1.0000
  S   S49       1.0  0.83580  0.49377  0.10140  1.0000
  C   C387      1.0  0.73334  0.47367  0.04700  1.0000
  C   C388      1.0  0.50290  0.49320  0.15487  1.0000
  H   H313      1.0  0.91358  0.31799  0.01633  1.0000
  C   C389      1.0  0.51553  0.23794  0.25531  1.0000
  C   C390      1.0  0.90502  0.49118  0.06002  1.0000
  C   C391      1.0  0.77719  0.34648  0.02767  1.0000
  H   H314      1.0  0.66014  0.49943  0.31507  1.0000
  Fe  Fe26      1.0  0.64959  0.07718  0.58579  1.0000
  S   S50       1.0  0.68300  0.13815  0.59849  1.0000
  S   S51       1.0  0.60374  0.06067  0.54496  1.0000
  Fe  Fe27      1.0  0.68193  0.03134  0.64681  1.0000
  S   S52       1.0  0.71724  0.08853  0.66374  1.0000
  C   C392      1.0  0.52183  0.32491  0.59738  1.0000
  Fe  Fe28      1.0  0.66029  0.12584  0.64928  1.0000
  P   P14       1.0  0.53823  0.28384  0.56957  1.0000
  Fe  Fe29      1.0  0.73780  0.09604  0.61177  1.0000
  S   S53       1.0  0.80789  0.11136  0.60882  1.0000
  S   S54       1.0  0.62335  0.06766  0.63590  1.0000
  S   S55       1.0  0.70606  0.03611  0.59552  1.0000
  S   S56       1.0  0.93772  0.06319  0.49685  1.0000
  C   C393      1.0  0.84308  0.09563  0.57770  1.0000
  C   C394      1.0  0.88655  0.09818  0.58363  1.0000
  C   C395      1.0  0.91585  0.08768  0.55927  1.0000
  C   C396      1.0  0.90186  0.07455  0.52861  1.0000
  C   C397      1.0  0.85835  0.07097  0.52290  1.0000
  C   C398      1.0  0.82902  0.08131  0.54737  1.0000
  H   H315      1.0  0.89764  0.10829  0.60720  1.0000
  H   H316      1.0  0.94925  0.09035  0.56404  1.0000
  C   C399      1.0  0.55770  0.19864  0.57571  1.0000
  H   H317      1.0  0.79561  0.07910  0.54252  1.0000
  C   C400      1.0  0.53761  0.38452  0.63271  1.0000
  C   C401      1.0  0.65377  0.24725  0.65897  1.0000
  H   H318      1.0  0.67267  0.30774  0.63998  1.0000
  H   H319      1.0  0.57049  0.20066  0.55143  1.0000
  C   C402      1.0  0.58301  0.09377  0.51441  1.0000
  C   C403      1.0  0.59778  0.13484  0.50966  1.0000
  C   C404      1.0  0.58053  0.15979  0.48485  1.0000
  C   C405      1.0  0.55082  0.07806  0.49420  1.0000
  C   C406      1.0  0.53359  0.10297  0.46940  1.0000
  H   H320      1.0  0.62288  0.14713  0.52479  1.0000
  H   H321      1.0  0.64547  0.33385  0.49125  1.0000
  H   H322      1.0  0.70579  0.31006  0.52460  1.0000
  C   C407      1.0  0.95750  0.01495  0.62028  1.0000
  H   H323      1.0  0.56028  0.40657  0.64286  1.0000
  S   S57       1.0  0.52869  0.17606  0.43303  1.0000
  H   H324      1.0  0.69295  0.27567  0.57762  1.0000
  H   H325      1.0  0.67203  0.22925  0.64163  1.0000
  H   H326      1.0  0.58391  0.35260  0.60400  1.0000
  C   C408      1.0  0.77262  0.21833  0.66506  1.0000
  H   H327      1.0  0.97832  0.07546  0.63839  1.0000
  H   H328      1.0  0.80695  0.16047  0.66467  1.0000
  C   C409      1.0  0.62552  0.28027  0.57412  1.0000
  C   C410      1.0  0.65398  0.29167  0.65803  1.0000
  C   C411      1.0  0.92197  0.17891  0.67090  1.0000
  H   H329      1.0  0.90894  0.09596  0.66953  1.0000
  C   C412      1.0  0.55089  0.35384  0.61043  1.0000
  H   H330      1.0  0.62044  0.26494  0.59716  1.0000
  C   C413      1.0  0.53923  0.23398  0.59062  1.0000
  C   C414      1.0  0.98713  0.04316  0.63321  1.0000
  C   C415      1.0  0.63989  0.31911  0.51449  1.0000
  H   H331      1.0  0.59242  0.19137  0.48111  1.0000
  H   H332      1.0  0.87845  0.02474  0.66853  1.0000
  H   H333      1.0  0.52146  0.19158  0.66533  1.0000
  C   C416      1.0  0.67388  0.30569  0.53325  1.0000
  C   C417      1.0  0.56140  0.16076  0.59252  1.0000
  C   C418      1.0  0.66668  0.28633  0.56309  1.0000
  C   C419      1.0  0.59118  0.29343  0.55538  1.0000
  C   C420      1.0  0.50339  0.28390  0.53473  1.0000
  C   C421      1.0  0.54848  0.14394  0.46452  1.0000
  H   H334      1.0  0.50928  0.09023  0.45373  1.0000
  H   H335      1.0  0.53938  0.04624  0.49757  1.0000
  H   H336      1.0  0.74791  0.20595  0.64947  1.0000
  C   C422      1.0  0.90953  0.18774  0.63895  1.0000
  H   H337      1.0  0.57286  0.32338  0.51040  1.0000
  H   H338      1.0  0.55168  0.12908  0.63794  1.0000
  C   C423      1.0  0.52605  0.23108  0.62314  1.0000
  C   C424      1.0  0.80626  0.19251  0.67375  1.0000
  H   H339      1.0  0.98005  0.29178  0.53771  1.0000
  H   H340      1.0  0.84727  0.06078  0.49927  1.0000
  H   H341      1.0  0.57596  0.13371  0.58097  1.0000
  C   C425      1.0  0.59865  0.31308  0.52548  1.0000
  H   H342      1.0  0.87687  0.19362  0.63308  1.0000
  C   C426      1.0  0.93912  0.18743  0.61377  1.0000
  C   C427      1.0  0.53023  0.19325  0.63995  1.0000
  C   C428      1.0  0.54762  0.15806  0.62460  1.0000
  H   H343      1.0  0.92914  0.19330  0.58904  1.0000
  C   C429      1.0  0.99370  0.16851  0.65180  1.0000
  C   C430      1.0  0.98115  0.17776  0.62017  1.0000
  H   H344      1.0  0.92601  0.02618  0.61618  1.0000
  H   H345      1.0  0.80056  0.02110  0.60040  1.0000
  H   H346      1.0  0.51402  0.25811  0.63621  1.0000
  C   C431      1.0  0.96426  0.16882  0.67707  1.0000
  C   C432      1.0  0.77083  0.25982  0.67649  1.0000
  H   H347      1.0  0.74458  0.27977  0.66997  1.0000
  H   H348      1.0  0.87202  0.00644  0.58032  1.0000
  H   H349      1.0  0.51213  0.21802  0.52189  1.0000
  S   S58       1.0  0.63110  0.37121  0.67813  1.0000
  C   C433      1.0  0.62998  0.31543  0.68019  1.0000
  H   H350      1.0  0.84782  0.13320  0.95225  1.0000
  H   H351      1.0  0.67761  0.42929  0.93729  1.0000
  S   S59       1.0  0.55110  0.46152  0.70551  1.0000
  Fe  Fe30      1.0  0.59966  0.43255  0.78912  1.0000
  S   S60       1.0  0.63857  0.45620  0.74758  1.0000
  S   S61       1.0  0.62566  0.41597  0.83890  1.0000
  Fe  Fe31      1.0  0.59961  0.41196  0.71679  1.0000
  H   H352      1.0  0.58710  0.31205  0.72051  1.0000
  S   S62       1.0  0.54994  0.48217  0.78408  1.0000
  S   S63       1.0  0.56385  0.38540  0.75877  1.0000
  Fe  Fe32      1.0  0.88835  0.28514  0.92601  1.0000
  S   S64       1.0  0.95257  0.31203  0.93583  1.0000
  S   S65       1.0  0.86409  0.22024  0.94063  1.0000
  Fe  Fe33      1.0  0.86317  0.35950  0.88311  1.0000
  S   S66       1.0  0.92559  0.39162  0.89028  1.0000
  S   S67       1.0  0.82365  0.39242  0.84543  1.0000
  Fe  Fe34      1.0  0.95392  0.32793  0.88249  1.0000
  C   C434      1.0  0.89978  0.02661  0.90801  1.0000
  Fe  Fe35      1.0  0.91823  0.37379  0.94274  1.0000
  S   S68       1.0  0.89202  0.29662  0.87222  1.0000
  S   S69       1.0  0.85342  0.34603  0.93616  1.0000
  C   C435      1.0  0.80290  0.27554  0.69641  1.0000
  C   C436      1.0  0.68074  0.40944  0.84148  1.0000
  C   C437      1.0  0.70697  0.42505  0.81722  1.0000
  C   C438      1.0  0.75059  0.42003  0.81930  1.0000
  C   C439      1.0  0.76857  0.39817  0.84516  1.0000
  C   C440      1.0  0.74262  0.38262  0.86980  1.0000
  C   C441      1.0  0.69869  0.38854  0.86804  1.0000
  H   H353      1.0  0.69387  0.44167  0.79699  1.0000
  H   H354      1.0  0.77047  0.43271  0.80040  1.0000
  H   H355      1.0  0.75641  0.36619  0.89005  1.0000
  H   H356      1.0  0.67859  0.37622  0.88691  1.0000
  H   H357      1.0  0.94117  0.24410  0.71853  1.0000
  C   C442      1.0  0.87710  0.09362  0.88643  1.0000
  C   C443      1.0  0.89250  0.11194  0.98781  1.0000
  C   C444      1.0  0.87370  0.14227  0.96775  1.0000
  C   C445      1.0  0.88802  0.18419  0.96763  1.0000
  C   C446      1.0  0.92037  0.19607  0.98888  1.0000
  C   C447      1.0  0.90665  0.19282  0.74084  1.0000
  C   C448      1.0  0.00044  0.21046  0.89008  1.0000
  H   H358      1.0  0.70506  0.37183  0.71565  1.0000
  H   H359      1.0  0.87509  0.47185  0.84686  1.0000
  C   C449      1.0  0.86534  0.04856  0.68453  1.0000
  C   C450      1.0  0.99737  0.14887  0.85506  1.0000
  C   C451      1.0  0.71987  0.13383  0.78062  1.0000
  C   C452      1.0  0.71980  0.13175  0.74677  1.0000
  C   C453      1.0  0.71963  0.16879  0.72871  1.0000
  C   C454      1.0  0.71840  0.20798  0.74432  1.0000
  C   C455      1.0  0.71810  0.21040  0.77830  1.0000
  C   C456      1.0  0.71869  0.17298  0.79638  1.0000
  P   P15       1.0  0.70779  0.25994  0.79842  1.0000
  C   C457      1.0  0.73158  0.25904  0.83828  1.0000
  C   C458      1.0  0.73036  0.30308  0.77575  1.0000
  C   C459      1.0  0.77080  0.31863  0.78304  1.0000
  C   C460      1.0  0.78731  0.35290  0.76608  1.0000
  C   C461      1.0  0.76353  0.37225  0.74195  1.0000
  C   C462      1.0  0.72355  0.35674  0.73429  1.0000
  C   C463      1.0  0.70704  0.32223  0.75099  1.0000
  C   C464      1.0  0.77165  0.24119  0.84230  1.0000
  C   C465      1.0  0.79049  0.24040  0.87293  1.0000
  C   C466      1.0  0.76963  0.25757  0.89971  1.0000
  C   C467      1.0  0.72980  0.27533  0.89602  1.0000
  C   C468      1.0  0.71077  0.27606  0.86544  1.0000
  C   C469      1.0  0.65134  0.26655  0.80075  1.0000
  C   C470      1.0  0.62372  0.23347  0.79229  1.0000
  C   C471      1.0  0.58016  0.23919  0.79415  1.0000
  C   C472      1.0  0.56380  0.27773  0.80467  1.0000
  C   C473      1.0  0.59102  0.31065  0.81314  1.0000
  C   C474      1.0  0.63455  0.30541  0.81054  1.0000
  H   H360      1.0  0.71915  0.10503  0.79458  1.0000
  H   H361      1.0  0.71557  0.23609  0.72980  1.0000
  H   H362      1.0  0.71637  0.17392  0.82259  1.0000
  H   H363      1.0  0.78948  0.30540  0.80231  1.0000
  H   H364      1.0  0.81804  0.36537  0.77259  1.0000
  H   H365      1.0  0.94932  0.13042  0.92772  1.0000
  C   C475      1.0  0.91366  0.18919  0.79961  1.0000
  H   H366      1.0  0.67582  0.31095  0.74480  1.0000
  H   H367      1.0  0.78857  0.22830  0.82169  1.0000
  H   H368      1.0  0.82151  0.22684  0.87596  1.0000
  H   H369      1.0  0.78451  0.25719  0.92328  1.0000
  H   H370      1.0  0.71380  0.28888  0.91679  1.0000
  H   H371      1.0  0.68010  0.29024  0.86325  1.0000
  H   H372      1.0  0.63537  0.20340  0.78369  1.0000
  H   H373      1.0  0.55910  0.21382  0.78703  1.0000
  C   C476      1.0  0.93346  0.22822  0.74096  1.0000
  H   H374      1.0  0.89166  0.07016  0.82440  1.0000
  H   H375      1.0  0.65519  0.33164  0.81621  1.0000
  C   C477      1.0  0.97841  0.18871  0.91397  1.0000
  C   C478      1.0  0.94962  0.24425  0.77017  1.0000
  C   C479      1.0  0.83684  0.24992  0.70490  1.0000
  H   H376      1.0  0.64781  0.49935  0.86335  1.0000
  C   C480      1.0  0.82763  0.04926  0.91520  1.0000
  C   C481      1.0  0.92063  0.05585  0.77880  1.0000
  H   H377      1.0  0.95139  0.23810  0.82210  1.0000
  H   H378      1.0  0.78454  0.06265  0.73742  1.0000
  H   H379      1.0  0.65572  0.42013  0.00667  1.0000
  C   C482      1.0  0.83888  0.20810  0.69354  1.0000
  H   H380      1.0  0.86130  0.26316  0.72010  1.0000
  C   C483      1.0  0.93943  0.22498  0.79948  1.0000
  C   C484      1.0  0.90893  0.06353  0.89072  1.0000
  H   H381      1.0  0.71854  0.10147  0.73452  1.0000
  H   H382      1.0  0.98196  0.34774  0.00033  1.0000
  H   H383      1.0  0.81620  0.00781  0.70228  1.0000
  H   H384      1.0  0.54988  0.04090  0.73861  1.0000
  C   C485      1.0  0.78598  0.46373  0.97190  1.0000
  H   H385      1.0  0.87712  0.14571  0.77126  1.0000
  H   H386      1.0  0.90608  0.17429  0.82246  1.0000
  C   C486      1.0  0.74520  0.48479  0.92517  1.0000
  C   C487      1.0  0.82888  0.11102  0.72356  1.0000
  C   C488      1.0  0.57883  0.46900  0.93187  1.0000
  S   S70       1.0  0.62823  0.17066  0.68474  1.0000
  H   H387      1.0  0.84079  0.44745  0.90204  1.0000
  H   H388      1.0  0.92354  0.00297  0.91232  1.0000
  H   H389      1.0  0.97440  0.16053  0.70127  1.0000
  C   C489      1.0  0.89727  0.17312  0.77043  1.0000
  H   H390      1.0  0.85864  0.39827  0.00912  1.0000
  C   C490      1.0  0.97524  0.12666  0.87909  1.0000
  H   H391      1.0  0.79636  0.04370  0.92479  1.0000
  C   C491      1.0  0.95801  0.04653  0.76244  1.0000
  H   H392      1.0  0.58681  0.23406  0.72230  1.0000
  H   H393      1.0  0.57838  0.34062  0.82119  1.0000
  H   H394      1.0  0.89129  0.05732  0.76546  1.0000
  C   C492      1.0  0.99900  0.03853  0.89201  1.0000
  H   H395      1.0  0.97130  0.20429  0.93673  1.0000
  S   S71       1.0  0.93835  0.42415  0.97943  1.0000
  C   C493      1.0  0.86443  0.12087  0.70476  1.0000
  H   H396      1.0  0.81217  0.10960  0.89496  1.0000
  H   H397      1.0  0.53006  0.28233  0.80588  1.0000
  H   H398      1.0  0.66621  0.01989  0.72777  1.0000
  C   C494      1.0  0.65142  0.45024  0.94199  1.0000
  H   H399      1.0  0.84846  0.44084  0.96105  1.0000
  C   C495      1.0  0.61330  0.44290  0.92594  1.0000
  H   H400      1.0  0.58225  0.02232  0.00500  1.0000
  C   C496      1.0  0.95892  0.06091  0.82988  1.0000
  C   C497      1.0  0.60574  0.25005  0.70437  1.0000
  C   C498      1.0  0.92102  0.06306  0.81236  1.0000
  H   H401      1.0  0.96968  0.27205  0.77025  1.0000
  H   H402      1.0  0.77590  0.39946  0.72937  1.0000
  H   H403      1.0  0.88363  0.12280  0.87392  1.0000
  H   H404      1.0  0.61049  0.41691  0.90878  1.0000
  C   C499      1.0  0.60585  0.29435  0.70338  1.0000
  H   H405      1.0  0.75393  0.32456  0.98133  1.0000
  C   C500      1.0  0.81531  0.45716  0.91784  1.0000
  H   H406      1.0  0.80465  0.26549  0.97768  1.0000
  H   H407      1.0  0.54928  0.46299  0.91954  1.0000
  C   C501      1.0  0.83015  0.03904  0.70345  1.0000
  C   C502      1.0  0.65552  0.48432  0.96379  1.0000
  C   C503      1.0  0.62955  0.22629  0.68218  1.0000
  H   H408      1.0  0.80163  0.30778  0.70504  1.0000
  C   C504      1.0  0.54921  0.00746  0.73313  1.0000
  C   C505      1.0  0.81217  0.07014  0.72316  1.0000
  C   C506      1.0  0.81933  0.45287  0.95132  1.0000
  C   C507      1.0  0.85931  0.01964  0.92021  1.0000
  P   P16       1.0  0.88331  0.17475  0.70298  1.0000
  C   C508      1.0  0.96582  0.14698  0.90860  1.0000
  C   C509      1.0  0.74838  0.47943  0.95889  1.0000
  P   P17       1.0  0.96036  0.07211  0.87305  1.0000
  H   H409      1.0  0.98832  0.39479  0.82664  1.0000
  C   C510      1.0  0.83649  0.08619  0.89823  1.0000
  C   C511      1.0  0.93851  0.16597  0.00959  1.0000
  H   H410      1.0  0.71812  0.16714  0.70249  1.0000
  H   H411      1.0  0.81343  0.13526  0.73785  1.0000
  H   H412      1.0  0.93141  0.22835  0.98942  1.0000
  C   C512      1.0  0.80522  0.28658  0.99840  1.0000
  C   C513      1.0  0.99581  0.04414  0.77967  1.0000
  Fe  Fe36      1.0  0.51751  0.43734  0.74958  1.0000
  P   P18       1.0  0.70468  0.49369  0.98481  1.0000
  C   C514      1.0  0.77649  0.31965  0.00064  1.0000
  C   C515      1.0  0.77837  0.47347  0.90478  1.0000
  C   C516      1.0  0.92487  0.12370  0.00904  1.0000
  H   H413      1.0  0.71693  0.49730  0.91448  1.0000
  H   H414      1.0  0.58691  0.01356  0.68988  1.0000
  H   H415      1.0  0.95763  0.04101  0.73643  1.0000
  H   H416      1.0  0.60638  0.01411  0.94798  1.0000
  C   C517      1.0  0.88254  0.08920  0.68522  1.0000
  H   H417      1.0  0.88122  0.07972  0.98747  1.0000
  H   H418      1.0  0.77511  0.47650  0.87876  1.0000
  H   H419      1.0  0.78990  0.45991  0.99774  1.0000
  H   H420      1.0  0.81257  0.49870  0.81883  1.0000
  H   H421      1.0  0.51159  0.45896  0.86625  1.0000
  C   C518      1.0  0.99630  0.05123  0.81325  1.0000
  C   C519      1.0  0.91045  0.44164  0.01428  1.0000
  Fe  Fe37      1.0  0.94260  0.92853  0.05986  1.0000
  S   S72       1.0  0.91713  0.89507  0.10438  1.0000
  H   H422      1.0  0.60661  0.85720  0.19623  1.0000
  C   C520      1.0  0.98015  0.66422  0.31517  1.0000
  C   C521      1.0  0.52724  0.70131  0.15956  1.0000
  S   S73       1.0  0.58613  0.57727  0.28141  1.0000
  Fe  Fe38      1.0  0.78816  0.61623  0.16721  1.0000
  S   S74       1.0  0.82390  0.55812  0.18105  1.0000
  S   S75       1.0  0.71681  0.62501  0.16971  1.0000
  Fe  Fe39      1.0  0.86300  0.65124  0.12853  1.0000
  S   S76       1.0  0.90346  0.59490  0.13892  1.0000
  S   S77       1.0  0.88566  0.69788  0.09086  1.0000
  Fe  Fe40      1.0  0.84601  0.55550  0.12919  1.0000
  C   C522      1.0  0.97327  0.97452  0.15311  1.0000
  Fe  Fe41      1.0  0.87888  0.60213  0.19005  1.0000
  S   S78       1.0  0.92728  0.58680  0.22917  1.0000
  S   S79       1.0  0.80746  0.61111  0.11482  1.0000
  S   S80       1.0  0.84146  0.66125  0.18006  1.0000
  H   H423      1.0  0.57283  0.88064  0.05602  1.0000
  H   H424      1.0  0.60704  0.97384  0.04700  1.0000
  C   C523      1.0  0.94675  0.61766  0.26204  1.0000
  C   C524      1.0  0.93027  0.65724  0.27000  1.0000
  C   C525      1.0  0.55075  0.81775  0.19776  1.0000
  C   C526      1.0  0.97702  0.70503  0.15725  1.0000
  H   H425      1.0  0.90447  0.66979  0.25599  1.0000
  C   C527      1.0  0.74352  0.93041  0.03326  1.0000
  C   C528      1.0  0.51812  0.88142  0.23834  1.0000
  C   C529      1.0  0.62241  0.58733  0.24954  1.0000
  C   C530      1.0  0.60934  0.59240  0.21741  1.0000
  C   C531      1.0  0.63862  0.60385  0.19328  1.0000
  C   C532      1.0  0.68160  0.60871  0.20073  1.0000
  C   C533      1.0  0.69504  0.60165  0.23255  1.0000
  C   C534      1.0  0.66549  0.59147  0.25687  1.0000
  H   H426      1.0  0.57658  0.58810  0.21128  1.0000
  H   H427      1.0  0.62787  0.60900  0.16874  1.0000
  H   H428      1.0  0.72797  0.60527  0.23867  1.0000
  H   H429      1.0  0.67598  0.58736  0.28162  1.0000
  C   C535      1.0  0.90674  0.84051  0.10068  1.0000
  C   C536      1.0  0.89459  0.81724  0.12805  1.0000
  C   C537      1.0  0.88717  0.77348  0.12555  1.0000
  C   C538      1.0  0.89231  0.75285  0.09566  1.0000
  C   C539      1.0  0.90401  0.77632  0.06841  1.0000
  C   C540      1.0  0.91075  0.81993  0.07077  1.0000
  H   H430      1.0  0.89129  0.83303  0.15128  1.0000
  H   H431      1.0  0.87813  0.75569  0.14673  1.0000
  H   H432      1.0  0.90768  0.76073  0.04523  1.0000
  H   H433      1.0  0.91915  0.83749  0.04939  1.0000
  H   H434      1.0  0.63098  0.71361  0.19112  1.0000
  S   S81       1.0  0.97641  0.89579  0.01880  1.0000
  H   H435      1.0  0.54146  0.66537  0.24872  1.0000
  C   C541      1.0  0.55890  0.88502  0.22592  1.0000
  C   C542      1.0  0.99979  0.82796  0.25383  1.0000
  H   H436      1.0  0.52255  0.71055  0.13463  1.0000
  C   C543      1.0  0.61786  0.93067  0.13490  1.0000
  S   S82       1.0  0.99061  0.98057  0.06422  1.0000
  C   C544      1.0  0.69416  0.56550  0.02386  1.0000
  C   C545      1.0  0.97499  0.68255  0.18618  1.0000
  H   H437      1.0  0.74881  0.77152  0.16848  1.0000
  C   C546      1.0  0.53721  0.67572  0.22391  1.0000
  H   H438      1.0  0.94906  0.70845  0.14246  1.0000
  H   H439      1.0  0.97790  0.90986  0.16716  1.0000
  C   C547      1.0  0.76806  0.70985  0.07181  1.0000
  C   C548      1.0  0.69161  0.73914  0.18104  1.0000
  H   H440      1.0  0.72904  0.53431  0.18412  1.0000
  H   H441      1.0  0.79795  0.81225  0.06399  1.0000
  H   H442      1.0  0.95604  0.79599  0.33408  1.0000
  C   C549      1.0  0.80806  0.71997  0.02204  1.0000
  H   H443      1.0  0.50485  0.80702  0.04254  1.0000
  C   C550      1.0  0.62907  0.90472  0.07978  1.0000
  C   C551      1.0  0.64447  0.92410  0.10825  1.0000
  H   H444      1.0  0.93328  0.71043  0.30298  1.0000
  C   C552      1.0  0.57538  0.91936  0.13295  1.0000
  C   C553      1.0  0.55953  0.90153  0.10438  1.0000
  C   C554      1.0  0.58624  0.89375  0.07806  1.0000
  H   H445      1.0  0.68327  0.62126  0.05288  1.0000
  C   C555      1.0  0.79366  0.77927  0.05803  1.0000
  H   H446      1.0  0.00150  0.88998  0.27547  1.0000
  C   C556      1.0  0.71744  0.90613  0.05341  1.0000
  S   S83       1.0  0.89945  0.96706  0.02865  1.0000
  P   P19       1.0  0.56923  0.77804  0.16939  1.0000
  P   P20       1.0  0.66204  0.89875  0.04417  1.0000
  C   C557      1.0  0.50972  0.80755  0.12509  1.0000
  H   H447      1.0  0.60324  0.76217  0.10435  1.0000
  H   H448      1.0  0.62985  0.94567  0.15675  1.0000
  C   C558      1.0  0.55677  0.78362  0.07071  1.0000
  H   H449      1.0  0.79164  0.87666  0.10888  1.0000
  C   C559      1.0  0.78632  0.93512  0.04035  1.0000
  H   H450      1.0  0.70778  0.71200  0.19085  1.0000
  H   H451      1.0  0.98337  0.81370  0.27405  1.0000
  C   C560      1.0  0.51003  0.81431  0.21068  1.0000
  C   C561      1.0  0.67401  0.77305  0.02106  1.0000
  H   H452      1.0  0.83685  0.91920  0.07291  1.0000
  C   C562      1.0  0.68099  0.81310  0.03447  1.0000
  C   C563      1.0  0.54798  0.72790  0.18188  1.0000
  C   C564      1.0  0.94674  0.68023  0.29660  1.0000
  C   C565      1.0  0.99542  0.93780  0.16035  1.0000
  C   C566      1.0  0.73515  0.88672  0.08071  1.0000
  H   H453      1.0  0.57783  0.91246  0.23195  1.0000
  C   C567      1.0  0.57301  0.77742  0.10181  1.0000
  C   C568      1.0  0.99720  0.62510  0.30677  1.0000
  C   C569      1.0  0.80355  0.91581  0.06761  1.0000
  C   C570      1.0  0.51672  0.64950  0.20152  1.0000
  H   H454      1.0  0.75976  0.76499  0.10187  1.0000
  H   H455      1.0  0.86665  0.64764  0.03796  1.0000
  H   H456      1.0  0.75227  0.68902  0.08868  1.0000
  H   H457      1.0  0.87506  0.57149  0.04507  1.0000
  C   C571      1.0  0.65378  0.84654  0.02724  1.0000
  C   C572      1.0  0.86250  0.58328  0.02246  1.0000
  H   H458      1.0  0.70824  0.81781  0.04966  1.0000
  C   C573      1.0  0.62623  0.77546  0.16879  1.0000
  C   C574      1.0  0.69377  0.80725  0.15529  1.0000
  H   H459      1.0  0.63390  0.83514  0.14436  1.0000
  H   H460      1.0  0.71581  0.86735  0.09618  1.0000
  H   H461      1.0  0.55437  0.92536  0.15321  1.0000
  H   H462      1.0  0.91844  0.51651  0.07446  1.0000
  C   C575      1.0  0.77229  0.75266  0.07930  1.0000
  C   C576      1.0  0.55241  0.71503  0.21424  1.0000
  H   H463      1.0  0.56821  0.73506  0.23186  1.0000
  H   H464      1.0  0.52616  0.89470  0.10228  1.0000
  H   H465      1.0  0.71181  0.83329  0.14575  1.0000
  H   H466      1.0  0.94545  0.66861  0.19390  1.0000
  C   C577      1.0  0.71469  0.77261  0.16828  1.0000
  H   H467      1.0  0.93919  0.97448  0.15417  1.0000
  Fe  Fe42      1.0  0.51579  0.56444  0.27536  1.0000
  C   C578      1.0  0.57516  0.85344  0.20560  1.0000
  C   C579      1.0  0.64972  0.80842  0.15503  1.0000
  C   C580      1.0  0.98028  0.60184  0.28054  1.0000
  C   C581      1.0  0.81115  0.76314  0.02944  1.0000
  C   C582      1.0  0.64765  0.74040  0.18130  1.0000
  C   C583      1.0  0.54976  0.78968  0.12928  1.0000
  C   C584      1.0  0.77793  0.89179  0.08790  1.0000
  C   C585      1.0  0.54260  0.51218  0.15374  1.0000
  H   H468      1.0  0.60653  0.51018  0.16921  1.0000
  H   H469      1.0  0.78286  0.66013  0.03843  1.0000
  C   C586      1.0  0.69382  0.60901  0.02961  1.0000
  H   H470      1.0  0.67659  0.93530  0.10976  1.0000
  H   H471      1.0  0.57452  0.77359  0.04970  1.0000
  C   C587      1.0  0.51168  0.66227  0.16945  1.0000
  C   C588      1.0  0.78577  0.69353  0.04328  1.0000
  H   H472      1.0  0.68274  0.54476  0.04267  1.0000
  H   H473      1.0  0.50530  0.90610  0.25373  1.0000
  H   H474      1.0  0.80629  0.95332  0.02434  1.0000
  H   H475      1.0  0.69575  0.74784  0.02623  1.0000
  H   H476      1.0  0.66040  0.51475  0.20747  1.0000
  C   C589      1.0  0.61794  0.96947  0.02233  1.0000
  C   C590      1.0  0.51731  0.80207  0.06669  1.0000
  H   H477      1.0  0.54683  0.54151  0.14085  1.0000
  H   H478      1.0  0.99307  0.57121  0.27464  1.0000
  C   C591      1.0  0.85763  0.62662  0.01838  1.0000
  H   H479      1.0  0.50432  0.61933  0.20904  1.0000
  H   H480      1.0  0.84561  0.84855  0.53187  1.0000
  C   C592      1.0  0.85308  0.87566  0.45238  1.0000
  H   H481      1.0  0.89612  0.84917  0.41786  1.0000
  C   C593      1.0  0.94843  0.95167  0.48209  1.0000
  C   C594      1.0  0.94631  0.88422  0.60277  1.0000
  C   C595      1.0  0.90413  0.82149  0.46541  1.0000
  C   C596      1.0  0.97752  0.93875  0.53533  1.0000
  C   C597      1.0  0.95397  0.81060  0.58712  1.0000
  H   H482      1.0  0.93215  0.85870  0.55507  1.0000
  H   H483      1.0  0.92279  0.77336  0.38486  1.0000
  H   H484      1.0  0.94519  0.64290  0.40417  1.0000
  H   H485      1.0  0.97533  0.71260  0.41622  1.0000
  H   H486      1.0  0.83685  0.67275  0.46240  1.0000
  C   C598      1.0  0.88917  0.65315  0.43279  1.0000
  H   H487      1.0  0.88192  0.96364  0.48052  1.0000
  H   H488      1.0  0.95290  0.95653  0.45632  1.0000
  C   C599      1.0  0.94522  0.70428  0.42667  1.0000
  C   C600      1.0  0.83868  0.87559  0.48444  1.0000
  C   C601      1.0  0.85686  0.84858  0.50703  1.0000
  C   C602      1.0  0.88562  0.84866  0.44283  1.0000
  C   C603      1.0  0.92326  0.73326  0.44617  1.0000
  H   H489      1.0  0.51638  0.60234  0.67255  1.0000
  C   C604      1.0  0.90277  0.95075  0.52920  1.0000
  H   H490      1.0  0.97687  0.76910  0.62422  1.0000
  C   C605      1.0  0.88932  0.82148  0.49755  1.0000
  C   C606      1.0  0.98420  0.78392  0.48510  1.0000
  H   H491      1.0  0.86626  0.74311  0.47418  1.0000
  C   C607      1.0  0.92818  0.66455  0.41987  1.0000
  H   H492      1.0  0.98020  0.85075  0.49588  1.0000
  H   H493      1.0  0.90270  0.80025  0.51518  1.0000
  H   H494      1.0  0.87592  0.62239  0.42731  1.0000
  C   C608      1.0  0.97068  0.83290  0.64196  1.0000
  C   C609      1.0  0.94289  0.85194  0.57938  1.0000
  C   C610      1.0  0.88409  0.72154  0.45919  1.0000
  P   P21       1.0  0.94510  0.78525  0.45329  1.0000
  C   C611      1.0  0.93755  0.94344  0.54945  1.0000
  C   C612      1.0  0.96938  0.80309  0.41610  1.0000
  C   C613      1.0  0.85754  0.98475  0.59719  1.0000
  C   C614      1.0  0.79737  0.96596  0.63020  1.0000
  C   C615      1.0  0.87893  0.94849  0.60728  1.0000
  C   C616      1.0  0.86719  0.68159  0.45252  1.0000
  H   H495      1.0  0.81350  0.89660  0.49177  1.0000
  C   C617      1.0  0.96927  0.97368  0.61163  1.0000
  H   H496      1.0  0.99786  0.71720  0.47997  1.0000
  C   C618      1.0  0.90842  0.95563  0.49577  1.0000
  H   H497      1.0  0.96168  0.89858  0.65287  1.0000
  C   C619      1.0  0.85888  0.92108  0.62913  1.0000
  H   H498      1.0  0.95207  0.78593  0.56881  1.0000
  C   C620      1.0  0.95966  0.87428  0.63429  1.0000
  C   C621      1.0  0.96969  0.80558  0.35708  1.0000
  H   H499      1.0  0.76581  0.97267  0.63881  1.0000
  C   C622      1.0  0.81830  0.92988  0.64051  1.0000
  P   P22       1.0  0.93182  0.93766  0.59293  1.0000
  H   H500      1.0  0.87129  0.95317  0.53881  1.0000
  H   H501      1.0  0.83900  0.89669  0.43489  1.0000
  H   H502      1.0  0.80275  0.90865  0.65720  1.0000
  C   C623      1.0  0.96803  0.80111  0.61834  1.0000
  H   H503      1.0  0.87418  0.89281  0.63743  1.0000
  C   C624      1.0  0.95109  0.79247  0.38604  1.0000
  C   C625      1.0  0.98286  0.94268  0.50182  1.0000
  S   S84       1.0  0.99863  0.69361  0.34912  1.0000
  S   S85       1.0  0.68397  0.96676  0.67095  1.0000
  C   C626      1.0  0.99489  0.82111  0.50197  1.0000
  C   C627      1.0  0.81698  0.99328  0.60853  1.0000
  H   H504      1.0  0.98140  0.82549  0.66621  1.0000
  H   H505      1.0  0.58569  0.93748  0.67704  1.0000
  C   C628      1.0  0.54323  0.76233  0.76543  1.0000
  H   H506      1.0  0.74234  0.51078  0.69549  1.0000
  Fe  Fe43      1.0  0.93544  0.93691  0.98777  1.0000
  S   S86       1.0  0.90254  0.91375  0.94209  1.0000
  C   C629      1.0  0.63979  0.76601  0.00035  1.0000
  S   S87       1.0  0.59884  0.57308  0.73232  1.0000
  Fe  Fe44      1.0  0.67487  0.82771  0.91015  1.0000
  S   S88       1.0  0.62683  0.87782  0.90114  1.0000
  S   S89       1.0  0.72022  0.83130  0.95275  1.0000
  Fe  Fe45      1.0  0.63610  0.76799  0.85880  1.0000
  S   S90       1.0  0.58546  0.81461  0.84576  1.0000
  S   S91       1.0  0.64128  0.69704  0.85014  1.0000
  Fe  Fe46      1.0  0.63810  0.86299  0.84804  1.0000
  S   S92       1.0  0.64574  0.92377  0.81924  1.0000
  Fe  Fe47      1.0  0.57855  0.82628  0.89958  1.0000
  H   H507      1.0  0.78826  0.75509  0.79319  1.0000
  S   S93       1.0  0.68943  0.81545  0.85758  1.0000
  S   S94       1.0  0.62558  0.77715  0.91217  1.0000
  C   C630      1.0  0.65653  0.93458  0.77783  1.0000
  C   C631      1.0  0.66450  0.90273  0.75502  1.0000
  C   C632      1.0  0.67301  0.91317  0.72244  1.0000
  H   H508      1.0  0.52457  0.92917  0.90847  1.0000
  H   H509      1.0  0.54819  0.52767  0.87406  1.0000
  H   H510      1.0  0.66431  0.87015  0.76248  1.0000
  C   C633      1.0  0.92001  0.71046  0.99061  1.0000
  C   C634      1.0  0.52302  0.88203  0.97269  1.0000
  C   C635      1.0  0.54821  0.92116  0.71887  1.0000
  H   H511      1.0  0.68228  0.53876  0.72715  1.0000
  C   C636      1.0  0.60693  0.60827  0.76538  1.0000
  C   C637      1.0  0.61473  0.65121  0.75945  1.0000
  C   C638      1.0  0.62357  0.67946  0.78523  1.0000
  C   C639      1.0  0.62453  0.66489  0.81716  1.0000
  C   C640      1.0  0.61562  0.62226  0.82304  1.0000
  C   C641      1.0  0.60687  0.59406  0.79739  1.0000
  H   H512      1.0  0.61497  0.66240  0.73471  1.0000
  H   H513      1.0  0.63115  0.71202  0.78029  1.0000
  H   H514      1.0  0.61563  0.61094  0.84763  1.0000
  H   H515      1.0  0.60086  0.56118  0.80237  1.0000
  C   C642      1.0  0.77060  0.85465  0.94929  1.0000
  C   C643      1.0  0.79514  0.86037  0.97735  1.0000
  C   C644      1.0  0.83547  0.87878  0.97553  1.0000
  C   C645      1.0  0.85169  0.89126  0.94551  1.0000
  C   C646      1.0  0.82728  0.88515  0.91742  1.0000
  C   C647      1.0  0.78677  0.86715  0.91930  1.0000
  H   H516      1.0  0.81470  0.51489  0.71817  1.0000
  H   H517      1.0  0.52817  0.92948  0.01038  1.0000
  H   H518      1.0  0.83965  0.89462  0.89412  1.0000
  H   H519      1.0  0.76816  0.86282  0.89753  1.0000
  H   H520      1.0  0.67088  0.61861  0.91046  1.0000
  C   C648      1.0  0.74478  0.70496  0.80409  1.0000
  H   H521      1.0  0.73204  0.56599  0.94641  1.0000
  H   H522      1.0  0.51191  0.99197  0.77482  1.0000
  H   H523      1.0  0.58263  0.86208  0.76434  1.0000
  C   C649      1.0  0.77561  0.63630  0.81402  1.0000
  C   C650      1.0  0.74019  0.66220  0.81115  1.0000
  C   C651      1.0  0.83396  0.58407  0.86709  1.0000
  C   C652      1.0  0.84053  0.64266  0.98963  1.0000
  C   C653      1.0  0.65596  0.55780  0.88971  1.0000
  H   H524      1.0  0.55551  0.52264  0.95863  1.0000
  H   H525      1.0  0.78280  0.85076  0.00062  1.0000
  H   H526      1.0  0.59768  0.86399  0.00110  1.0000
  H   H527      1.0  0.70576  0.67038  0.00959  1.0000
  S   S95       1.0  0.98350  0.98905  0.98551  1.0000
  H   H528      1.0  0.67900  0.88835  0.70491  1.0000
  C   C654      1.0  0.72153  0.57741  0.96982  1.0000
  H   H529      1.0  0.60564  0.78808  0.75960  1.0000
  C   C655      1.0  0.86885  0.56809  0.88361  1.0000
  C   C656      1.0  0.95728  0.73377  0.98750  1.0000
  C   C657      1.0  0.88175  0.72687  0.97936  1.0000
  H   H530      1.0  0.91090  0.51531  0.88893  1.0000
  H   H531      1.0  0.82246  0.61518  0.87331  1.0000
  H   H532      1.0  0.73238  0.63037  0.87532  1.0000
  C   C658      1.0  0.57253  0.79509  0.76276  1.0000
  H   H533      1.0  0.55309  0.71572  0.83540  1.0000
  C   C659      1.0  0.50983  0.90324  0.00111  1.0000
  H   H534      1.0  0.70892  0.64929  0.81423  1.0000
  C   C660      1.0  0.82022  0.69594  0.80023  1.0000
  H   H535      1.0  0.67897  0.90613  0.97459  1.0000
  C   C661      1.0  0.65823  0.93164  0.98162  1.0000
  H   H536      1.0  0.65549  0.95653  0.93319  1.0000
  C   C662      1.0  0.51654  0.84648  0.76914  1.0000
  C   C663      1.0  0.52837  0.93607  0.74719  1.0000
  H   H537      1.0  0.80214  0.70485  0.86829  1.0000
  C   C664      1.0  0.73240  0.72876  0.92800  1.0000
  C   C665      1.0  0.74797  0.72166  0.89675  1.0000
  H   H538      1.0  0.85534  0.52175  0.00078  1.0000
  H   H539      1.0  0.53156  0.65089  0.80599  1.0000
  C   C666      1.0  0.78826  0.52613  0.73237  1.0000
  H   H540      1.0  0.98530  0.79202  0.97140  1.0000
  C   C667      1.0  0.52092  0.70448  0.83702  1.0000
  H   H541      1.0  0.62874  0.55290  0.90502  1.0000
  C   C668      1.0  0.76064  0.55729  0.78210  1.0000
  H   H542      1.0  0.74565  0.73022  0.97883  1.0000
  C   C669      1.0  0.67989  0.59465  0.89292  1.0000
  C   C670      1.0  0.66595  0.98729  0.73521  1.0000
  C   C671      1.0  0.54652  0.94322  0.86020  1.0000
  H   H543      1.0  0.82676  0.54609  0.77238  1.0000
  C   C672      1.0  0.88395  0.52786  0.87608  1.0000
  C   C673      1.0  0.82894  0.61425  0.96473  1.0000
  C   C674      1.0  0.79976  0.70945  0.95100  1.0000
  H   H544      1.0  0.72777  0.72650  0.87589  1.0000
  C   C675      1.0  0.62057  0.51022  0.96984  1.0000
  C   C676      1.0  0.55935  0.83704  0.76511  1.0000
  H   H545      1.0  0.88428  0.58680  0.90229  1.0000
  C   C677      1.0  0.72482  0.57182  0.84842  1.0000
  H   H546      1.0  0.85413  0.88295  0.99730  1.0000
  C   C678      1.0  0.72007  0.55619  0.76857  1.0000
  C   C679      1.0  0.81566  0.65315  0.80759  1.0000
  C   C680      1.0  0.64478  0.96003  0.95805  1.0000
  H   H547      1.0  0.73142  0.94544  0.01180  1.0000
  C   C681      1.0  0.51914  0.92503  0.88267  1.0000
  C   C682      1.0  0.56918  0.94913  0.69834  1.0000
  H   H548      1.0  0.85118  0.70894  0.79546  1.0000
  H   H549      1.0  0.91818  0.82105  0.95093  1.0000
  H   H550      1.0  0.55352  0.72985  0.76405  1.0000
  C   C683      1.0  0.72048  0.62084  0.97544  1.0000
  H   H551      1.0  0.69334  0.56871  0.78175  1.0000
  C   C684      1.0  0.91880  0.78992  0.96165  1.0000
  H   H552      1.0  0.58548  0.79374  0.97747  1.0000
  C   C685      1.0  0.81567  0.70332  0.91950  1.0000
  P   P23       1.0  0.83266  0.69904  0.98568  1.0000
  H   H553      1.0  0.73012  0.64210  0.95644  1.0000
  C   C686      1.0  0.78976  0.70929  0.89250  1.0000
  H   H554      1.0  0.97898  0.98228  0.86608  1.0000
  H   H555      1.0  0.55119  0.89212  0.96017  1.0000
  C   C687      1.0  0.71448  0.60147  0.87262  1.0000
  H   H556      1.0  0.82546  0.54906  0.94948  1.0000
  H   H557      1.0  0.84807  0.69383  0.91590  1.0000
  H   H558      1.0  0.63477  0.73528  0.98938  1.0000
  C   C688      1.0  0.66651  0.52782  0.86608  1.0000
  C   C689      1.0  0.75826  0.72333  0.95502  1.0000
  C   C690      1.0  0.70106  0.53459  0.84574  1.0000
  H   H559      1.0  0.92117  0.68040  0.00270  1.0000
  H   H560      1.0  0.85245  0.78051  0.95603  1.0000
  C   C691      1.0  0.88156  0.76668  0.96455  1.0000
  H   H561      1.0  0.70054  0.73964  0.93137  1.0000
  C   C692      1.0  0.83434  0.57082  0.96872  1.0000
  H   H562      1.0  0.81528  0.62512  0.94237  1.0000
  H   H563      1.0  0.82797  0.78444  0.01371  1.0000
  C   C693      1.0  0.81413  0.55997  0.84270  1.0000
  C   C694      1.0  0.67370  0.95545  0.71235  1.0000
  H   H564      1.0  0.84327  0.63326  0.80796  1.0000
  H   H565      1.0  0.71711  0.72479  0.80257  1.0000
  C   C695      1.0  0.61219  0.79893  0.99346  1.0000
  C   C696      1.0  0.54010  0.93683  0.82694  1.0000
  P   P24       1.0  0.76897  0.58079  0.82167  1.0000
  C   C697      1.0  0.82864  0.51903  0.83610  1.0000
  C   C698      1.0  0.78481  0.72192  0.79877  1.0000
  C   C699      1.0  0.71366  0.53943  0.73747  1.0000
  H   H566      1.0  0.54761  0.88807  0.71245  1.0000
  C   C700      1.0  0.95663  0.77356  0.97321  1.0000
  C   C701      1.0  0.74760  0.52391  0.71953  1.0000
  H   H567      1.0  0.62258  0.53624  0.98694  1.0000
  C   C702      1.0  0.56983  0.99219  0.70553  1.0000
  C   C703      1.0  0.52815  0.97959  0.75373  1.0000
  C   C704      1.0  0.52011  0.52576  0.85922  1.0000
  H   H568      1.0  0.98652  0.72133  0.99686  1.0000
  C   C705      1.0  0.79489  0.54338  0.76333  1.0000
  C   C706      1.0  0.61731  0.99260  0.96642  1.0000
  C   C707      1.0  0.85108  0.55535  0.99760  1.0000
  S   S96       1.0  0.51485  0.82040  0.92472  1.0000
  C   C708      1.0  0.70847  0.54932  0.99398  1.0000
  H   H569      1.0  0.56245  0.95012  0.81005  1.0000
  H   H570      1.0  0.70888  0.51099  0.82766  1.0000
  C   C709      1.0  0.65729  0.97684  0.76773  1.0000
  H   H571      1.0  0.57358  0.96123  0.86847  1.0000
  H   H572      1.0  0.65107  0.00168  0.78520  1.0000
  C   C710      1.0  0.50858  0.66780  0.82045  1.0000
  C   C711      1.0  0.60386  0.99728  0.99853  1.0000
  C   C712      1.0  0.61911  0.83888  0.00693  1.0000
  H   H573      1.0  0.50822  0.67036  0.70183  1.0000
  C   C713      1.0  0.64516  0.93627  0.01401  1.0000
  H   H574      1.0  0.85260  0.99108  0.93359  1.0000
  H   H575      1.0  0.52267  0.59090  0.84642  1.0000
  C   C714      1.0  0.50624  0.91217  0.81589  1.0000
  C   C715      1.0  0.70661  0.63669  0.00529  1.0000
  C   C716      1.0  0.50344  0.60301  0.69688  1.0000
  H   H576      1.0  0.50172  0.75494  0.86904  1.0000
  C   C717      1.0  0.50561  0.56164  0.84323  1.0000
  C   C718      1.0  0.00055  0.99548  0.88384  1.0000
  C   C719      1.0  0.58240  0.50258  0.95387  1.0000
  Fe  Fe48      1.0  0.58670  0.50326  0.74088  1.0000
  C   C720      1.0  0.86388  0.50342  0.85230  1.0000
