data_image0
_chemical_formula_structural       SCHPCHCHFeS2FeS2FeSFeS3FeSHCSFeSFeSHSH2CHFeS2FeS2FeSFeS4HFeSC6H4C6H5CHC2HPHC5H3C8H4C6H4C6H4C4H4C3H2C5H2C6HC2H2CH2C2FeHCFeCH2C2HC4HCPCHC3HCH2C2HCH2C5HC2HCH4CHC8PH2C3H3S2C7PH2CHC2H3C4H2C2H2C4HCFeH2C2HCHSC4H6CHCHC6HC7SHC2H2C3HCH2C2H6CH5PC6PC13HCH7CH6C2HCH2CH4C3H2SH2C14H11C4HC2HCH2C5H2C2HCHCSHCH2C2HCHC2H4CH3C2HSHCH2FeS2FeS2FeSFeS5C2HCSHCH2CHCH2C2HFeS2FeSFeSFeS4C2SH4CHC8H3C6H4C7H2SFeSCHSC8H4C6H4PC9H3C4H4CHC2PCH2CHC2H3SHSHCH2C2PC2H4C5H2CH2C2HCSCH2CHCHC3H2C3SCHCHCHFeH2C7PCFeCHC2HC7H14C2PH2FeC2HC2H3CHPHCHC2FeC2S2HC2H3CH6C8HC2H2C5HSCH3CHCHCH2SHC2HCFeCHC13H2CH2CHCH2CH5C11PC18H7CH12C6PCH3CHFeH2C5HC2H5CHSC2SH6CH2CHC3HCHC2HCHCHCH3CH5CHC2HC2H3C2H3C2HPCH2CHSFeS2FeS2FeSFeS4H2C2FeCSCH3SHCFeS2FeS2Fe2S3C7H2C6H6CH3C6H4C6H2C2HC5H2C2HCHC2SCFeHC4H2CH3CHSHCPH3C2H2SCH2FeHC2HC3HCH4CH2FeC3HC2HSC9HCH5FeH2C2PH2CHC2HCH2C2HC2H5CSH3C8HPC4HCH3C2HC8H3C2HCH10CHCHC2SC2HC5H2CHCHCH3CHCHC2SHCHCH2C10PC14H15CH4CHPH2CHC2FeCH2C3H2SCHC2HC7PH2CH2C2H3C10HCH4CHC2HCHCHC2HC2HCH2C6HC5H2CHFeHC3HSHCHCH2CHC2FeS2FeS2FeSFeS3CSHFeS2FeS2FeSFeS3H2C5H5C6H4C6H6CSHC2HC9H3C5H3C7H5C5H3C6H7CHC6PC13H2C2H7C2H8FeHC7H3CH2C2HC2HCH2CH2C2HSH3CHCHC2HC2H2FeC3HC7PC13HCH2CH4CH6CH4PCH4CHC10H3CH3C3HC6H2CPH5CHC3H2C2H3CHCH4CHC2HPHC2H2CHC2H4C4PHC2H2C2H2C2HCHSH3C5HCSH2CHC4H5C2HC3HC2HC2PC2HSHC13HCH14CH3C4H3C4HCH4C3HCHCH5C2HCHSC2H2C4FeHCH3FeS2C2PFeC2SFeS2FeS2FeSFeS3FeS3FeHFeS4FeSFeSFeH2FeS2HFeSFeSC2H3C2HPHCH3C6H3C4H2C4H2C4H2C6HCH2C2SHSC6H4C6H4CHC5FeH2SC3PC4H3CH2SCFeCHC9PC18H17CH6C2HC7HC3FeHSC4HCSH2SH2CH3C6PC18H22CHCH2C2H2C2H2CH2SCH2CSH2FeH5CH2CHC3H3C3HCHSH3C4HCHCHCH4C2HSC3H5C6SCH2FeC6HC2HCH8CH4CHC4HC2H2C2H6CHC2HC10HSC4HC4H5CHC4H2PFeHSHC8HC6SC2H2C2H3C2H4SH2C6PC14HC2H8CH7CHCHC2PC8H9C3PC3HC6H2CHC2H2C2H4C2HCHCH3SHFeHCHC2HC2H3C2H4CPC12H6CH3CHC2FeC2HCHSC2H3CH2SC2HC4HCHC3HSH2FeS2C2HPHCSHFeS2FeS2FeSFeS2HS2CSCHC3FeS2FeS2FeSFeS4HCFe2SFeS2FeSFeSFeSHCFeC2HC2HFeSH2SC2HC2HC8H6C5HSH3C6H2C5H5C2HC3HCFeHSHC6H4CSHC6H4C6H4C6H3CHCH2C6H4CHSC4PC13HCSH13C3H4C7HC5PC12HCHC3H15CHCH2C3PC9HC4H10CH5C3H2C3HCHC5SH2CSC3H2C2H2CHC7H2C4H4C2H3C3HC5H5CH3C3H2C3SC3HC3HC2H3SPHCH2C2HC6PC18HCH5CH11C6PC11H10C6SH4C2HCHCHC4PCHCHCH3CH2SC5HC4HCHCSHC2HCSCHC2HCH2CHC2FeH2C2FeC2H4C2HPHFeHC2SHCSHCFeC7HC3H2CHC2H2CHC2HC3HCH6C3H3PHCHPCFeC2H2SCH2FeHC3HC2H3C6HC7SCH2CHC6HC3HC2HCHCH2CH3CH2C2H3C2H2C3H4CHCH10CHSHC2HCH2CHPHCH2CHCHC6HCPHC3HCHCH2C2HCHCSHSCH2C4HCFeHCH2C6H3C2H3CH3CSCH4C5HC2HSH2CH3C3H3CHCHCH2PSHCH2C4HCPSCH2SHCHC2HCHC3PCSCPC2HSC3FeS2FeS2FeSFeS3FeS2HSFeSFeS2FeS2CHFeSFeS3FeHFeS2FeS3C4SH4FeCSHFeSHSC2HCHCHC7H3CSH2C4H2SC6H4C6H4C6H4C6H4PSHC5H3C2HCHC2H5CHC6H4C2HC2HC3H2PHCHCHC3FeH2C2HC3HC3H2C2H5C2SH2PC4H2C12H6CH10CSC3PC5HC6H10CHCH2CHC2HC2HC3SFeCFeCFeCHC2H3C4H2CH4CH4C8PC18H8CH8C2HC3HC2FeH4C7PC18H6C2H13CH2C2H2C18HCHCH5CH2CPC2HCFeC6PC9HC8H6CH5CH8PC3SC2HC11FeHC2SH11C3H3C3HC6PC16H2CH13C2HCH3C2SHCFeCHC3HC2H3SHC4FeC2H4C4H2C2H9C5SCH2CHC2H3CH2SHCSCHCHCHC3H2FeC2H2C2HC3HSCSH5C3HCHFeHC2HC3SC2H4C2HPHC2H5CSC3H2CSCHC3HCHCHCH2SH2C3H2C4SHCHPC3HCH2CH3CHC2H3C2HC2HCHC4SH2C3SH2CHCHFeHC2H4SC4HCHCH5C2HC2SCHCHCH2SH2C4HCH2CH2C2HSC2PSC4HFeS2CPCHFeSHSFeS2FeSCFeSFeS3FeS2FeSCFeSFeS3FeS2FeS2FeS2FeSFeSH2SFeSCFeSFeSCHSHC3FeSHSCH2SHC2H2C2H2C6H3C6H3C6H4C6H4C6H4C6H5CHC3HC5H4C6H4CSC2HCH2C6H4C6PC4HC3H3C7H6CH5PFeH6CHC4PC12HCH11SCFeC2HCH2CFeCH2C2HC5HC2PC14HCHSH10C2HCPCH4CHC2H3CHC2H2CHPHC2HCHC6HC8HCH2C4HCH2CHC5H3C2H5C5FeHPC10H3CH7C6PC9H12CHS2C2HC3H3CH2CH2SH3CH2PC3HC5H2FeC6SCHCHCH5C3SH3C5H3CHC5H6CH4CH2PHC3H2CHCHCHC3HC6PC7HCPC5SCSH11CHCH4CH2C5H3CHC3H3C3PCHC9H2C3HC2HC2H2CHC3HCH3FeC4SCHC3HCH2C2H2CHCFeHCHC3H2CH2CHCH2CHCHFeHC2HC5SC2FeCHC6SCPC4SH2SHC2H3CHC3H2C4HC4HC2HCHCHC2HCH2C3HCHCSHCHC3HCH2CSH4CHCHCHCHCH2C2HPH2CSHSHC2HCH3SHCHCHCHC2SCHC2H2C2H5SCSC3H5FeCH3CH3CSC3HC2HSCHFeS2H2CH2FeS2C2H2FeSHSH2CFeS2FeSCFeCFeHS2C3FeS2FeHCFeSCHS2CHCHC4HCH2C3H2C2H2CH5C2HC3HC3PHC3HC6H6C8H2C6H6CH3SH5C2HCH7CHCFeCH3CHCHCH2CHC4HCHC4H2CH2C4HC2HCH2CSC5PCHC6PC5FeC3SC3HC2SCH7CHC2H4C2HC2HC3HCH2CHCH2C2HCHPC4H2C2H3CHCH8CHCHCH2C2PCPHC6HCHC2H3C3H4SCHC7HCH2C3SH4C5HCH2C10PCFeC2H2C2H2CHC3PHC3HC2H2CHCHC3HCH2CSHCS2HC2HCFeSH2CFe2SCFe2S2Fe2CS2FeH2FeS2FeSFeS3CHSCSC3HCHCHCHC5H4CHCH2SCH3C6H6CHC9H4CH5C2HCH3CHCH3SHCHCH2CHCSCH2CHC3HC2H2C4HSCHC2H2C2HCH2CHC7PC20H19C2H3CPCHCH3CHC5H5PCHC5HC6PC10HC4H2CHCH2CH6SCH4SHC2H4C2SFe2SFeS2Fe3S3FeS2CHCFeH3S2CSC5H6C2SH3CHCHC3HCH2CFeHC6H5C2HC9H5C4HCHCHC2HC4HCHCHC2H2SCH2CSHCHPH2FeC3SC2HCHC6PC18H20C7H2CH4C2H2CHCH2CH2CHPCH2PHC4H2C2HC2H4C3HCH2CHC2H2C4HCHC3HC13HSHSCSH3C2PH3CH7CHC4HCHC2HC5H4PC3HC3H2FeCH4CFeHCPHC2HSC3FeHSCHCPC3FeS2FeSHFeS2CSHFeS2FeCHFeHFeHS2CSC2HC4H2C6H7C4HC3HC6H4C2HC2H2C9H5CH2C2H2C2HCFeCHC2H2C2HCH4CHSHCHSHC7H3CHCH4CHPH5CH3C2HSH2C3H2SHC2H3CH2CH3C4H5CSC2FeH3CHC6H2C3HPC2HC4HC2SC3HC5H2CH5CHC2H2C3H2C2HCHSHCHCSHFeS2FeS2FeSFeCS3FeS2FeS2FeSFeS3C3PFeS2FeS2FeSFeS3CSHFeC2H2C6HC2HC6HCH2C4H4C6H4C5SH2C2H3C8H4C6H4C3HCH3C3H3C6HC2HC3H2C6H4CHSCH3CHC2H2CSHC4HPC13H2C4HSHCH15C2HCH4SHCHCHC3PCH2CH2CSC2HCHCHCSHCHC3HCH2P2C4HSC5H6CHFeC4H6C2FeCHCHC4SHFeC7SC3FeC2HC2H6SC7PC18H20C2H2C2PC4HC13H8CH2CHCH6C2HSC3H7C5HCH5CHCHC4PC10HC7H10C2SHC2HC2SHC3H2C3H2C2HFeC6H3C7PHC3H2C2H2SCHCPSC2H3C2H2CHFeHCH2CH3CH3C3HC2FeC3HC4HC2HC2HC2H2SHC3HCHC2H2CH4CFeH2CHCSCH3CHC2H3PHC2HC3HC2HCH2CH2C3SPCH2CHCH2CH2CHC2HCH6CHC4HC2HCHC3SH3C2H5SH3C2HC2SH2CH3CSCHCFeHC5HFeH2C3HFeHCH3C4HCHCHCSC3H3C3FeS2FeS2FeSFeS3H2C5SFeCSH2CS2FeS3FeSFeS2FeS2FeS2FeSFeS3C2SCHC2HFeH2C4HFeCH3C7H4CHC2HC6H4C6H3C4FeHC4H2CH2CHCH2C3HC7H5C6H7C3HCH3CHC2HC2SCSCSC6HCHCHCHC3HC2H2C2H2CHPCHC3SPC9H2C3H8CH3C3HC5H4CH2CSCHCH4PCHC5H5CH4C3SHC2HC2HC4HC2H2C4H2SC3H2CH4CFeC2H2C2HCFeS2P2H2C2HC2H3C2HC7PC18H18C3H2C2FeHCHC2H3CPHCHC2HSHC2FeH2CH2C2FeC2SC2H2C3SC4HSCH2C6PC15H17CHCHC2PC5SHC12H5CH7SH4CHCHC6H6SHC4H2SH4PCHCH2C3H4C2HC2H2C4H2CHC3HC4HCHC3H4CH2CHPCH2CHCSCHC3H3C6HC2FeC2HC2HCH3C3H2CHCH2CHCH2CH3CH3CHCH2CFeCH3C2HCH2C3HCHC2H3CH2Fe2C3H2C4HC2HC3SHC3H2CFeS2FeSCHCHCHCFeS2FeS2FeSFeS3FeS2FeS2CHFeS4C2SH2CHFeS2FeS2FeSFeS3C7H3C9H4C9H4CHPHC2FeHC4HC3H2CH2CH2SH2C6H4CH4C3H3CHC9H4C10H9C6PC18H18C2HCHC7H6C2H5SC3H2SC2HCPC13H2CSC4H11C3H2C2H3C2H2CH4C3H3CH2C2HC3FeCH3C2H5C2HFeCH5C9HSH3SCH2CHCH6C9H4SC3HCHFeHC2H2CHCH2C3PC2H3C7H3C3H7CH2C7PC12H7SH9C4PC13SH2C2H2CHCH6CH4CFeH2CHC2H4C2HC4HC2HC3HCH2CH6CHCHCH2CH3C2SFeHC2HC2HFeSCSHC2HCHC3HC7HC2HC3PHCH5CH2C2HC2HCP2C3H3C4HC3H3SPC2HCHPCFeH2CH2CHCHCH3C2HC2HC2H2C2SC2FeC2HCSC2HC3HC5H2SFeSHC2HCH2C3SHC3SC2HCHCHCHC4H2C2HCHSCHC4H3CPCH5C2H2CH5C2HSC2H2SHC3SCFeS2FeS2FeSFeS4CPHPFeS2FeS2FeSFeS3H2SHFeSHCFeS2FeS2CSCHSHCHCHSH2CH2CHC2SCHCHC6H3SC2HC7H4C2H3C6H4FeHC3H2C6H4C2H3C6H4C6H4C7H2C6H3C9HC2HCSH4CHCSC7HC8HC2HCPC3SHC8HCHC3HCHCSCH5CSH4CH3C2HCH2C2HCHCH2CSCHCHFeCH2C2HCH5CSHCFe2C2H6CHCSC2HFe2CHCHCHCH3CSHC3HCHSHC2H2C6PC15H17C3PC18H4C2H11C3PC11HCHCH8C6H10SFeHC2H2CHCHCPHCHC2HC2H2CHFeCHC7HC4H3C3HC5SC3SC5H2CHCHCH2CH2C6PC10HC7H12C2H6PC3PC2H3C9H5CHPH7C3HC3H2CHC2HCH5PCHC5HFeH2CSHCHC3HC2HCHCSC3H2C2H2CHC3H2PCSHC2H3CHCSCHCHFeHC3SHFeH6CHC2H2CSCFeHCHFeS2FeS2FeSFeS2FeSC2HCFeSC2FeSFeSCFeS2FeS2FeSFeS2FeS2CFe2SHSH2S2CHCHC6H4C6H2CHC6H4SC6H2C6H6SH4C9H3C2HC4H3C8H6CHC4HCH2C3HC2SC2HC2PS2C6PC7H4C4H2CH10CH2C2H3CFeHSCHC3H2C4HCH4SH2CH3SCH2C3H2C3HC2H2C3H2CH2C4HC2H4CH3C6PC8HFeC5H2CH10CPH4CH3C5HC2H8CH3CH2C2H2CFeHCHCHC6PC9PH2CHFeC3HCH2C3HCH2CHC5H3CHCHC3H2C4H3C5H3CH4C4H5CH4CHSCHCSHCHC2PHC3H3C3HSH2CHCH3C3HC3HCHCHCHC4H2CH2C7HCHCHPC3HC2HPHCH2C3H2SCFeS2FeS2FeS3FeSHFeS2FeSFeS3FeCSHFeHSFeCSFeCHCS2FeSFeS2FeS3FeHS2FeH2CSCHSHPC2HCHCHCHSHC6H4CHC2HC6HSHC6H4C7H4C2HCHCHC6H4C6HPH2C6H4C6H4SCHSC2H2CHC6PCHCH4C6S2C3H3CHC5H3CHC4HC6PC18H20FeH4CHCH2C3H6C4HFePHC3P2C3H2CH2C3HCHCHCH2C2H2C10PC3H3C3H2CH4CH2CHCHC2H10C2HFeC8H5CH5C4HCHC2H3CH2C3H2CH5C4H3CHC2HC2HCHPH2C3H2C2SHCHCHCH2CH8C2HFeH4CHC2SCHCHCHFeHCH2SCHC2HC6PC7HCHC4SH2CHCH3C5HC3H4C2HCHC4HCH4CSCH4C2H3CSCH2C3HC5HC2HCH2CHSCHCHSFeC2SFe2SHCSHFeSCFeS2FeS2FeSFeS3FeCSC4FeS2FeSFeS3FeS2HSCFeSFeS2C2HC2HC2H2CHCHC8H4CHCHC6H4C6H4CH4CH2C9H2C6H4C6H4C5H3C2HC5H2C2HC2HC3H2SC2H4C3H2CHSHCHC2H2C2HCHC2H2C2H2CHCH2FeHC2HC3HC6PFeC6H2CSCSC2HSCH4CH5PH2CHSHC2FeH3CHPC9H2C3H2C4HCH5CS2CHCHCHC3HCH3PH3CH4CSHC2HC6HSHCHC3PHC4HCH7C3H3PC3H2CHC2HC3H3CH5CH2FeH4FeHCH6C3PC3HPC14HCH3CH12C6PC18H3SC2H2C2HC2H2C3HFeH2C4HC2HC2H2C3H2CHC5H3C5H3C2HSCHCHCHCH3C2HPHCFeC3HC2HCH2C3H3C2HCH3FeSC2SHFeS2FeS2FeS2FeSFeS3FeS2FeHSCFeS3FeSHSFeS2FeHFeS2FeSFeS2FeSFeS3FeCSC6H4C6H4CH3C7H6C6H4C6H4C6H4C6H6SC9HCH2PC2H4CHCHC2H2C2HC2HC4HC2PC14H2CH11CHC5HPC3H3C2HC9H2C7H5C6H4SHCHC2H3FeHC2HCPH5C3HC2H4C2HC7H7C2HC4H4CH2C2HCH4CSC2H2C3H3C2HPC4HSC9H3CH5C2H5C2FeH2C2H4CHCHC6PC18H18C2HCPSH2C5HCH2C3SC3HSHC3H4FeC3HCSHCHC4SC2PCHCH4C4FeHSH2CH3C2HCHCH2C4H2SC4H3C2HCHCHCHC3
_chemical_formula_sum              "S768 C5760 H4608 P192 Fe384"
_cell_length_a       73.4196
_cell_length_b       73.4725
_cell_length_c       73.354
_cell_angle_alpha    74.968
_cell_angle_beta     74.994
_cell_angle_gamma    74.9132

_space_group_name_H-M_alt    "P 1"
_space_group_IT_number       1

loop_
  _space_group_symop_operation_xyz
  'x, y, z'

loop_
  _atom_site_type_symbol
  _atom_site_label
  _atom_site_symmetry_multiplicity
  _atom_site_fract_x
  _atom_site_fract_y
  _atom_site_fract_z
  _atom_site_occupancy
  S   S1        1.0  0.17046  0.26154  0.46067  1.0000
  C   C1        1.0  0.98849  0.31903  0.14224  1.0000
  H   H1        1.0  0.17451  0.06166  0.43037  1.0000
  P   P1        1.0  0.07699  0.06448  0.38977  1.0000
  C   C2        1.0  0.12538  0.32585  0.45896  1.0000
  H   H2        1.0  0.07907  0.34393  0.20460  1.0000
  C   C3        1.0  0.11469  0.04453  0.37914  1.0000
  H   H3        1.0  0.09347  0.35281  0.37073  1.0000
  Fe  Fe1       1.0  0.07266  0.31220  0.26263  1.0000
  S   S2        1.0  0.09618  0.28586  0.26018  1.0000
  S   S3        1.0  0.08006  0.34115  0.25853  1.0000
  Fe  Fe2       1.0  0.04071  0.29027  0.26804  1.0000
  S   S4        1.0  0.06164  0.26203  0.26647  1.0000
  S   S5        1.0  0.00814  0.29507  0.27337  1.0000
  Fe  Fe3       1.0  0.07630  0.27114  0.28506  1.0000
  S   S6        1.0  0.08613  0.25508  0.31260  1.0000
  Fe  Fe4       1.0  0.07964  0.27937  0.24169  1.0000
  S   S7        1.0  0.09086  0.27273  0.21179  1.0000
  S   S8        1.0  0.05389  0.29802  0.28867  1.0000
  S   S9        1.0  0.05753  0.30701  0.24210  1.0000
  Fe  Fe5       1.0  0.16621  0.36039  0.33841  1.0000
  S   S10       1.0  0.13962  0.38404  0.34073  1.0000
  H   H4        1.0  0.12101  0.46847  0.31277  1.0000
  C   C4        1.0  0.06760  0.11096  0.34583  1.0000
  S   S11       1.0  0.14445  0.38887  0.29383  1.0000
  Fe  Fe6       1.0  0.15559  0.40042  0.31354  1.0000
  S   S12       1.0  0.15508  0.43262  0.30507  1.0000
  Fe  Fe7       1.0  0.13085  0.37060  0.32087  1.0000
  S   S13       1.0  0.10135  0.36388  0.32697  1.0000
  H   H5        1.0  0.12217  0.36147  0.22199  1.0000
  S   S14       1.0  0.15615  0.34578  0.32079  1.0000
  H   H6        1.0  0.05245  0.46290  0.33121  1.0000
  H   H7        1.0  0.13189  0.30200  0.34756  1.0000
  C   C5        1.0  0.09684  0.34496  0.38458  1.0000
  H   H8        1.0  0.16161  0.44655  0.25547  1.0000
  Fe  Fe8       1.0  0.09120  0.13070  0.40743  1.0000
  S   S15       1.0  0.06764  0.14725  0.42705  1.0000
  S   S16       1.0  0.11024  0.10469  0.42235  1.0000
  Fe  Fe9       1.0  0.08040  0.15778  0.37131  1.0000
  S   S17       1.0  0.05620  0.17639  0.38788  1.0000
  S   S18       1.0  0.08623  0.16604  0.33885  1.0000
  Fe  Fe10      1.0  0.07675  0.17340  0.40693  1.0000
  S   S19       1.0  0.07797  0.20035  0.41557  1.0000
  Fe  Fe11      1.0  0.04905  0.14879  0.40649  1.0000
  S   S20       1.0  0.01746  0.14796  0.41770  1.0000
  S   S21       1.0  0.10174  0.15694  0.38871  1.0000
  S   S22       1.0  0.07177  0.13002  0.38847  1.0000
  S   S23       1.0  0.16258  0.22718  0.44431  1.0000
  H   H9        1.0  0.09124  0.36935  0.21157  1.0000
  Fe  Fe12      1.0  0.14956  0.25832  0.44475  1.0000
  S   S24       1.0  0.13970  0.27702  0.41791  1.0000
  C   C6        1.0  0.09100  0.19895  0.43319  1.0000
  C   C7        1.0  0.09377  0.21605  0.43620  1.0000
  C   C8        1.0  0.10462  0.21554  0.44961  1.0000
  C   C9        1.0  0.11245  0.19793  0.46044  1.0000
  C   C10       1.0  0.10942  0.18079  0.45771  1.0000
  C   C11       1.0  0.09884  0.18128  0.44401  1.0000
  H   H10       1.0  0.08774  0.22976  0.42789  1.0000
  H   H11       1.0  0.10673  0.22882  0.45174  1.0000
  H   H12       1.0  0.15634  0.47242  0.29815  1.0000
  H   H13       1.0  0.09656  0.16804  0.44197  1.0000
  C   C12       1.0  0.15724  0.06586  0.38667  1.0000
  C   C13       1.0  0.15206  0.06003  0.40668  1.0000
  C   C14       1.0  0.13762  0.07207  0.41749  1.0000
  C   C15       1.0  0.12814  0.08992  0.40833  1.0000
  C   C16       1.0  0.13318  0.09573  0.38830  1.0000
  C   C17       1.0  0.14769  0.08370  0.37751  1.0000
  H   H14       1.0  0.15916  0.04620  0.41383  1.0000
  H   H15       1.0  0.13374  0.06749  0.43299  1.0000
  H   H16       1.0  0.12594  0.10949  0.38113  1.0000
  H   H17       1.0  0.15161  0.08827  0.36201  1.0000
  H   H18       1.0  0.15976  0.34230  0.42156  1.0000
  C   C18       1.0  0.17068  0.23229  0.30269  1.0000
  H   H19       1.0  0.05421  0.03601  0.34778  1.0000
  C   C19       1.0  0.17317  0.04505  0.47118  1.0000
  C   C20       1.0  0.09296  0.34054  0.20861  1.0000
  H   H20       1.0  0.05580  0.11895  0.33881  1.0000
  P   P2        1.0  0.14313  0.26025  0.34695  1.0000
  H   H21       1.0  0.14411  0.02971  0.37083  1.0000
  C   C21       1.0  0.16976  0.32447  0.37804  1.0000
  C   C22       1.0  0.15349  0.32086  0.37424  1.0000
  C   C23       1.0  0.14468  0.30605  0.38646  1.0000
  C   C24       1.0  0.15166  0.29512  0.40289  1.0000
  C   C25       1.0  0.16786  0.29878  0.40684  1.0000
  H   H22       1.0  0.11340  0.11252  0.34619  1.0000
  H   H23       1.0  0.14767  0.32939  0.36187  1.0000
  H   H24       1.0  0.13235  0.30308  0.38318  1.0000
  C   C26       1.0  0.00149  0.25641  0.24612  1.0000
  C   C27       1.0  0.08502  0.11720  0.34050  1.0000
  C   C28       1.0  0.08700  0.23019  0.31934  1.0000
  C   C29       1.0  0.08847  0.21931  0.30576  1.0000
  C   C30       1.0  0.08921  0.19938  0.31167  1.0000
  C   C31       1.0  0.08774  0.19046  0.33121  1.0000
  C   C32       1.0  0.08667  0.20134  0.34468  1.0000
  C   C33       1.0  0.08646  0.22111  0.33872  1.0000
  H   H25       1.0  0.08928  0.22620  0.29071  1.0000
  H   H26       1.0  0.09090  0.19089  0.30115  1.0000
  H   H27       1.0  0.08598  0.19457  0.35971  1.0000
  H   H28       1.0  0.08556  0.22943  0.34925  1.0000
  C   C34       1.0  0.11569  0.26874  0.20096  1.0000
  C   C35       1.0  0.12141  0.27651  0.18126  1.0000
  C   C36       1.0  0.14062  0.27145  0.17149  1.0000
  C   C37       1.0  0.15411  0.25800  0.18121  1.0000
  C   C38       1.0  0.14852  0.25058  0.20103  1.0000
  C   C39       1.0  0.12945  0.25618  0.21096  1.0000
  H   H29       1.0  0.11082  0.28607  0.17338  1.0000
  H   H30       1.0  0.14470  0.27712  0.15621  1.0000
  H   H31       1.0  0.15885  0.24015  0.20864  1.0000
  H   H32       1.0  0.12515  0.24992  0.22607  1.0000
  C   C40       1.0  0.08641  0.34653  0.27781  1.0000
  C   C41       1.0  0.10108  0.35683  0.27391  1.0000
  C   C42       1.0  0.10619  0.36164  0.28898  1.0000
  C   C43       1.0  0.09601  0.35699  0.30793  1.0000
  C   C44       1.0  0.08108  0.34704  0.31177  1.0000
  C   C45       1.0  0.07657  0.34141  0.29682  1.0000
  H   H33       1.0  0.10870  0.36084  0.25924  1.0000
  H   H34       1.0  0.11768  0.36934  0.28584  1.0000
  H   H35       1.0  0.07290  0.34381  0.32630  1.0000
  H   H36       1.0  0.06507  0.33368  0.29989  1.0000
  C   C46       1.0  0.09950  0.04893  0.39453  1.0000
  C   C47       1.0  0.99821  0.28183  0.26299  1.0000
  C   C48       1.0  0.00987  0.26725  0.25363  1.0000
  C   C49       1.0  0.02469  0.16047  0.35223  1.0000
  H   H37       1.0  0.11321  0.05061  0.36436  1.0000
  H   H38       1.0  0.18734  0.38979  0.20366  1.0000
  H   H39       1.0  0.01056  0.24508  0.23897  1.0000
  H   H40       1.0  0.02531  0.26413  0.25241  1.0000
  C   C50       1.0  0.10012  0.10728  0.34990  1.0000
  C   C51       1.0  0.14075  0.25183  0.29440  1.0000
  C   C52       1.0  0.14609  0.31966  0.25446  1.0000
  H   H41       1.0  0.16377  0.38596  0.23474  1.0000
  H   H42       1.0  0.13210  0.42032  0.40870  1.0000
  C   C53       1.0  0.00646  0.13523  0.40783  1.0000
  C   C54       1.0  0.01722  0.12353  0.39483  1.0000
  C   C55       1.0  0.00804  0.11284  0.38800  1.0000
  C   C56       1.0  0.18398  0.36442  0.19635  1.0000
  C   C57       1.0  0.99768  0.17940  0.30265  1.0000
  H   H43       1.0  0.03265  0.12231  0.39045  1.0000
  H   H44       1.0  0.01645  0.10335  0.37839  1.0000
  C   C58       1.0  0.13517  0.40632  0.40502  1.0000
  C   C59       1.0  0.17798  0.28813  0.19216  1.0000
  C   C60       1.0  0.13213  0.03247  0.38272  1.0000
  C   C61       1.0  0.13778  0.31349  0.29482  1.0000
  C   C62       1.0  0.03224  0.20341  0.24301  1.0000
  C   C63       1.0  0.09786  0.09105  0.36458  1.0000
  H   H45       1.0  0.18009  0.20442  0.11975  1.0000
  C   C64       1.0  0.16144  0.46540  0.31132  1.0000
  C   C65       1.0  0.12883  0.31423  0.26511  1.0000
  H   H46       1.0  0.14595  0.35656  0.39119  1.0000
  H   H47       1.0  0.10666  0.36811  0.38919  1.0000
  C   C66       1.0  0.15753  0.36009  0.23140  1.0000
  H   H48       1.0  0.05668  0.23168  0.20516  1.0000
  H   H49       1.0  0.16675  0.29909  0.47270  1.0000
  C   C67       1.0  0.99528  0.18415  0.35975  1.0000
  C   C68       1.0  0.18695  0.27212  0.20412  1.0000
  Fe  Fe13      1.0  0.18157  0.22973  0.46269  1.0000
  H   H50       1.0  0.17580  0.18248  0.45666  1.0000
  C   C69       1.0  0.05380  0.03736  0.40041  1.0000
  Fe  Fe14      1.0  0.14127  0.22137  0.47205  1.0000
  C   C70       1.0  0.16191  0.35382  0.13812  1.0000
  H   H51       1.0  0.17334  0.29038  0.41947  1.0000
  H   H52       1.0  0.18084  0.31827  0.44139  1.0000
  C   C71       1.0  0.12929  0.43155  0.11050  1.0000
  C   C72       1.0  0.06428  0.04835  0.36601  1.0000
  H   H53       1.0  0.17880  0.28778  0.17730  1.0000
  C   C73       1.0  0.15031  0.34322  0.15306  1.0000
  C   C74       1.0  0.03289  0.08966  0.42836  1.0000
  C   C75       1.0  0.12825  0.33136  0.22051  1.0000
  C   C76       1.0  0.04262  0.09670  0.43821  1.0000
  H   H54       1.0  0.07253  0.05681  0.35391  1.0000
  C   C77       1.0  0.04357  0.02549  0.39683  1.0000
  P   P3        1.0  0.18207  0.06709  0.46544  1.0000
  C   C78       1.0  0.10173  0.04037  0.41353  1.0000
  H   H55       1.0  0.00704  0.17015  0.31206  1.0000
  C   C79       1.0  0.12790  0.11508  0.47527  1.0000
  C   C80       1.0  0.13881  0.35141  0.16844  1.0000
  C   C81       1.0  0.13759  0.44778  0.10406  1.0000
  H   H56       1.0  0.01727  0.09297  0.43122  1.0000
  C   C82       1.0  0.13748  0.31222  0.47014  1.0000
  H   H57       1.0  0.08668  0.13005  0.32949  1.0000
  H   H58       1.0  0.03559  0.01597  0.37511  1.0000
  C   C83       1.0  0.01542  0.17818  0.35732  1.0000
  C   C84       1.0  0.13904  0.37018  0.16910  1.0000
  H   H59       1.0  0.11300  0.36624  0.46389  1.0000
  C   C85       1.0  0.00189  0.20178  0.39758  1.0000
  H   H60       1.0  0.01815  0.19659  0.41976  1.0000
  H   H61       1.0  0.99756  0.14565  0.46033  1.0000
  C   C86       1.0  0.15535  0.31817  0.28435  1.0000
  C   C87       1.0  0.09349  0.32631  0.39198  1.0000
  C   C88       1.0  0.15258  0.38469  0.38354  1.0000
  C   C89       1.0  0.10356  0.32162  0.21079  1.0000
  C   C90       1.0  0.15744  0.44571  0.10203  1.0000
  H   H62       1.0  0.11392  0.43312  0.11191  1.0000
  C   C91       1.0  0.05742  0.22856  0.23497  1.0000
  C   C92       1.0  0.17508  0.34858  0.20233  1.0000
  H   H63       1.0  0.15023  0.32859  0.15273  1.0000
  C   C93       1.0  0.09825  0.31603  0.40958  1.0000
  H   H64       1.0  0.08742  0.31970  0.38403  1.0000
  H   H65       1.0  0.16563  0.25899  0.37617  1.0000
  H   H66       1.0  0.99077  0.30432  0.14055  1.0000
  H   H67       1.0  0.06735  0.23818  0.23183  1.0000
  C   C94       1.0  0.10923  0.34330  0.41282  1.0000
  H   H68       1.0  0.11274  0.43660  0.32094  1.0000
  C   C95       1.0  0.06350  0.07549  0.40986  1.0000
  C   C96       1.0  0.08283  0.37749  0.47318  1.0000
  C   C97       1.0  0.06447  0.38176  0.46902  1.0000
  C   C98       1.0  0.12475  0.31101  0.28525  1.0000
  C   C99       1.0  0.10597  0.46758  0.31633  1.0000
  C   C100      1.0  0.18468  0.02903  0.46388  1.0000
  C   C101      1.0  0.06210  0.37801  0.45214  1.0000
  C   C102      1.0  0.16235  0.27167  0.34660  1.0000
  P   P4        1.0  0.15082  0.32534  0.22842  1.0000
  H   H69       1.0  0.12520  0.15910  0.41610  1.0000
  H   H70       1.0  0.99491  0.17847  0.44047  1.0000
  C   C103      1.0  0.11924  0.29671  0.34820  1.0000
  C   C104      1.0  0.04325  0.07936  0.41402  1.0000
  C   C105      1.0  0.06387  0.04919  0.38502  1.0000
  H   H71       1.0  0.17070  0.34702  0.12645  1.0000
  H   H72       1.0  0.12864  0.46195  0.10052  1.0000
  H   H73       1.0  0.09631  0.30130  0.41502  1.0000
  S   S25       1.0  0.18111  0.34291  0.36269  1.0000
  S   S26       1.0  0.17745  0.24894  0.16862  1.0000
  C   C106      1.0  0.07313  0.08268  0.41976  1.0000
  C   C107      1.0  0.07807  0.36992  0.43942  1.0000
  C   C108      1.0  0.17764  0.12961  0.41359  1.0000
  C   C109      1.0  0.01250  0.29327  0.18255  1.0000
  C   C110      1.0  0.12946  0.37377  0.41213  1.0000
  C   C111      1.0  0.16193  0.34614  0.22004  1.0000
  C   C112      1.0  0.17995  0.37789  0.20799  1.0000
  P   P5        1.0  0.11730  0.35493  0.42729  1.0000
  H   H74       1.0  0.07590  0.36715  0.42642  1.0000
  H   H75       1.0  0.12101  0.02194  0.43170  1.0000
  C   C113      1.0  0.17506  0.28875  0.23078  1.0000
  H   H76       1.0  0.05150  0.09043  0.36498  1.0000
  C   C114      1.0  0.06274  0.09313  0.43396  1.0000
  C   C115      1.0  0.16143  0.08654  0.46898  1.0000
  H   H77       1.0  0.04067  0.26964  0.21545  1.0000
  H   H78       1.0  0.10993  0.31600  0.43338  1.0000
  H   H79       1.0  0.07033  0.09897  0.44123  1.0000
  C   C116      1.0  0.08053  0.08448  0.36982  1.0000
  C   C117      1.0  0.17696  0.31339  0.39435  1.0000
  C   C118      1.0  0.10132  0.44941  0.32113  1.0000
  C   C119      1.0  0.17813  0.01188  0.46801  1.0000
  H   H80       1.0  0.10993  0.32735  0.46388  1.0000
  H   H81       1.0  0.10945  0.08398  0.37215  1.0000
  C   C120      1.0  0.16590  0.30486  0.21882  1.0000
  C   C121      1.0  0.06528  0.09475  0.36056  1.0000
  H   H82       1.0  0.11809  0.31332  0.25792  1.0000
  H   H83       1.0  0.16355  0.28657  0.31689  1.0000
  C   C122      1.0  0.15052  0.38090  0.15413  1.0000
  C   C123      1.0  0.16921  0.28429  0.32970  1.0000
  C   C124      1.0  0.00452  0.19355  0.28730  1.0000
  C   C125      1.0  0.16753  0.30442  0.19943  1.0000
  H   H84       1.0  0.18786  0.30457  0.31649  1.0000
  C   C126      1.0  0.11741  0.35031  0.21847  1.0000
  Fe  Fe15      1.0  0.17054  0.36506  0.29535  1.0000
  H   H85       1.0  0.16045  0.31652  0.18996  1.0000
  H   H86       1.0  0.11534  0.39511  0.42976  1.0000
  C   C127      1.0  0.06739  0.46425  0.32689  1.0000
  C   C128      1.0  0.09884  0.36940  0.46050  1.0000
  H   H87       1.0  0.16389  0.45828  0.09687  1.0000
  C   C129      1.0  0.14609  0.13515  0.40632  1.0000
  H   H88       1.0  0.10091  0.32491  0.34717  1.0000
  S   S27       1.0  0.17905  0.30011  0.13247  1.0000
  C   C130      1.0  0.11917  0.02822  0.41704  1.0000
  C   C131      1.0  0.13989  0.15097  0.41527  1.0000
  C   C132      1.0  0.10456  0.35350  0.39501  1.0000
  C   C133      1.0  0.16666  0.37576  0.22548  1.0000
  H   H89       1.0  0.14731  0.35875  0.24507  1.0000
  H   H90       1.0  0.13406  0.31221  0.31029  1.0000
  H   H91       1.0  0.08868  0.08067  0.41612  1.0000
  H   H92       1.0  0.16127  0.23329  0.27683  1.0000
  H   H93       1.0  0.17381  0.28855  0.24584  1.0000
  H   H94       1.0  0.05379  0.03738  0.41518  1.0000
  C   C134      1.0  0.18556  0.27245  0.22341  1.0000
  H   H95       1.0  0.17605  0.23387  0.32965  1.0000
  C   C135      1.0  0.15965  0.32093  0.26426  1.0000
  H   H96       1.0  0.17045  0.42119  0.34037  1.0000
  C   C136      1.0  0.16075  0.41106  0.11328  1.0000
  C   C137      1.0  0.99887  0.21251  0.37936  1.0000
  C   C138      1.0  0.16256  0.44551  0.31814  1.0000
  C   C139      1.0  0.18195  0.37658  0.09744  1.0000
  C   C140      1.0  0.03768  0.20752  0.25826  1.0000
  C   C141      1.0  0.15256  0.15615  0.42338  1.0000
  H   H97       1.0  0.12974  0.34313  0.17977  1.0000
  C   C142      1.0  0.17501  0.44746  0.34509  1.0000
  C   C143      1.0  0.01392  0.14851  0.34970  1.0000
  C   C144      1.0  0.01528  0.20538  0.40605  1.0000
  C   C145      1.0  0.02598  0.21949  0.39632  1.0000
  C   C146      1.0  0.02326  0.23007  0.37810  1.0000
  C   C147      1.0  0.00979  0.22660  0.36964  1.0000
  C   C148      1.0  0.15745  0.30973  0.46398  1.0000
  S   S28       1.0  0.12699  0.25236  0.47162  1.0000
  H   H98       1.0  0.18397  0.22202  0.29930  1.0000
  C   C149      1.0  0.18792  0.06655  0.42651  1.0000
  C   C150      1.0  0.14874  0.25201  0.32454  1.0000
  H   H99       1.0  0.15927  0.39579  0.08353  1.0000
  H   H100      1.0  0.99456  0.19008  0.40493  1.0000
  C   C151      1.0  0.04360  0.02512  0.37787  1.0000
  C   C152      1.0  0.17029  0.26865  0.36291  1.0000
  C   C153      1.0  0.17125  0.38362  0.08279  1.0000
  H   H101      1.0  0.02382  0.30225  0.15197  1.0000
  C   C154      1.0  0.05067  0.21984  0.25406  1.0000
  H   H102      1.0  0.99311  0.26171  0.19641  1.0000
  H   H103      1.0  0.16542  0.32030  0.29169  1.0000
  C   C155      1.0  0.09990  0.35488  0.21241  1.0000
  C   C156      1.0  0.17572  0.37465  0.06707  1.0000
  H   H104      1.0  0.17524  0.12275  0.46260  1.0000
  H   H105      1.0  0.03690  0.22169  0.40263  1.0000
  H   H106      1.0  0.03202  0.24059  0.37034  1.0000
  H   H107      1.0  0.00842  0.23456  0.35530  1.0000
  H   H108      1.0  0.02405  0.18692  0.35968  1.0000
  H   H109      1.0  0.04020  0.15583  0.35077  1.0000
  C   C157      1.0  0.99389  0.15429  0.35214  1.0000
  H   H110      1.0  0.11104  0.30754  0.29334  1.0000
  H   H111      1.0  0.16368  0.46790  0.22288  1.0000
  H   H112      1.0  0.07853  0.43359  0.32999  1.0000
  H   H113      1.0  0.14805  0.01522  0.40434  1.0000
  H   H114      1.0  0.06637  0.27311  0.18605  1.0000
  P   P6        1.0  0.17565  0.38731  0.11839  1.0000
  C   C158      1.0  0.05366  0.13839  0.28858  1.0000
  C   C159      1.0  0.07177  0.13755  0.29198  1.0000
  C   C160      1.0  0.07704  0.15447  0.29210  1.0000
  C   C161      1.0  0.06412  0.17213  0.28910  1.0000
  C   C162      1.0  0.04555  0.17300  0.28676  1.0000
  C   C163      1.0  0.04067  0.15608  0.28571  1.0000
  P   P7        1.0  0.02919  0.19608  0.28292  1.0000
  C   C164      1.0  0.17347  0.46745  0.33848  1.0000
  C   C165      1.0  0.02960  0.21100  0.29886  1.0000
  C   C166      1.0  0.02204  0.23084  0.29442  1.0000
  C   C167      1.0  0.02435  0.24314  0.30496  1.0000
  C   C168      1.0  0.03395  0.23563  0.32026  1.0000
  C   C169      1.0  0.04029  0.21573  0.32568  1.0000
  C   C170      1.0  0.03809  0.20340  0.31508  1.0000
  C   C171      1.0  0.15328  0.33428  0.43520  1.0000
  C   C172      1.0  0.17417  0.45285  0.24870  1.0000
  C   C173      1.0  0.98805  0.33398  0.12595  1.0000
  C   C174      1.0  0.09656  0.36545  0.44357  1.0000
  C   C175      1.0  0.17535  0.46490  0.23042  1.0000
  C   C176      1.0  0.16902  0.42742  0.10652  1.0000
  H   H115      1.0  0.17873  0.33828  0.19310  1.0000
  C   C177      1.0  0.17171  0.14589  0.42207  1.0000
  H   H116      1.0  0.02697  0.15646  0.28253  1.0000
  H   H117      1.0  0.03561  0.01658  0.40877  1.0000
  H   H118      1.0  0.18443  0.38898  0.15486  1.0000
  H   H119      1.0  0.04974  0.12535  0.28799  1.0000
  H   H120      1.0  0.08183  0.12386  0.29424  1.0000
  H   H121      1.0  0.09114  0.15397  0.29454  1.0000
  H   H122      1.0  0.06854  0.18519  0.28867  1.0000
  C   C178      1.0  0.18309  0.29437  0.32937  1.0000
  H   H123      1.0  0.01488  0.23685  0.28240  1.0000
  H   H124      1.0  0.01918  0.25856  0.30088  1.0000
  H   H125      1.0  0.03659  0.24521  0.32787  1.0000
  H   H126      1.0  0.04753  0.20990  0.33773  1.0000
  H   H127      1.0  0.04355  0.18811  0.31934  1.0000
  H   H128      1.0  0.12873  0.30208  0.21893  1.0000
  C   C179      1.0  0.16203  0.37283  0.13845  1.0000
  C   C180      1.0  0.05147  0.22485  0.21993  1.0000
  H   H129      1.0  0.05780  0.28924  0.15437  1.0000
  C   C181      1.0  0.99183  0.20589  0.27579  1.0000
  H   H130      1.0  0.02273  0.19349  0.24583  1.0000
  H   H131      1.0  0.09799  0.31043  0.20822  1.0000
  C   C182      1.0  0.08205  0.44773  0.32629  1.0000
  H   H132      1.0  0.03441  0.20928  0.21225  1.0000
  H   H133      1.0  0.05573  0.22265  0.26547  1.0000
  H   H134      1.0  0.98979  0.33079  0.11190  1.0000
  H   H135      1.0  0.17113  0.18375  0.40166  1.0000
  C   C183      1.0  0.15235  0.09703  0.45366  1.0000
  C   C184      1.0  0.13572  0.11129  0.45684  1.0000
  C   C185      1.0  0.14291  0.37035  0.39526  1.0000
  H   H136      1.0  0.09009  0.04309  0.42565  1.0000
  H   H137      1.0  0.14747  0.16825  0.43058  1.0000
  S   S29       1.0  0.17566  0.05134  0.37271  1.0000
  H   H138      1.0  0.12861  0.11916  0.44503  1.0000
  H   H139      1.0  0.13421  0.40077  0.11966  1.0000
  C   C186      1.0  0.01753  0.28366  0.20031  1.0000
  C   C187      1.0  0.03687  0.27651  0.20158  1.0000
  C   C188      1.0  0.13620  0.25860  0.31150  1.0000
  C   C189      1.0  0.13965  0.24084  0.36759  1.0000
  C   C190      1.0  0.13459  0.24474  0.38622  1.0000
  C   C191      1.0  0.13189  0.22995  0.40237  1.0000
  C   C192      1.0  0.13316  0.21134  0.40010  1.0000
  C   C193      1.0  0.13728  0.20748  0.38162  1.0000
  C   C194      1.0  0.14057  0.22216  0.36538  1.0000
  C   C195      1.0  0.12037  0.27722  0.34873  1.0000
  C   C196      1.0  0.10349  0.27088  0.35009  1.0000
  C   C197      1.0  0.08590  0.28400  0.35005  1.0000
  C   C198      1.0  0.08496  0.30346  0.34900  1.0000
  C   C199      1.0  0.10161  0.30979  0.34810  1.0000
  H   H140      1.0  0.13070  0.25666  0.28474  1.0000
  H   H141      1.0  0.12278  0.26883  0.31435  1.0000
  H   H142      1.0  0.13272  0.25924  0.38832  1.0000
  H   H143      1.0  0.12846  0.23310  0.41667  1.0000
  H   H144      1.0  0.13050  0.20005  0.41268  1.0000
  H   H145      1.0  0.13753  0.19320  0.37991  1.0000
  H   H146      1.0  0.14327  0.21893  0.35123  1.0000
  H   H147      1.0  0.10404  0.25590  0.35046  1.0000
  H   H148      1.0  0.07311  0.27906  0.35038  1.0000
  H   H149      1.0  0.07134  0.31363  0.34876  1.0000
  H   H150      1.0  0.13624  0.13095  0.40026  1.0000
  C   C200      1.0  0.16613  0.23899  0.31987  1.0000
  C   C201      1.0  0.12106  0.31697  0.21684  1.0000
  C   C202      1.0  0.15794  0.23865  0.29000  1.0000
  C   C203      1.0  0.05136  0.27853  0.18502  1.0000
  H   H151      1.0  0.18036  0.44044  0.35814  1.0000
  C   C204      1.0  0.17333  0.16868  0.46537  1.0000
  C   C205      1.0  0.13317  0.33725  0.44153  1.0000
  H   H152      1.0  0.03537  0.07504  0.40582  1.0000
  C   C206      1.0  0.05405  0.03645  0.36247  1.0000
  H   H153      1.0  0.03455  0.10541  0.44869  1.0000
  H   H154      1.0  0.15025  0.39555  0.15469  1.0000
  C   C207      1.0  0.03895  0.21222  0.22393  1.0000
  C   C208      1.0  0.16944  0.43652  0.33505  1.0000
  C   C209      1.0  0.14082  0.41324  0.11499  1.0000
  C   C210      1.0  0.12566  0.39191  0.41693  1.0000
  C   C211      1.0  0.16486  0.12437  0.40566  1.0000
  H   H155      1.0  0.16940  0.11179  0.39917  1.0000
  H   H156      1.0  0.99999  0.31979  0.20789  1.0000
  C   C212      1.0  0.16535  0.32061  0.44644  1.0000
  C   C213      1.0  0.02716  0.29507  0.16592  1.0000
  H   H157      1.0  0.18439  0.42611  0.10465  1.0000
  C   C214      1.0  0.04651  0.28769  0.16718  1.0000
  H   H158      1.0  0.13020  0.37644  0.18115  1.0000
  C   C215      1.0  0.10615  0.32443  0.41994  1.0000
  S   S30       1.0  0.18291  0.37782  0.31282  1.0000
  H   H159      1.0  0.17318  0.32491  0.25635  1.0000
  C   C216      1.0  0.17743  0.15241  0.45721  1.0000
  H   H160      1.0  0.04786  0.38133  0.44890  1.0000
  H   H161      1.0  0.15598  0.41387  0.37908  1.0000
  C   C217      1.0  0.17301  0.13511  0.46892  1.0000
  C   C218      1.0  0.13439  0.02433  0.40165  1.0000
  H   H162      1.0  0.15773  0.09409  0.43933  1.0000
  C   C219      1.0  0.14863  0.40271  0.38833  1.0000
  H   H163      1.0  0.18728  0.99960  0.46227  1.0000
  C   C220      1.0  0.18155  0.18889  0.40596  1.0000
  C   C221      1.0  0.18425  0.27864  0.36249  1.0000
  H   H164      1.0  0.17605  0.21666  0.38704  1.0000
  H   H165      1.0  0.16311  0.38180  0.37066  1.0000
  H   H166      1.0  0.16722  0.37982  0.05599  1.0000
  H   H167      1.0  0.99645  0.21738  0.26430  1.0000
  C   C222      1.0  0.16664  0.47635  0.32154  1.0000
  H   H168      1.0  0.11536  0.16712  0.46614  1.0000
  H   H169      1.0  0.02098  0.13453  0.34638  1.0000
  H   H170      1.0  0.00646  0.28205  0.21323  1.0000
  C   C223      1.0  0.18446  0.20757  0.39743  1.0000
  C   C224      1.0  0.98798  0.11456  0.39334  1.0000
  H   H171      1.0  0.98802  0.32243  0.29744  1.0000
  S   S31       1.0  0.18038  0.48074  0.35164  1.0000
  H   H172      1.0  0.05788  0.25389  0.84255  1.0000
  C   C225      1.0  0.98892  0.27585  0.90358  1.0000
  H   H173      1.0  0.99521  0.24257  0.80336  1.0000
  H   H174      1.0  0.03070  0.27176  0.82646  1.0000
  Fe  Fe16      1.0  0.07287  0.12965  0.73867  1.0000
  S   S32       1.0  0.07385  0.12282  0.77003  1.0000
  S   S33       1.0  0.04699  0.13445  0.72514  1.0000
  Fe  Fe17      1.0  0.11391  0.13650  0.72651  1.0000
  S   S34       1.0  0.11834  0.12996  0.75689  1.0000
  S   S35       1.0  0.13846  0.14494  0.70262  1.0000
  Fe  Fe18      1.0  0.10364  0.10559  0.76115  1.0000
  S   S36       1.0  0.11128  0.07821  0.78252  1.0000
  Fe  Fe19      1.0  0.08857  0.14765  0.76335  1.0000
  S   S37       1.0  0.07894  0.16911  0.78280  1.0000
  S   S38       1.0  0.10171  0.11036  0.73009  1.0000
  S   S39       1.0  0.08512  0.15618  0.73265  1.0000
  S   S40       1.0  0.15426  0.26503  0.62353  1.0000
  S   S41       1.0  0.12612  0.23492  0.66989  1.0000
  C   C226      1.0  0.18636  0.31124  0.65956  1.0000
  C   C227      1.0  0.14518  0.05986  0.71166  1.0000
  H   H175      1.0  0.99619  0.23145  0.86157  1.0000
  C   C228      1.0  0.16571  0.16733  0.48511  1.0000
  S   S42       1.0  0.15375  0.28002  0.93207  1.0000
  H   H176      1.0  0.05064  0.21532  0.91554  1.0000
  C   C229      1.0  0.99402  0.18251  0.89494  1.0000
  H   H177      1.0  0.07398  0.28426  0.85966  1.0000
  H   H178      1.0  0.05329  0.27500  0.89148  1.0000
  C   C230      1.0  0.08829  0.03114  0.68650  1.0000
  H   H179      1.0  0.06903  0.19588  0.68761  1.0000
  C   C231      1.0  0.98806  0.33301  0.92090  1.0000
  H   H180      1.0  0.00290  0.30113  0.86664  1.0000
  H   H181      1.0  0.04468  0.21169  0.95111  1.0000
  C   C232      1.0  0.16824  0.23658  0.74172  1.0000
  C   C233      1.0  0.16223  0.14983  0.49685  1.0000
  H   H182      1.0  0.18389  0.12796  0.77163  1.0000
  Fe  Fe20      1.0  0.11219  0.25861  0.83837  1.0000
  S   S43       1.0  0.14101  0.23844  0.83611  1.0000
  S   S44       1.0  0.10918  0.29043  0.82677  1.0000
  Fe  Fe21      1.0  0.09054  0.22747  0.86078  1.0000
  S   S45       1.0  0.11761  0.20455  0.86158  1.0000
  Fe  Fe22      1.0  0.13046  0.22659  0.86741  1.0000
  S   S46       1.0  0.15319  0.21844  0.88560  1.0000
  Fe  Fe23      1.0  0.12609  0.21798  0.83046  1.0000
  S   S47       1.0  0.13996  0.19834  0.80937  1.0000
  S   S48       1.0  0.10235  0.24814  0.87013  1.0000
  S   S49       1.0  0.09839  0.23960  0.82920  1.0000
  S   S50       1.0  0.17524  0.29900  0.96451  1.0000
  C   C234      1.0  0.15333  0.09025  0.48756  1.0000
  C   C235      1.0  0.01838  0.29711  0.86534  1.0000
  S   S51       1.0  0.14239  0.26809  0.51256  1.0000
  H   H183      1.0  0.12505  0.32256  0.92531  1.0000
  H   H184      1.0  0.99947  0.34737  0.93625  1.0000
  H   H185      1.0  0.18396  0.41590  0.82388  1.0000
  H   H186      1.0  0.08871  0.02842  0.71620  1.0000
  C   C236      1.0  0.15260  0.31752  0.84817  1.0000
  H   H187      1.0  0.15341  0.26951  0.85723  1.0000
  C   C237      1.0  0.03829  0.22495  0.94237  1.0000
  C   C238      1.0  0.14835  0.30132  0.76745  1.0000
  C   C239      1.0  0.14314  0.28350  0.77522  1.0000
  C   C240      1.0  0.13111  0.28013  0.79343  1.0000
  C   C241      1.0  0.12395  0.29481  0.80384  1.0000
  C   C242      1.0  0.12903  0.31281  0.79609  1.0000
  C   C243      1.0  0.14140  0.31603  0.77791  1.0000
  C   C244      1.0  0.18132  0.04185  0.69351  1.0000
  H   H188      1.0  0.12713  0.26628  0.79927  1.0000
  H   H189      1.0  0.12349  0.32420  0.80415  1.0000
  H   H190      1.0  0.14524  0.32993  0.77187  1.0000
  C   C245      1.0  0.15422  0.26280  0.91905  1.0000
  C   C246      1.0  0.16988  0.24734  0.91669  1.0000
  C   C247      1.0  0.16953  0.23387  0.90624  1.0000
  C   C248      1.0  0.15358  0.23578  0.89817  1.0000
  C   C249      1.0  0.13813  0.25138  0.90032  1.0000
  C   C250      1.0  0.13843  0.26480  0.91076  1.0000
  H   H191      1.0  0.16425  0.28644  0.80673  1.0000
  H   H192      1.0  0.18165  0.22202  0.90430  1.0000
  H   H193      1.0  0.12579  0.25303  0.89418  1.0000
  H   H194      1.0  0.12633  0.27676  0.91247  1.0000
  C   C251      1.0  0.00694  0.30165  0.91558  1.0000
  C   C252      1.0  0.15589  0.14947  0.83051  1.0000
  C   C253      1.0  0.15737  0.25835  0.56445  1.0000
  C   C254      1.0  0.14885  0.26664  0.54826  1.0000
  C   C255      1.0  0.15337  0.25733  0.53268  1.0000
  C   C256      1.0  0.02077  0.30369  0.92461  1.0000
  C   C257      1.0  0.14513  0.15836  0.84576  1.0000
  H   H195      1.0  0.15365  0.26550  0.57649  1.0000
  H   H196      1.0  0.13865  0.28027  0.54781  1.0000
  S   S52       1.0  0.17281  0.35466  0.71227  1.0000
  Fe  Fe24      1.0  0.15356  0.24332  0.65153  1.0000
  S   S53       1.0  0.17539  0.00343  0.77142  1.0000
  C   C258      1.0  0.17771  0.13856  0.61292  1.0000
  H   H197      1.0  0.14559  0.16650  0.87177  1.0000
  S   S54       1.0  0.06151  0.21941  0.87310  1.0000
  C   C259      1.0  0.00158  0.33466  0.93044  1.0000
  C   C260      1.0  0.00711  0.23365  0.79532  1.0000
  C   C261      1.0  0.09626  0.17634  0.79052  1.0000
  C   C262      1.0  0.09009  0.18759  0.80463  1.0000
  C   C263      1.0  0.10347  0.19407  0.81071  1.0000
  C   C264      1.0  0.12309  0.18969  0.80241  1.0000
  C   C265      1.0  0.12931  0.17830  0.78841  1.0000
  C   C266      1.0  0.11594  0.17145  0.78266  1.0000
  H   H198      1.0  0.07491  0.19120  0.81099  1.0000
  H   H199      1.0  0.09853  0.20250  0.82178  1.0000
  H   H200      1.0  0.14439  0.17489  0.78182  1.0000
  H   H201      1.0  0.12082  0.16269  0.77189  1.0000
  C   C267      1.0  0.13479  0.17000  0.69373  1.0000
  C   C268      1.0  0.15039  0.17920  0.68889  1.0000
  C   C269      1.0  0.14774  0.19916  0.68178  1.0000
  C   C270      1.0  0.12951  0.21000  0.67931  1.0000
  C   C271      1.0  0.11387  0.20085  0.68424  1.0000
  C   C272      1.0  0.11651  0.18087  0.69138  1.0000
  H   H202      1.0  0.16444  0.17099  0.69101  1.0000
  H   H203      1.0  0.15975  0.20620  0.67856  1.0000
  H   H204      1.0  0.09978  0.20921  0.68229  1.0000
  H   H205      1.0  0.10447  0.17384  0.69476  1.0000
  P   P8        1.0  0.01119  0.28109  0.90483  1.0000
  C   C273      1.0  0.18420  0.43283  0.84405  1.0000
  C   C274      1.0  0.01843  0.25716  0.93973  1.0000
  C   C275      1.0  0.17461  0.11991  0.78297  1.0000
  C   C276      1.0  0.15888  0.02529  0.77336  1.0000
  C   C277      1.0  0.15827  0.04166  0.75836  1.0000
  C   C278      1.0  0.14384  0.05838  0.76079  1.0000
  C   C279      1.0  0.13027  0.05855  0.77824  1.0000
  C   C280      1.0  0.13139  0.04232  0.79319  1.0000
  C   C281      1.0  0.14544  0.02575  0.79070  1.0000
  H   H206      1.0  0.14302  0.07097  0.74924  1.0000
  H   H207      1.0  0.12097  0.04238  0.80667  1.0000
  H   H208      1.0  0.14576  0.01314  0.80228  1.0000
  C   C282      1.0  0.03352  0.24409  0.91106  1.0000
  C   C283      1.0  0.00821  0.10084  0.75532  1.0000
  C   C284      1.0  0.02522  0.10821  0.74889  1.0000
  C   C285      1.0  0.02547  0.12570  0.73558  1.0000
  H   H209      1.0  0.16832  0.37005  0.79420  1.0000
  H   H210      1.0  0.17590  0.30255  0.66749  1.0000
  H   H211      1.0  0.00824  0.08706  0.76520  1.0000
  H   H212      1.0  0.03826  0.10006  0.75373  1.0000
  C   C286      1.0  0.02657  0.24000  0.95106  1.0000
  H   H213      1.0  0.16876  0.05251  0.64582  1.0000
  C   C287      1.0  0.04464  0.24870  0.84647  1.0000
  C   C288      1.0  0.13819  0.34574  0.92484  1.0000
  P   P9        1.0  0.99093  0.16695  0.88088  1.0000
  C   C289      1.0  0.14008  0.27641  0.72223  1.0000
  H   H214      1.0  0.16923  0.23802  0.72644  1.0000
  H   H215      1.0  0.99402  0.23670  0.74622  1.0000
  C   C290      1.0  0.11693  0.02998  0.69795  1.0000
  H   H216      1.0  0.16873  0.36623  0.88644  1.0000
  C   C291      1.0  0.02223  0.25945  0.91958  1.0000
  C   C292      1.0  0.15395  0.15939  0.86009  1.0000
  H   H217      1.0  0.14905  0.17611  0.73385  1.0000
  H   H218      1.0  0.16139  0.10672  0.83191  1.0000
  H   H219      1.0  0.13191  0.45031  0.78014  1.0000
  S   S55       1.0  0.17526  0.22040  0.63841  1.0000
  H   H220      1.0  0.08468  0.38040  0.48627  1.0000
  S   S56       1.0  0.18101  0.22919  0.58530  1.0000
  H   H221      1.0  0.17914  0.18593  0.82214  1.0000
  C   C293      1.0  0.04591  0.18368  0.70741  1.0000
  H   H222      1.0  0.98872  0.22341  0.78362  1.0000
  H   H223      1.0  0.00855  0.14941  0.71878  1.0000
  C   C294      1.0  0.18492  0.23442  0.74860  1.0000
  C   C295      1.0  0.14873  0.44596  0.82056  1.0000
  P   P10       1.0  0.12846  0.02802  0.71756  1.0000
  C   C296      1.0  0.04168  0.22698  0.92238  1.0000
  C   C297      1.0  0.05845  0.28769  0.86130  1.0000
  H   H224      1.0  0.13030  0.10721  0.50503  1.0000
  H   H225      1.0  0.16348  0.12012  0.49796  1.0000
  H   H226      1.0  0.16853  0.04125  0.74483  1.0000
  H   H227      1.0  0.02865  0.32148  0.93926  1.0000
  C   C298      1.0  0.04663  0.28244  0.87928  1.0000
  C   C299      1.0  0.13657  0.10442  0.49068  1.0000
  C   C300      1.0  0.17466  0.15636  0.60011  1.0000
  C   C301      1.0  0.16252  0.11108  0.77779  1.0000
  C   C302      1.0  0.12895  0.27376  0.68956  1.0000
  H   H228      1.0  0.15638  0.14892  0.51212  1.0000
  H   H229      1.0  0.14014  0.09117  0.82243  1.0000
  C   C303      1.0  0.02649  0.28687  0.88138  1.0000
  H   H230      1.0  0.04300  0.17665  0.80823  1.0000
  H   H231      1.0  0.02290  0.17407  0.72956  1.0000
  C   C304      1.0  0.01010  0.17759  0.90360  1.0000
  C   C305      1.0  0.14995  0.07618  0.65796  1.0000
  H   H232      1.0  0.16226  0.17999  0.49127  1.0000
  C   C306      1.0  0.16682  0.23989  0.53323  1.0000
  S   S57       1.0  0.16367  0.40114  0.73602  1.0000
  C   C307      1.0  0.12600  0.25986  0.70656  1.0000
  H   H233      1.0  0.14967  0.30199  0.70478  1.0000
  H   H234      1.0  0.17079  0.23285  0.52115  1.0000
  C   C308      1.0  0.15860  0.35717  0.89450  1.0000
  H   H235      1.0  0.18132  0.31353  0.79507  1.0000
  C   C309      1.0  0.13095  0.98828  0.72328  1.0000
  H   H236      1.0  0.17984  0.06154  0.77592  1.0000
  C   C310      1.0  0.14857  0.30028  0.84713  1.0000
  C   C311      1.0  0.99838  0.17234  0.79064  1.0000
  C   C312      1.0  0.17865  0.06026  0.69693  1.0000
  H   H237      1.0  0.09207  0.03348  0.65592  1.0000
  H   H238      1.0  0.14457  0.27770  0.73469  1.0000
  C   C313      1.0  0.14303  0.29025  0.70522  1.0000
  C   C314      1.0  0.99534  0.15434  0.80157  1.0000
  C   C315      1.0  0.01798  0.32005  0.93219  1.0000
  S   S58       1.0  0.18077  0.30436  0.62588  1.0000
  C   C316      1.0  0.16848  0.43753  0.73414  1.0000
  H   H239      1.0  0.14508  0.33089  0.84063  1.0000
  C   C317      1.0  0.15408  0.99774  0.73536  1.0000
  H   H240      1.0  0.16008  0.46564  0.76540  1.0000
  C   C318      1.0  0.04269  0.23221  0.86090  1.0000
  H   H241      1.0  0.12474  0.27268  0.67683  1.0000
  Fe  Fe25      1.0  0.17816  0.32949  0.73661  1.0000
  H   H242      1.0  0.14853  0.27232  0.76704  1.0000
  H   H243      1.0  0.17027  0.19980  0.85136  1.0000
  C   C319      1.0  0.02917  0.25889  0.83745  1.0000
  C   C320      1.0  0.10361  0.20306  0.73595  1.0000
  C   C321      1.0  0.11888  0.18723  0.73442  1.0000
  C   C322      1.0  0.13728  0.18842  0.73531  1.0000
  C   C323      1.0  0.14036  0.20532  0.73827  1.0000
  C   C324      1.0  0.12500  0.22121  0.74026  1.0000
  C   C325      1.0  0.10670  0.22012  0.73857  1.0000
  P   P11       1.0  0.12855  0.24287  0.74499  1.0000
  C   C326      1.0  0.10823  0.25193  0.76268  1.0000
  Fe  Fe26      1.0  0.14920  0.25266  0.48773  1.0000
  C   C327      1.0  0.14926  0.23504  0.77420  1.0000
  H   H244      1.0  0.14536  0.44048  0.83598  1.0000
  C   C328      1.0  0.15022  0.23747  0.75441  1.0000
  C   C329      1.0  0.05029  0.29740  0.84532  1.0000
  H   H245      1.0  0.05958  0.30122  0.83140  1.0000
  C   C330      1.0  0.10346  0.27152  0.76359  1.0000
  C   C331      1.0  0.08797  0.27834  0.77754  1.0000
  C   C332      1.0  0.07700  0.26573  0.79056  1.0000
  C   C333      1.0  0.08172  0.24620  0.78987  1.0000
  C   C334      1.0  0.09743  0.23926  0.77620  1.0000
  C   C335      1.0  0.01164  0.25271  0.84280  1.0000
  C   C336      1.0  0.17355  0.15145  0.85925  1.0000
  H   H246      1.0  0.08938  0.20197  0.73529  1.0000
  H   H247      1.0  0.11648  0.17397  0.73257  1.0000
  H   H248      1.0  0.16496  0.23122  0.79639  1.0000
  H   H249      1.0  0.03630  0.10583  0.89919  1.0000
  H   H250      1.0  0.09472  0.23231  0.73968  1.0000
  H   H251      1.0  0.13556  0.23556  0.78431  1.0000
  H   H252      1.0  0.02081  0.16457  0.90198  1.0000
  H   H253      1.0  0.00062  0.26587  0.87686  1.0000
  H   H254      1.0  0.14877  0.14926  0.81935  1.0000
  H   H255      1.0  0.11178  0.28159  0.75384  1.0000
  H   H256      1.0  0.08467  0.29339  0.77841  1.0000
  H   H257      1.0  0.06514  0.27098  0.80151  1.0000
  H   H258      1.0  0.07363  0.23632  0.80043  1.0000
  H   H259      1.0  0.10125  0.22396  0.77642  1.0000
  C   C337      1.0  0.15273  0.38978  0.81286  1.0000
  C   C338      1.0  0.01469  0.18683  0.85052  1.0000
  P   P12       1.0  0.18052  0.45559  0.82714  1.0000
  H   H260      1.0  0.00482  0.12358  0.80448  1.0000
  H   H261      1.0  0.03377  0.29269  0.92568  1.0000
  Fe  Fe27      1.0  0.17766  0.24249  0.61098  1.0000
  C   C339      1.0  0.14102  0.45147  0.78913  1.0000
  C   C340      1.0  0.13752  0.28890  0.68885  1.0000
  H   H262      1.0  0.11956  0.24816  0.70662  1.0000
  C   C341      1.0  0.17431  0.11854  0.80253  1.0000
  C   C342      1.0  0.98811  0.26822  0.88826  1.0000
  H   H263      1.0  0.03348  0.20207  0.82758  1.0000
  H   H264      1.0  0.04656  0.17329  0.69901  1.0000
  H   H265      1.0  0.13000  0.16490  0.84615  1.0000
  C   C343      1.0  0.16196  0.10792  0.81675  1.0000
  H   H266      1.0  0.14629  0.37948  0.86169  1.0000
  P   P13       1.0  0.16896  0.33969  0.86277  1.0000
  H   H267      1.0  0.12430  0.43819  0.81554  1.0000
  C   C344      1.0  0.99709  0.14227  0.89352  1.0000
  H   H268      1.0  0.16559  0.13175  0.61987  1.0000
  C   C345      1.0  0.16602  0.13367  0.48878  1.0000
  C   C346      1.0  0.17563  0.14148  0.82947  1.0000
  Fe  Fe28      1.0  0.17940  0.27967  0.94386  1.0000
  C   C347      1.0  0.14995  0.09906  0.81148  1.0000
  C   C348      1.0  0.14658  0.39232  0.83190  1.0000
  S   S59       1.0  0.18195  0.34711  0.75560  1.0000
  S   S60       1.0  0.16338  0.30456  0.74453  1.0000
  H   H269      1.0  0.15654  0.43789  0.74638  1.0000
  C   C349      1.0  0.14811  0.09475  0.66066  1.0000
  C   C350      1.0  0.15129  0.37716  0.84709  1.0000
  H   H270      1.0  0.02783  0.13952  0.88218  1.0000
  H   H271      1.0  0.17538  0.26907  0.87789  1.0000
  H   H272      1.0  0.18474  0.42073  0.78199  1.0000
  C   C351      1.0  0.15694  0.46000  0.78077  1.0000
  H   H273      1.0  0.03597  0.24534  0.89564  1.0000
  H   H274      1.0  0.14066  0.09405  0.78797  1.0000
  H   H275      1.0  0.17836  0.28889  0.58733  1.0000
  H   H276      1.0  0.07304  0.03113  0.68944  1.0000
  H   H277      1.0  0.02392  0.30961  0.83494  1.0000
  H   H278      1.0  0.13146  0.06708  0.71890  1.0000
  C   C352      1.0  0.16598  0.23269  0.78110  1.0000
  C   C353      1.0  0.17491  0.42111  0.72590  1.0000
  C   C354      1.0  0.17769  0.45330  0.72682  1.0000
  C   C355      1.0  0.15485  0.34368  0.88616  1.0000
  C   C356      1.0  0.14219  0.33160  0.89729  1.0000
  C   C357      1.0  0.13399  0.33261  0.91655  1.0000
  C   C358      1.0  0.15039  0.35811  0.91378  1.0000
  C   C359      1.0  0.13157  0.26106  0.72306  1.0000
  H   H279      1.0  0.13808  0.40600  0.83497  1.0000
  C   C360      1.0  0.12768  0.03095  0.67898  1.0000
  C   C361      1.0  0.05856  0.19637  0.70103  1.0000
  H   H280      1.0  0.15854  0.08374  0.70834  1.0000
  H   H281      1.0  0.15979  0.08197  0.49968  1.0000
  C   C362      1.0  0.00351  0.22287  0.78396  1.0000
  C   C363      1.0  0.02516  0.22607  0.86624  1.0000
  C   C364      1.0  0.16357  0.37203  0.80899  1.0000
  C   C365      1.0  0.99137  0.12880  0.73594  1.0000
  C   C366      1.0  0.18374  0.23273  0.76827  1.0000
  H   H282      1.0  0.01036  0.19820  0.85848  1.0000
  S   S61       1.0  0.17506  0.25345  0.66140  1.0000
  C   C367      1.0  0.99083  0.31666  0.91329  1.0000
  H   H283      1.0  0.13815  0.06873  0.66433  1.0000
  H   H284      1.0  0.12707  0.03304  0.64927  1.0000
  H   H285      1.0  0.13919  0.32076  0.89158  1.0000
  C   C368      1.0  0.00846  0.13597  0.72921  1.0000
  H   H286      1.0  0.18107  0.46809  0.78525  1.0000
  C   C369      1.0  0.03307  0.17479  0.82202  1.0000
  H   H287      1.0  0.02355  0.21343  0.87745  1.0000
  C   C370      1.0  0.17380  0.29972  0.87011  1.0000
  H   H288      1.0  0.16849  0.01780  0.69697  1.0000
  H   H289      1.0  0.05206  0.38797  0.47889  1.0000
  S   S62       1.0  0.99219  0.26655  0.83199  1.0000
  H   H290      1.0  0.14909  0.40149  0.80104  1.0000
  C   C371      1.0  0.01646  0.13243  0.89136  1.0000
  C   C372      1.0  0.16491  0.45436  0.81220  1.0000
  H   H291      1.0  0.14298  0.03055  0.67580  1.0000
  C   C373      1.0  0.18542  0.41567  0.83827  1.0000
  Fe  Fe29      1.0  0.17780  0.27330  0.63235  1.0000
  C   C374      1.0  0.14783  0.04108  0.70876  1.0000
  H   H292      1.0  0.15469  0.99742  0.48223  1.0000
  C   C375      1.0  0.99124  0.11103  0.74878  1.0000
  C   C376      1.0  0.00746  0.16993  0.85784  1.0000
  C   C377      1.0  0.16224  0.35929  0.84334  1.0000
  C   C378      1.0  0.16547  0.31737  0.85948  1.0000
  C   C379      1.0  0.00971  0.23619  0.85715  1.0000
  C   C380      1.0  0.11115  0.03798  0.73681  1.0000
  C   C381      1.0  0.09765  0.05515  0.73249  1.0000
  C   C382      1.0  0.08454  0.06322  0.74730  1.0000
  C   C383      1.0  0.08479  0.05422  0.76653  1.0000
  C   C384      1.0  0.09809  0.03711  0.77095  1.0000
  C   C385      1.0  0.11134  0.02906  0.75618  1.0000
  C   C386      1.0  0.01280  0.15562  0.84681  1.0000
  C   C387      1.0  0.02764  0.18914  0.83283  1.0000
  H   H293      1.0  0.16030  0.16309  0.59757  1.0000
  H   H294      1.0  0.00702  0.14264  0.85194  1.0000
  C   C388      1.0  0.16888  0.46140  0.79219  1.0000
  H   H295      1.0  0.17089  0.18450  0.63389  1.0000
  H   H296      1.0  0.15991  0.00874  0.73791  1.0000
  C   C389      1.0  0.16848  0.35690  0.82412  1.0000
  H   H297      1.0  0.13497  0.10161  0.66923  1.0000
  C   C390      1.0  0.15020  0.10068  0.79202  1.0000
  H   H298      1.0  0.15862  0.15722  0.65736  1.0000
  H   H299      1.0  0.17175  0.17070  0.79629  1.0000
  C   C391      1.0  0.13681  0.44459  0.80905  1.0000
  H   H300      1.0  0.09745  0.06252  0.71768  1.0000
  H   H301      1.0  0.07438  0.07665  0.74392  1.0000
  H   H302      1.0  0.07500  0.06077  0.77802  1.0000
  H   H303      1.0  0.09854  0.03043  0.78588  1.0000
  H   H304      1.0  0.12188  0.01614  0.76001  1.0000
  C   C392      1.0  0.03026  0.30215  0.84735  1.0000
  C   C393      1.0  0.18247  0.20331  0.84008  1.0000
  C   C394      1.0  0.09722  0.02976  0.70163  1.0000
  C   C395      1.0  0.02565  0.15805  0.82898  1.0000
  C   C396      1.0  0.01275  0.18974  0.91415  1.0000
  C   C397      1.0  0.11428  0.20812  0.55083  1.0000
  C   C398      1.0  0.13401  0.20269  0.54368  1.0000
  C   C399      1.0  0.14701  0.19923  0.55574  1.0000
  C   C400      1.0  0.14031  0.20108  0.57497  1.0000
  C   C401      1.0  0.12045  0.20587  0.58249  1.0000
  C   C402      1.0  0.10750  0.20986  0.57010  1.0000
  P   P14       1.0  0.11167  0.20933  0.60705  1.0000
  C   C403      1.0  0.08736  0.20517  0.61567  1.0000
  C   C404      1.0  0.12669  0.19258  0.62284  1.0000
  C   C405      1.0  0.12010  0.17678  0.63598  1.0000
  C   C406      1.0  0.13166  0.16406  0.64828  1.0000
  C   C407      1.0  0.14996  0.16683  0.64744  1.0000
  C   C408      1.0  0.15669  0.18240  0.63443  1.0000
  C   C409      1.0  0.14500  0.19546  0.62241  1.0000
  C   C410      1.0  0.07350  0.21649  0.62765  1.0000
  C   C411      1.0  0.05502  0.21257  0.63494  1.0000
  C   C412      1.0  0.05023  0.19732  0.63036  1.0000
  C   C413      1.0  0.06392  0.18596  0.61849  1.0000
  C   C414      1.0  0.08242  0.18981  0.61121  1.0000
  C   C415      1.0  0.11183  0.23374  0.60749  1.0000
  C   C416      1.0  0.11153  0.24823  0.59067  1.0000
  C   C417      1.0  0.11049  0.26731  0.59138  1.0000
  C   C418      1.0  0.10967  0.27210  0.60884  1.0000
  C   C419      1.0  0.10998  0.25777  0.62560  1.0000
  C   C420      1.0  0.11131  0.23861  0.62492  1.0000
  H   H305      1.0  0.10427  0.21134  0.54128  1.0000
  H   H306      1.0  0.13921  0.20163  0.52867  1.0000
  H   H307      1.0  0.16232  0.19570  0.55004  1.0000
  H   H308      1.0  0.15072  0.19926  0.58367  1.0000
  H   H309      1.0  0.09219  0.21470  0.57515  1.0000
  H   H310      1.0  0.10591  0.17434  0.63722  1.0000
  H   H311      1.0  0.12624  0.15236  0.65892  1.0000
  C   C421      1.0  0.02134  0.11331  0.90100  1.0000
  H   H312      1.0  0.17715  0.34332  0.82079  1.0000
  H   H313      1.0  0.15022  0.20786  0.61290  1.0000
  H   H314      1.0  0.07687  0.22827  0.63156  1.0000
  H   H315      1.0  0.04443  0.22131  0.64424  1.0000
  H   H316      1.0  0.03592  0.19426  0.63611  1.0000
  H   H317      1.0  0.06021  0.17407  0.61505  1.0000
  H   H318      1.0  0.09298  0.18064  0.60232  1.0000
  H   H319      1.0  0.11215  0.24494  0.57694  1.0000
  H   H320      1.0  0.11045  0.27837  0.57832  1.0000
  H   H321      1.0  0.10901  0.28686  0.60938  1.0000
  H   H322      1.0  0.10948  0.26145  0.63913  1.0000
  H   H323      1.0  0.11167  0.22769  0.63807  1.0000
  C   C422      1.0  0.04130  0.22064  0.78685  1.0000
  C   C423      1.0  0.02601  0.23278  0.79653  1.0000
  C   C424      1.0  0.17888  0.28428  0.80861  1.0000
  C   C425      1.0  0.18250  0.07666  0.63954  1.0000
  C   C426      1.0  0.01889  0.21142  0.77339  1.0000
  C   C427      1.0  0.03771  0.20976  0.77561  1.0000
  P   P15       1.0  0.01455  0.19716  0.75886  1.0000
  C   C428      1.0  0.01322  0.17375  0.77418  1.0000
  H   H324      1.0  0.15418  0.36781  0.92042  1.0000
  H   H325      1.0  0.13241  0.34595  0.93997  1.0000
  H   H326      1.0  0.17989  0.19468  0.76712  1.0000
  C   C429      1.0  0.16339  0.10432  0.65275  1.0000
  H   H327      1.0  0.98877  0.18521  0.79468  1.0000
  Fe  Fe30      1.0  0.18006  0.37181  0.72992  1.0000
  H   H328      1.0  0.13140  0.30339  0.48352  1.0000
  H   H329      1.0  0.18033  0.15235  0.87038  1.0000
  C   C430      1.0  0.00740  0.13757  0.79635  1.0000
  C   C431      1.0  0.02276  0.13887  0.78050  1.0000
  C   C432      1.0  0.02583  0.15688  0.76953  1.0000
  C   C433      1.0  0.03215  0.19673  0.73644  1.0000
  C   C434      1.0  0.03264  0.18399  0.72492  1.0000
  H   H330      1.0  0.02375  0.23833  0.96659  1.0000
  C   C435      1.0  0.05766  0.20968  0.71198  1.0000
  C   C436      1.0  0.04434  0.21006  0.72948  1.0000
  H   H331      1.0  0.02536  0.18603  0.92048  1.0000
  H   H332      1.0  0.02869  0.24115  0.80538  1.0000
  H   H333      1.0  0.13847  0.30054  0.83856  1.0000
  H   H334      1.0  0.13996  0.29953  0.67560  1.0000
  H   H335      1.0  0.04965  0.20003  0.76863  1.0000
  C   C437      1.0  0.18062  0.09551  0.64183  1.0000
  H   H336      1.0  0.15465  0.20576  0.73923  1.0000
  S   S63       1.0  0.12557  0.19709  0.47779  1.0000
  C   C438      1.0  0.16599  0.03227  0.69938  1.0000
  C   C439      1.0  0.00695  0.10386  0.91292  1.0000
  S   S64       1.0  0.16152  0.22103  0.49063  1.0000
  H   H337      1.0  0.03206  0.12587  0.77643  1.0000
  H   H338      1.0  0.03783  0.15745  0.75734  1.0000
  H   H339      1.0  0.05592  0.21932  0.78829  1.0000
  H   H340      1.0  0.06730  0.21970  0.70690  1.0000
  H   H341      1.0  0.04353  0.22090  0.73735  1.0000
  H   H342      1.0  0.16190  0.11848  0.65555  1.0000
  C   C440      1.0  0.16057  0.06939  0.70577  1.0000
  H   H343      1.0  0.00145  0.21639  0.92421  1.0000
  H   H344      1.0  0.01073  0.08903  0.92037  1.0000
  C   C441      1.0  0.11872  0.03228  0.66388  1.0000
  H   H345      1.0  0.18313  0.27384  0.50360  1.0000
  C   C442      1.0  0.09902  0.03246  0.66762  1.0000
  C   C443      1.0  0.13856  0.00287  0.72592  1.0000
  C   C444      1.0  0.15703  0.28280  0.85760  1.0000
  H   H346      1.0  0.18158  0.18685  0.92358  1.0000
  C   C445      1.0  0.18496  0.16705  0.78610  1.0000
  H   H347      1.0  0.00909  0.26853  0.94671  1.0000
  C   C446      1.0  0.16969  0.47517  0.83979  1.0000
  C   C447      1.0  0.16715  0.06711  0.64747  1.0000
  H   H348      1.0  0.17273  0.46590  0.73314  1.0000
  C   C448      1.0  0.16957  0.28255  0.86911  1.0000
  H   H349      1.0  0.02990  0.14702  0.82046  1.0000
  C   C449      1.0  0.17047  0.24069  0.56511  1.0000
  H   H350      1.0  0.16251  0.11240  0.76272  1.0000
  C   C450      1.0  0.17535  0.23163  0.54937  1.0000
  H   H351      1.0  0.11875  0.99177  0.71642  1.0000
  H   H352      1.0  0.17973  0.01926  0.83559  1.0000
  H   H353      1.0  0.18030  0.25459  0.82212  1.0000
  C   C451      1.0  0.99935  0.20689  0.91618  1.0000
  H   H354      1.0  0.18522  0.01701  0.80137  1.0000
  H   H355      1.0  0.18214  0.24578  0.92298  1.0000
  H   H356      1.0  0.18106  0.26717  0.71290  1.0000
  H   H357      1.0  0.18574  0.21815  0.54969  1.0000
  H   H358      1.0  0.14051  0.47773  0.83659  1.0000
  C   C452      1.0  0.18437  0.14251  0.84403  1.0000
  H   H359      1.0  0.18269  0.29929  0.87995  1.0000
  C   C453      1.0  0.99183  0.20692  0.75124  1.0000
  C   C454      1.0  0.15981  0.01067  0.47926  1.0000
  H   H360      1.0  0.14533  0.05581  0.48826  1.0000
  C   C455      1.0  0.15474  0.04372  0.48256  1.0000
  C   C456      1.0  0.14811  0.02659  0.48652  1.0000
  H   H361      1.0  0.11497  0.12614  0.47759  1.0000
  H   H362      1.0  0.13384  0.02569  0.49515  1.0000
  H   H363      1.0  0.18731  0.44471  0.86695  1.0000
  C   C457      1.0  0.18761  0.43180  0.86231  1.0000
  C   C458      1.0  0.18753  0.19544  0.82362  1.0000
  H   H364      1.0  0.18783  0.19805  0.52044  1.0000
  H   H365      1.0  0.18760  0.17964  0.58139  1.0000
  H   H366      1.0  0.18785  0.22278  0.85436  1.0000
  C   C459      1.0  0.12129  0.76017  0.43114  1.0000
  C   C460      1.0  0.11761  0.50114  0.33949  1.0000
  H   H367      1.0  0.12672  0.53070  0.30289  1.0000
  P   P16       1.0  0.09740  0.50773  0.31049  1.0000
  C   C461      1.0  0.99901  0.68699  0.34314  1.0000
  H   H368      1.0  0.03293  0.73966  0.36609  1.0000
  H   H369      1.0  0.16230  0.81071  0.46372  1.0000
  C   C462      1.0  0.10064  0.51092  0.33292  1.0000
  H   H370      1.0  0.14048  0.68296  0.20652  1.0000
  S   S65       1.0  0.17539  0.62259  0.01484  1.0000
  Fe  Fe31      1.0  0.04828  0.64040  0.24202  1.0000
  S   S66       1.0  0.04915  0.66850  0.22090  1.0000
  S   S67       1.0  0.02142  0.62798  0.25513  1.0000
  Fe  Fe32      1.0  0.09134  0.63238  0.24148  1.0000
  S   S68       1.0  0.09537  0.65987  0.22056  1.0000
  S   S69       1.0  0.11909  0.61411  0.24883  1.0000
  Fe  Fe33      1.0  0.06799  0.67315  0.23846  1.0000
  S   S70       1.0  0.06476  0.70177  0.24630  1.0000
  Fe  Fe34      1.0  0.07656  0.65243  0.20520  1.0000
  S   S71       1.0  0.08603  0.65220  0.17357  1.0000
  S   S72       1.0  0.06532  0.64612  0.26083  1.0000
  S   S73       1.0  0.07436  0.62391  0.22495  1.0000
  S   S74       1.0  0.11498  0.56098  0.33164  1.0000
  H   H371      1.0  0.00228  0.77632  0.32296  1.0000
  H   H372      1.0  0.15725  0.61639  0.12966  1.0000
  C   C463      1.0  0.00317  0.76443  0.33522  1.0000
  C   C464      1.0  0.17753  0.67019  0.06929  1.0000
  Fe  Fe35      1.0  0.16910  0.83533  0.38068  1.0000
  C   C465      1.0  0.00527  0.73394  0.36701  1.0000
  S   S75       1.0  0.14012  0.83060  0.37948  1.0000
  C   C466      1.0  0.14876  0.78612  0.47549  1.0000
  H   H373      1.0  0.00594  0.72245  0.37959  1.0000
  H   H374      1.0  0.18667  0.74492  0.23780  1.0000
  H   H375      1.0  0.15375  0.58916  0.11780  1.0000
  S   S76       1.0  0.17179  0.85175  0.40172  1.0000
  H   H376      1.0  0.14923  0.61508  0.99552  1.0000
  C   C467      1.0  0.05168  0.65131  0.98911  1.0000
  Fe  Fe36      1.0  0.10990  0.76004  0.33514  1.0000
  S   S77       1.0  0.08367  0.76228  0.35915  1.0000
  S   S78       1.0  0.13348  0.77746  0.32626  1.0000
  Fe  Fe37      1.0  0.10142  0.72553  0.32502  1.0000
  S   S79       1.0  0.07496  0.72487  0.34839  1.0000
  S   S80       1.0  0.11199  0.70212  0.30757  1.0000
  Fe  Fe38      1.0  0.06828  0.75687  0.33876  1.0000
  Fe  Fe39      1.0  0.09237  0.72997  0.36686  1.0000
  S   S81       1.0  0.08809  0.71437  0.39801  1.0000
  S   S82       1.0  0.09387  0.75739  0.31382  1.0000
  S   S83       1.0  0.11955  0.72796  0.34439  1.0000
  C   C468      1.0  0.13061  0.69537  0.21131  1.0000
  C   C469      1.0  0.02054  0.74375  0.35942  1.0000
  C   C470      1.0  0.10221  0.69993  0.43067  1.0000
  C   C471      1.0  0.10704  0.70392  0.41052  1.0000
  C   C472      1.0  0.12640  0.69927  0.40121  1.0000
  C   C473      1.0  0.14082  0.69055  0.41220  1.0000
  C   C474      1.0  0.12336  0.63107  0.98551  1.0000
  H   H377      1.0  0.13009  0.70197  0.38566  1.0000
  H   H378      1.0  0.15571  0.68667  0.40514  1.0000
  C   C475      1.0  0.13847  0.81644  0.36398  1.0000
  C   C476      1.0  0.15428  0.81004  0.35009  1.0000
  C   C477      1.0  0.15248  0.79829  0.33847  1.0000
  C   C478      1.0  0.13504  0.79252  0.34090  1.0000
  C   C479      1.0  0.11920  0.79911  0.35463  1.0000
  C   C480      1.0  0.12084  0.81130  0.36583  1.0000
  H   H379      1.0  0.16789  0.81406  0.34839  1.0000
  H   H380      1.0  0.16478  0.79322  0.32790  1.0000
  H   H381      1.0  0.10560  0.79508  0.35638  1.0000
  H   H382      1.0  0.10838  0.81680  0.37596  1.0000
  H   H383      1.0  0.08717  0.72413  0.20526  1.0000
  H   H384      1.0  0.07035  0.50866  0.28667  1.0000
  C   C481      1.0  0.12481  0.49764  0.27856  1.0000
  H   H385      1.0  0.14051  0.70389  0.07868  1.0000
  H   H386      1.0  0.12579  0.63781  0.26905  1.0000
  H   H387      1.0  0.17784  0.66013  0.08294  1.0000
  C   C482      1.0  0.07888  0.70196  0.26244  1.0000
  C   C483      1.0  0.07728  0.71904  0.26846  1.0000
  C   C484      1.0  0.08713  0.71923  0.28248  1.0000
  C   C485      1.0  0.09916  0.70240  0.29015  1.0000
  C   C486      1.0  0.10157  0.68555  0.28339  1.0000
  C   C487      1.0  0.09142  0.68529  0.26962  1.0000
  H   H388      1.0  0.06808  0.73212  0.26251  1.0000
  H   H389      1.0  0.08539  0.73238  0.28737  1.0000
  H   H390      1.0  0.11097  0.67255  0.28920  1.0000
  H   H391      1.0  0.09307  0.67215  0.26478  1.0000
  C   C488      1.0  0.11728  0.59986  0.27207  1.0000
  C   C489      1.0  0.09948  0.59677  0.28355  1.0000
  C   C490      1.0  0.09871  0.58486  0.30201  1.0000
  C   C491      1.0  0.11572  0.57600  0.30879  1.0000
  C   C492      1.0  0.13341  0.57934  0.29735  1.0000
  C   C493      1.0  0.13414  0.59139  0.27912  1.0000
  H   H392      1.0  0.08638  0.60354  0.27821  1.0000
  H   H393      1.0  0.08496  0.58277  0.31115  1.0000
  C   C494      1.0  0.11374  0.70295  0.20411  1.0000
  C   C495      1.0  0.10633  0.67263  0.05874  1.0000
  H   H394      1.0  0.16751  0.74820  0.27059  1.0000
  C   C496      1.0  0.12699  0.68398  0.15722  1.0000
  C   C497      1.0  0.10949  0.67788  0.16508  1.0000
  C   C498      1.0  0.10817  0.65936  0.16470  1.0000
  C   C499      1.0  0.12446  0.64678  0.15682  1.0000
  C   C500      1.0  0.14212  0.65270  0.14953  1.0000
  H   H395      1.0  0.09685  0.68764  0.17099  1.0000
  H   H396      1.0  0.12346  0.63239  0.15667  1.0000
  C   C501      1.0  0.14418  0.74969  0.37826  1.0000
  C   C502      1.0  0.13639  0.71512  0.47137  1.0000
  H   H397      1.0  0.12788  0.69847  0.15716  1.0000
  C   C503      1.0  0.10182  0.78742  0.41309  1.0000
  H   H398      1.0  0.09678  0.70932  0.12977  1.0000
  C   C504      1.0  0.10650  0.51548  0.36764  1.0000
  C   C505      1.0  0.13583  0.68691  0.43243  1.0000
  S   S84       1.0  0.03819  0.77221  0.33417  1.0000
  C   C506      1.0  0.10392  0.61829  0.02299  1.0000
  Fe  Fe40      1.0  0.17506  0.51356  0.34456  1.0000
  H   H399      1.0  0.16593  0.51255  0.25324  1.0000
  C   C507      1.0  0.16360  0.89116  0.32679  1.0000
  C   C508      1.0  0.03310  0.65867  0.99858  1.0000
  C   C509      1.0  0.00132  0.63602  0.24377  1.0000
  C   C510      1.0  0.00216  0.64849  0.22568  1.0000
  H   H400      1.0  0.18329  0.95449  0.33941  1.0000
  H   H401      1.0  0.17968  0.74071  0.44984  1.0000
  C   C511      1.0  0.98808  0.75428  0.34256  1.0000
  H   H402      1.0  0.01521  0.65367  0.21845  1.0000
  H   H403      1.0  0.15953  0.78026  0.42243  1.0000
  H   H404      1.0  0.15483  0.64285  0.14407  1.0000
  C   C512      1.0  0.18221  0.75173  0.35997  1.0000
  H   H405      1.0  0.17731  0.77657  0.37246  1.0000
  S   S85       1.0  0.15295  0.67703  0.44724  1.0000
  H   H406      1.0  0.14657  0.57285  0.30259  1.0000
  C   C513      1.0  0.11892  0.70862  0.10391  1.0000
  P   P17       1.0  0.13935  0.75021  0.44584  1.0000
  H   H407      1.0  0.12204  0.72231  0.10366  1.0000
  H   H408      1.0  0.17299  0.91721  0.32547  1.0000
  H   H409      1.0  0.12967  0.66636  0.24348  1.0000
  C   C514      1.0  0.09352  0.62994  0.00913  1.0000
  C   C515      1.0  0.11143  0.74786  0.42756  1.0000
  H   H410      1.0  0.09848  0.67772  0.07174  1.0000
  H   H411      1.0  0.13355  0.65406  0.01197  1.0000
  S   S86       1.0  0.16453  0.56978  0.33585  1.0000
  C   C516      1.0  0.12059  0.50347  0.35673  1.0000
  H   H412      1.0  0.14479  0.59500  0.08606  1.0000
  H   H413      1.0  0.18028  0.57310  0.41806  1.0000
  Fe  Fe41      1.0  0.18254  0.63290  0.98218  1.0000
  H   H414      1.0  0.14923  0.69278  0.03636  1.0000
  C   C517      1.0  0.18514  0.57693  0.38717  1.0000
  C   C518      1.0  0.16581  0.66469  0.26565  1.0000
  H   H415      1.0  0.09793  0.80279  0.40772  1.0000
  C   C519      1.0  0.16162  0.68832  0.04306  1.0000
  C   C520      1.0  0.15227  0.76402  0.38042  1.0000
  C   C521      1.0  0.06614  0.66208  0.98418  1.0000
  H   H416      1.0  0.16540  0.59329  0.23929  1.0000
  C   C522      1.0  0.16135  0.67513  0.06084  1.0000
  H   H417      1.0  0.09011  0.67765  0.13097  1.0000
  H   H418      1.0  0.15604  0.53323  0.27769  1.0000
  H   H419      1.0  0.14357  0.77485  0.38846  1.0000
  H   H420      1.0  0.10860  0.65879  0.10637  1.0000
  C   C523      1.0  0.11652  0.69172  0.44153  1.0000
  H   H421      1.0  0.15228  0.64943  0.10987  1.0000
  H   H422      1.0  0.09377  0.73881  0.22902  1.0000
  Fe  Fe42      1.0  0.17303  0.54843  0.36172  1.0000
  C   C524      1.0  0.11964  0.50850  0.29296  1.0000
  C   C525      1.0  0.14328  0.67142  0.14940  1.0000
  C   C526      1.0  0.09256  0.77498  0.40909  1.0000
  H   H423      1.0  0.12314  0.72560  0.24209  1.0000
  C   C527      1.0  0.13944  0.66146  0.25337  1.0000
  C   C528      1.0  0.12103  0.71929  0.23123  1.0000
  H   H424      1.0  0.11060  0.69629  0.19408  1.0000
  S   S87       1.0  0.15172  0.53036  0.36402  1.0000
  C   C529      1.0  0.13720  0.64509  0.26787  1.0000
  C   C530      1.0  0.07997  0.52689  0.29964  1.0000
  C   C531      1.0  0.06900  0.52316  0.28843  1.0000
  C   C532      1.0  0.05642  0.53828  0.27901  1.0000
  C   C533      1.0  0.05501  0.55724  0.28039  1.0000
  C   C534      1.0  0.06629  0.56110  0.29103  1.0000
  C   C535      1.0  0.07887  0.54602  0.30047  1.0000
  C   C536      1.0  0.10058  0.71871  0.21032  1.0000
  C   C537      1.0  0.17937  0.54923  0.22715  1.0000
  H   H425      1.0  0.07280  0.52972  0.33982  1.0000
  C   C538      1.0  0.09135  0.48430  0.31625  1.0000
  H   H426      1.0  0.04788  0.53535  0.27048  1.0000
  H   H427      1.0  0.04532  0.56900  0.27304  1.0000
  H   H428      1.0  0.06541  0.57587  0.29176  1.0000
  H   H429      1.0  0.08793  0.54929  0.30822  1.0000
  H   H430      1.0  0.15349  0.92229  0.35720  1.0000
  Fe  Fe43      1.0  0.14525  0.55027  0.33661  1.0000
  H   H431      1.0  0.13927  0.62767  0.06642  1.0000
  H   H432      1.0  0.05479  0.63715  0.98574  1.0000
  C   C539      1.0  0.15792  0.79904  0.46063  1.0000
  C   C540      1.0  0.17399  0.72210  0.23627  1.0000
  P   P18       1.0  0.15621  0.69332  0.23426  1.0000
  H   H433      1.0  0.09785  0.66540  0.01795  1.0000
  H   H434      1.0  0.17851  0.70537  0.01954  1.0000
  C   C541      1.0  0.04316  0.68755  0.99851  1.0000
  H   H435      1.0  0.12860  0.49178  0.33123  1.0000
  C   C542      1.0  0.14064  0.89770  0.36258  1.0000
  C   C543      1.0  0.13983  0.88203  0.35559  1.0000
  H   H436      1.0  0.11398  0.67200  0.98399  1.0000
  C   C544      1.0  0.15299  0.51160  0.26422  1.0000
  H   H437      1.0  0.99123  0.63613  0.34572  1.0000
  H   H438      1.0  0.16525  0.71446  0.19439  1.0000
  C   C545      1.0  0.17455  0.73662  0.35851  1.0000
  C   C546      1.0  0.16103  0.73666  0.43324  1.0000
  H   H439      1.0  0.14379  0.72749  0.28730  1.0000
  C   C547      1.0  0.99227  0.69910  0.22380  1.0000
  C   C548      1.0  0.10466  0.70134  0.11862  1.0000
  H   H440      1.0  0.00817  0.62804  0.30972  1.0000
  H   H441      1.0  0.18427  0.88046  0.26518  1.0000
  H   H442      1.0  0.16894  0.80677  0.43013  1.0000
  H   H443      1.0  0.17240  0.71631  0.31162  1.0000
  H   H444      1.0  0.13224  0.89986  0.37665  1.0000
  C   C549      1.0  0.14328  0.62558  0.08009  1.0000
  S   S88       1.0  0.16718  0.53245  0.31716  1.0000
  H   H445      1.0  0.15074  0.86609  0.33317  1.0000
  H   H446      1.0  0.15116  0.66811  0.36950  1.0000
  H   H447      1.0  0.18223  0.59406  0.16992  1.0000
  C   C550      1.0  0.13087  0.52156  0.29237  1.0000
  C   C551      1.0  0.11145  0.67281  0.10534  1.0000
  C   C552      1.0  0.16064  0.71030  0.24575  1.0000
  C   C553      1.0  0.14589  0.92742  0.27034  1.0000
  C   C554      1.0  0.15077  0.63763  0.10444  1.0000
  C   C555      1.0  0.18320  0.91053  0.40124  1.0000
  C   C556      1.0  0.16119  0.55495  0.18543  1.0000
  C   C557      1.0  0.16609  0.57198  0.18612  1.0000
  H   H448      1.0  0.17172  0.68901  0.37146  1.0000
  P   P19       1.0  0.15708  0.58191  0.20767  1.0000
  C   C558      1.0  0.17085  0.56886  0.22590  1.0000
  C   C559      1.0  0.15936  0.60682  0.20206  1.0000
  C   C560      1.0  0.14330  0.62205  0.20051  1.0000
  C   C561      1.0  0.14563  0.64114  0.19569  1.0000
  H   H449      1.0  0.12293  0.79022  0.42677  1.0000
  C   C562      1.0  0.15124  0.87874  0.33780  1.0000
  H   H450      1.0  0.09644  0.61337  0.03756  1.0000
  H   H451      1.0  0.16528  0.49171  0.31634  1.0000
  H   H452      1.0  0.08730  0.70337  0.43796  1.0000
  C   C563      1.0  0.15359  0.61895  0.11569  1.0000
  C   C564      1.0  0.15112  0.92094  0.25302  1.0000
  H   H453      1.0  0.16904  0.89900  0.23782  1.0000
  C   C565      1.0  0.13229  0.57948  0.21666  1.0000
  C   C566      1.0  0.12566  0.57175  0.23622  1.0000
  C   C567      1.0  0.10658  0.56949  0.24292  1.0000
  C   C568      1.0  0.09400  0.57479  0.23016  1.0000
  C   C569      1.0  0.10051  0.58238  0.21066  1.0000
  C   C570      1.0  0.11957  0.58476  0.20392  1.0000
  C   C571      1.0  0.13366  0.61926  0.99932  1.0000
  C   C572      1.0  0.99342  0.65030  0.34514  1.0000
  H   H454      1.0  0.12894  0.61936  0.20311  1.0000
  H   H455      1.0  0.13324  0.65281  0.19421  1.0000
  H   H456      1.0  0.10904  0.51774  0.38072  1.0000
  C   C573      1.0  0.15532  0.73591  0.36762  1.0000
  C   C574      1.0  0.09724  0.75523  0.41649  1.0000
  H   H457      1.0  0.11254  0.68892  0.45711  1.0000
  C   C575      1.0  0.13443  0.70351  0.22491  1.0000
  H   H458      1.0  0.08056  0.67721  0.04786  1.0000
  H   H459      1.0  0.14778  0.59442  0.27062  1.0000
  H   H460      1.0  0.13492  0.56804  0.24652  1.0000
  H   H461      1.0  0.10142  0.56417  0.25814  1.0000
  H   H462      1.0  0.07906  0.57357  0.23547  1.0000
  H   H463      1.0  0.09058  0.58706  0.20090  1.0000
  H   H464      1.0  0.12427  0.59106  0.18887  1.0000
  H   H465      1.0  0.15018  0.92226  0.29919  1.0000
  H   H466      1.0  0.18346  0.57578  0.26477  1.0000
  H   H467      1.0  0.14571  0.49024  0.25363  1.0000
  C   C576      1.0  0.00436  0.70240  0.20563  1.0000
  H   H468      1.0  0.13075  0.87207  0.36422  1.0000
  C   C577      1.0  0.18565  0.57269  0.15374  1.0000
  H   H469      1.0  0.02200  0.65029  0.00233  1.0000
  C   C578      1.0  0.17830  0.58083  0.17006  1.0000
  C   C579      1.0  0.17236  0.57829  0.23963  1.0000
  S   S89       1.0  0.18626  0.95743  0.41937  1.0000
  C   C580      1.0  0.14558  0.64112  0.08652  1.0000
  C   C581      1.0  0.14928  0.63839  0.28113  1.0000
  H   H470      1.0  0.06050  0.49508  0.32307  1.0000
  C   C582      1.0  0.18253  0.56838  0.25415  1.0000
  C   C583      1.0  0.10320  0.63657  0.99026  1.0000
  C   C584      1.0  0.17808  0.69579  0.03358  1.0000
  C   C585      1.0  0.16585  0.73748  0.26372  1.0000
  C   C586      1.0  0.12579  0.68002  0.09046  1.0000
  H   H471      1.0  0.16572  0.66001  0.18794  1.0000
  H   H472      1.0  0.02191  0.69135  0.40296  1.0000
  C   C587      1.0  0.16830  0.89990  0.28430  1.0000
  H   H473      1.0  0.07801  0.63380  0.01330  1.0000
  C   C588      1.0  0.16391  0.64521  0.19232  1.0000
  H   H474      1.0  0.18225  0.77478  0.28874  1.0000
  C   C589      1.0  0.15630  0.78183  0.43732  1.0000
  H   H475      1.0  0.17831  0.51113  0.40744  1.0000
  H   H476      1.0  0.16863  0.70749  0.10151  1.0000
  H   H477      1.0  0.16725  0.72530  0.06796  1.0000
  C   C590      1.0  0.15255  0.72579  0.27320  1.0000
  H   H478      1.0  0.08989  0.74560  0.41357  1.0000
  C   C591      1.0  0.08623  0.52241  0.34429  1.0000
  H   H479      1.0  0.14736  0.62570  0.29237  1.0000
  C   C592      1.0  0.16172  0.79683  0.44160  1.0000
  C   C593      1.0  0.15006  0.71217  0.26432  1.0000
  S   S90       1.0  0.17498  0.55716  0.38851  1.0000
  H   H480      1.0  0.01442  0.68247  0.01061  1.0000
  C   C594      1.0  0.14159  0.49898  0.26442  1.0000
  H   H481      1.0  0.01637  0.71426  0.24908  1.0000
  C   C595      1.0  0.15060  0.68011  0.33950  1.0000
  H   H482      1.0  0.00133  0.69861  0.19355  1.0000
  H   H483      1.0  0.13218  0.60414  0.02879  1.0000
  C   C596      1.0  0.18427  0.86100  0.30393  1.0000
  C   C597      1.0  0.14298  0.77124  0.47122  1.0000
  C   C598      1.0  0.17340  0.83341  0.30121  1.0000
  C   C599      1.0  0.16374  0.90730  0.33365  1.0000
  C   C600      1.0  0.07762  0.62472  0.33966  1.0000
  C   C601      1.0  0.08806  0.62605  0.32070  1.0000
  C   C602      1.0  0.08293  0.64212  0.30655  1.0000
  C   C603      1.0  0.06769  0.65718  0.31143  1.0000
  C   C604      1.0  0.05738  0.65618  0.33056  1.0000
  C   C605      1.0  0.06230  0.63969  0.34459  1.0000
  P   P20       1.0  0.03886  0.67614  0.33781  1.0000
  C   C606      1.0  0.04394  0.68011  0.35912  1.0000
  C   C607      1.0  0.03882  0.69782  0.31930  1.0000
  C   C608      1.0  0.04205  0.71455  0.32268  1.0000
  C   C609      1.0  0.04032  0.73169  0.30884  1.0000
  C   C610      1.0  0.03502  0.73236  0.29171  1.0000
  C   C611      1.0  0.03201  0.71573  0.28813  1.0000
  C   C612      1.0  0.03362  0.69859  0.30195  1.0000
  C   C613      1.0  0.02911  0.68433  0.37484  1.0000
  C   C614      1.0  0.03342  0.68770  0.39104  1.0000
  C   C615      1.0  0.05250  0.68684  0.39166  1.0000
  C   C616      1.0  0.06733  0.68245  0.37617  1.0000
  C   C617      1.0  0.06309  0.67923  0.35989  1.0000
  C   C618      1.0  0.01495  0.67154  0.34212  1.0000
  C   C619      1.0  0.01205  0.65311  0.34321  1.0000
  H   H484      1.0  0.17280  0.64308  0.29049  1.0000
  H   H485      1.0  0.03984  0.70160  0.00216  1.0000
  H   H486      1.0  0.07848  0.53430  0.36987  1.0000
  H   H487      1.0  0.18662  0.54940  0.14055  1.0000
  H   H488      1.0  0.08165  0.61218  0.35058  1.0000
  H   H489      1.0  0.10026  0.61471  0.31703  1.0000
  H   H490      1.0  0.09101  0.64304  0.29182  1.0000
  H   H491      1.0  0.06446  0.66970  0.30031  1.0000
  H   H492      1.0  0.05463  0.63865  0.35945  1.0000
  H   H493      1.0  0.04556  0.71461  0.33606  1.0000
  H   H494      1.0  0.04317  0.74446  0.31135  1.0000
  H   H495      1.0  0.03372  0.74566  0.28101  1.0000
  H   H496      1.0  0.02846  0.71614  0.27462  1.0000
  H   H497      1.0  0.03073  0.68597  0.29913  1.0000
  H   H498      1.0  0.01421  0.68542  0.37454  1.0000
  C   C620      1.0  0.17988  0.63016  0.19429  1.0000
  H   H499      1.0  0.05587  0.68993  0.40396  1.0000
  H   H500      1.0  0.08207  0.68220  0.37654  1.0000
  H   H501      1.0  0.07474  0.67649  0.34772  1.0000
  H   H502      1.0  0.02408  0.64100  0.34218  1.0000
  C   C621      1.0  0.15371  0.67150  0.25222  1.0000
  H   H503      1.0  0.13948  0.70341  0.27174  1.0000
  P   P21       1.0  0.13996  0.66560  0.07309  1.0000
  H   H504      1.0  0.17494  0.89931  0.40630  1.0000
  H   H505      1.0  0.14691  0.72808  0.41525  1.0000
  C   C622      1.0  0.16040  0.72774  0.41875  1.0000
  H   H506      1.0  0.15165  0.54798  0.19757  1.0000
  C   C623      1.0  0.14644  0.76922  0.45202  1.0000
  C   C624      1.0  0.11615  0.78011  0.42400  1.0000
  Fe  Fe44      1.0  0.18366  0.66284  0.43650  1.0000
  C   C625      1.0  0.15253  0.91038  0.35158  1.0000
  H   H507      1.0  0.13398  0.49619  0.36143  1.0000
  H   H508      1.0  0.13515  0.94054  0.27171  1.0000
  C   C626      1.0  0.01266  0.71109  0.23708  1.0000
  C   C627      1.0  0.02462  0.71457  0.21887  1.0000
  C   C628      1.0  0.02046  0.71025  0.20312  1.0000
  H   H509      1.0  0.11594  0.48807  0.27826  1.0000
  H   H510      1.0  0.08171  0.78062  0.40031  1.0000
  S   S91       1.0  0.16484  0.67957  0.13936  1.0000
  C   C629      1.0  0.01950  0.75915  0.34357  1.0000
  H   H511      1.0  0.00088  0.70134  0.34246  1.0000
  C   C630      1.0  0.01566  0.65338  0.28971  1.0000
  C   C631      1.0  0.00897  0.67081  0.27782  1.0000
  H   H512      1.0  0.12919  0.74934  0.38464  1.0000
  C   C632      1.0  0.10429  0.72696  0.22377  1.0000
  C   C633      1.0  0.15150  0.60359  0.10907  1.0000
  C   C634      1.0  0.14752  0.52306  0.27805  1.0000
  C   C635      1.0  0.10089  0.68348  0.11928  1.0000
  C   C636      1.0  0.12817  0.73478  0.46678  1.0000
  C   C637      1.0  0.17133  0.76497  0.37138  1.0000
  C   C638      1.0  0.08927  0.52482  0.36151  1.0000
  P   P22       1.0  0.17947  0.88634  0.30433  1.0000
  H   H513      1.0  0.14858  0.72511  0.36619  1.0000
  H   H514      1.0  0.17503  0.60913  0.05523  1.0000
  C   C639      1.0  0.15607  0.67848  0.35682  1.0000
  H   H515      1.0  0.03743  0.72010  0.21715  1.0000
  H   H516      1.0  0.03001  0.71248  0.18912  1.0000
  C   C640      1.0  0.16494  0.90401  0.25126  1.0000
  C   C641      1.0  0.17964  0.71552  0.09325  1.0000
  H   H517      1.0  0.15161  0.65438  0.03572  1.0000
  H   H518      1.0  0.03089  0.64841  0.28955  1.0000
  H   H519      1.0  0.01925  0.67923  0.26857  1.0000
  C   C642      1.0  0.17577  0.68854  0.21412  1.0000
  C   C643      1.0  0.99625  0.70348  0.23973  1.0000
  C   C644      1.0  0.12942  0.69806  0.08981  1.0000
  C   C645      1.0  0.18536  0.61835  0.04961  1.0000
  C   C646      1.0  0.14638  0.60690  0.09126  1.0000
  C   C647      1.0  0.09609  0.67236  0.04519  1.0000
  C   C648      1.0  0.10583  0.66574  0.02831  1.0000
  C   C649      1.0  0.12585  0.65939  0.02494  1.0000
  C   C650      1.0  0.13611  0.65962  0.03844  1.0000
  C   C651      1.0  0.12645  0.66632  0.05542  1.0000
  H   H520      1.0  0.14126  0.67118  0.33872  1.0000
  C   C652      1.0  0.17884  0.73474  0.43814  1.0000
  H   H521      1.0  0.07265  0.68880  0.98554  1.0000
  H   H522      1.0  0.10314  0.75702  0.47357  1.0000
  H   H523      1.0  0.11472  0.73252  0.43331  1.0000
  H   H524      1.0  0.17025  0.92382  0.42590  1.0000
  C   C653      1.0  0.18086  0.55566  0.15323  1.0000
  H   H525      1.0  0.16466  0.53374  0.16860  1.0000
  C   C654      1.0  0.17373  0.70418  0.34168  1.0000
  C   C655      1.0  0.00280  0.64191  0.30124  1.0000
  H   H526      1.0  0.16216  0.82732  0.29942  1.0000
  C   C656      1.0  0.16362  0.64818  0.28002  1.0000
  H   H527      1.0  0.14446  0.92905  0.24096  1.0000
  C   C657      1.0  0.17890  0.72552  0.07438  1.0000
  H   H528      1.0  0.15015  0.70908  0.46314  1.0000
  C   C658      1.0  0.16823  0.70567  0.32428  1.0000
  C   C659      1.0  0.17661  0.73561  0.24528  1.0000
  H   H529      1.0  0.15624  0.86211  0.29869  1.0000
  C   C660      1.0  0.17006  0.85311  0.30091  1.0000
  C   C661      1.0  0.17351  0.89351  0.26682  1.0000
  H   H530      1.0  0.17679  0.67228  0.26516  1.0000
  C   C662      1.0  0.15445  0.91697  0.28593  1.0000
  H   H531      1.0  0.18344  0.48403  0.39104  1.0000
  H   H532      1.0  0.15228  0.69489  0.30993  1.0000
  C   C663      1.0  0.02883  0.67679  0.00326  1.0000
  C   C664      1.0  0.17764  0.61107  0.19913  1.0000
  C   C665      1.0  0.15682  0.69356  0.32322  1.0000
  C   C666      1.0  0.17636  0.70152  0.19622  1.0000
  C   C667      1.0  0.16763  0.69042  0.35791  1.0000
  C   C668      1.0  0.06177  0.68024  0.98903  1.0000
  H   H533      1.0  0.18218  0.72114  0.22188  1.0000
  C   C669      1.0  0.07201  0.48247  0.32208  1.0000
  C   C670      1.0  0.12400  0.61301  0.01809  1.0000
  C   C671      1.0  0.16856  0.54683  0.16905  1.0000
  C   C672      1.0  0.18620  0.58140  0.40430  1.0000
  C   C673      1.0  0.17736  0.71803  0.40858  1.0000
  H   H534      1.0  0.17677  0.71117  0.39741  1.0000
  H   H535      1.0  0.17160  0.75632  0.32120  1.0000
  C   C674      1.0  0.18045  0.92452  0.41226  1.0000
  H   H536      1.0  0.17831  0.54156  0.21687  1.0000
  Fe  Fe45      1.0  0.18730  0.55010  0.31886  1.0000
  H   H537      1.0  0.99052  0.72621  0.31496  1.0000
  C   C675      1.0  0.18540  0.75084  0.31263  1.0000
  C   C676      1.0  0.98904  0.73910  0.35862  1.0000
  C   C677      1.0  0.98920  0.67714  0.27790  1.0000
  H   H538      1.0  0.98871  0.77604  0.37955  1.0000
  S   S92       1.0  0.00932  0.74817  0.66708  1.0000
  H   H539      1.0  0.99861  0.59513  0.87864  1.0000
  C   C678      1.0  0.11273  0.67868  0.96928  1.0000
  H   H540      1.0  0.03079  0.66039  0.69368  1.0000
  C   C679      1.0  0.00317  0.63756  0.76666  1.0000
  H   H541      1.0  0.11500  0.53587  0.74595  1.0000
  H   H542      1.0  0.14409  0.58030  0.61306  1.0000
  C   C680      1.0  0.16164  0.70121  0.79875  1.0000
  H   H543      1.0  0.02056  0.73961  0.73247  1.0000
  C   C681      1.0  0.15401  0.69159  0.86964  1.0000
  C   C682      1.0  0.15418  0.65677  0.85617  1.0000
  Fe  Fe46      1.0  0.08991  0.74781  0.71953  1.0000
  S   S93       1.0  0.11192  0.72257  0.71037  1.0000
  S   S94       1.0  0.05856  0.74565  0.72776  1.0000
  Fe  Fe47      1.0  0.12061  0.76872  0.72027  1.0000
  S   S95       1.0  0.14479  0.74501  0.71135  1.0000
  S   S96       1.0  0.12824  0.79525  0.72366  1.0000
  Fe  Fe48      1.0  0.12763  0.74487  0.69026  1.0000
  S   S97       1.0  0.14384  0.74471  0.65970  1.0000
  Fe  Fe49      1.0  0.12682  0.72524  0.73226  1.0000
  S   S98       1.0  0.14071  0.69905  0.75148  1.0000
  S   S99       1.0  0.10440  0.77010  0.69759  1.0000
  S   S100      1.0  0.10386  0.74899  0.74311  1.0000
  C   C683      1.0  0.00400  0.59506  0.86346  1.0000
  S   S101      1.0  0.15938  0.51073  0.78260  1.0000
  H   H544      1.0  0.16624  0.75771  0.77219  1.0000
  Fe  Fe50      1.0  0.10779  0.60375  0.86208  1.0000
  S   S102      1.0  0.11715  0.62026  0.83214  1.0000
  S   S103      1.0  0.12900  0.59229  0.88218  1.0000
  Fe  Fe51      1.0  0.06799  0.60493  0.85535  1.0000
  S   S104      1.0  0.07420  0.62167  0.82513  1.0000
  S   S105      1.0  0.03848  0.59813  0.86949  1.0000
  Fe  Fe52      1.0  0.10314  0.60171  0.82255  1.0000
  S   S106      1.0  0.11580  0.59467  0.79317  1.0000
  Fe  Fe53      1.0  0.08763  0.63887  0.83698  1.0000
  S   S107      1.0  0.08087  0.67094  0.82622  1.0000
  S   S108      1.0  0.09613  0.58329  0.85205  1.0000
  S   S109      1.0  0.07909  0.62392  0.86778  1.0000
  H   H545      1.0  0.08605  0.73519  0.50024  1.0000
  H   H546      1.0  0.16957  0.87973  0.80441  1.0000
  C   C684      1.0  0.15302  0.52507  0.91406  1.0000
  C   C685      1.0  0.01671  0.65614  0.78762  1.0000
  C   C686      1.0  0.18136  0.48299  0.84686  1.0000
  C   C687      1.0  0.15256  0.64816  0.84182  1.0000
  C   C688      1.0  0.11094  0.50341  0.78852  1.0000
  H   H547      1.0  0.98865  0.64812  0.84731  1.0000
  H   H548      1.0  0.00445  0.69922  0.69932  1.0000
  H   H549      1.0  0.01778  0.74622  0.78445  1.0000
  H   H550      1.0  0.14155  0.67607  0.89748  1.0000
  H   H551      1.0  0.16163  0.94889  0.74285  1.0000
  C   C689      1.0  0.14591  0.53363  0.78567  1.0000
  C   C690      1.0  0.13787  0.53720  0.80426  1.0000
  C   C691      1.0  0.12855  0.55594  0.80683  1.0000
  C   C692      1.0  0.12701  0.57100  0.79076  1.0000
  C   C693      1.0  0.13478  0.56735  0.77219  1.0000
  C   C694      1.0  0.14429  0.54872  0.76963  1.0000
  H   H552      1.0  0.13933  0.52559  0.81664  1.0000
  H   H553      1.0  0.12268  0.55877  0.82118  1.0000
  H   H554      1.0  0.13372  0.57903  0.75977  1.0000
  H   H555      1.0  0.06551  0.65955  0.68098  1.0000
  C   C695      1.0  0.12392  0.69125  0.77213  1.0000
  C   C696      1.0  0.13019  0.67604  0.78662  1.0000
  C   C697      1.0  0.11693  0.66958  0.80307  1.0000
  C   C698      1.0  0.09747  0.67866  0.80543  1.0000
  C   C699      1.0  0.09120  0.69397  0.79104  1.0000
  C   C700      1.0  0.10435  0.70003  0.77426  1.0000
  H   H556      1.0  0.14531  0.66924  0.78508  1.0000
  H   H557      1.0  0.12180  0.65786  0.81413  1.0000
  H   H558      1.0  0.07612  0.70096  0.79273  1.0000
  H   H559      1.0  0.09927  0.71145  0.76299  1.0000
  H   H560      1.0  0.11522  0.70710  0.88075  1.0000
  H   H561      1.0  0.15868  0.62197  0.83131  1.0000
  C   C701      1.0  0.08952  0.63309  0.65246  1.0000
  S   S110      1.0  0.14105  0.64668  0.93107  1.0000
  H   H562      1.0  0.15778  0.77369  0.60862  1.0000
  C   C702      1.0  0.11435  0.59235  0.68050  1.0000
  C   C703      1.0  0.17269  0.70537  0.89063  1.0000
  H   H563      1.0  0.99328  0.54511  0.81585  1.0000
  C   C704      1.0  0.13870  0.63151  0.91699  1.0000
  C   C705      1.0  0.16460  0.64564  0.87032  1.0000
  C   C706      1.0  0.15657  0.68694  0.64217  1.0000
  C   C707      1.0  0.16804  0.70043  0.63261  1.0000
  C   C708      1.0  0.16383  0.71828  0.63791  1.0000
  C   C709      1.0  0.14853  0.72246  0.65314  1.0000
  C   C710      1.0  0.13717  0.70890  0.66283  1.0000
  C   C711      1.0  0.14102  0.69125  0.65717  1.0000
  C   C712      1.0  0.18679  0.95515  0.79654  1.0000
  H   H564      1.0  0.14734  0.51822  0.86590  1.0000
  H   H565      1.0  0.12507  0.71220  0.67429  1.0000
  H   H566      1.0  0.13201  0.68095  0.66451  1.0000
  C   C713      1.0  0.14968  0.61276  0.91764  1.0000
  C   C714      1.0  0.14660  0.60084  0.90692  1.0000
  C   C715      1.0  0.13276  0.60768  0.89526  1.0000
  C   C716      1.0  0.12199  0.62650  0.89444  1.0000
  C   C717      1.0  0.12483  0.63828  0.90540  1.0000
  H   H567      1.0  0.16035  0.60737  0.92658  1.0000
  H   H568      1.0  0.15504  0.58633  0.90761  1.0000
  H   H569      1.0  0.11118  0.63179  0.88570  1.0000
  C   C718      1.0  0.17833  0.62349  0.75843  1.0000
  C   C719      1.0  0.17004  0.80263  0.74627  1.0000
  C   C720      1.0  0.15588  0.80562  0.73545  1.0000
  C   C721      1.0  0.14578  0.79118  0.73751  1.0000
  C   C722      1.0  0.14967  0.77380  0.75067  1.0000
  C   C723      1.0  0.16360  0.77095  0.76172  1.0000
  C   C724      1.0  0.16237  0.97836  0.74138  1.0000
  H   H570      1.0  0.15283  0.81912  0.72536  1.0000
  H   H571      1.0  0.14174  0.76272  0.75252  1.0000
  H   H572      1.0  0.18245  0.50449  0.86142  1.0000
  H   H573      1.0  0.18535  0.66191  0.51570  1.0000
  H   H574      1.0  0.03372  0.69278  0.81776  1.0000
  C   C725      1.0  0.11044  0.69626  0.93111  1.0000
  C   C726      1.0  0.02320  0.59659  0.85507  1.0000
  C   C727      1.0  0.02999  0.59656  0.83544  1.0000
  C   C728      1.0  0.01788  0.59433  0.82450  1.0000
  C   C729      1.0  0.17012  0.80679  0.51305  1.0000
  H   H575      1.0  0.11554  0.72691  0.80227  1.0000
  H   H576      1.0  0.04471  0.59772  0.82880  1.0000
  H   H577      1.0  0.02331  0.59403  0.80945  1.0000
  C   C730      1.0  0.02259  0.74808  0.68412  1.0000
  C   C731      1.0  0.04127  0.75186  0.67760  1.0000
  C   C732      1.0  0.05258  0.75099  0.69078  1.0000
  C   C733      1.0  0.04512  0.74662  0.71062  1.0000
  C   C734      1.0  0.02640  0.74301  0.71715  1.0000
  C   C735      1.0  0.01518  0.74373  0.70397  1.0000
  H   H578      1.0  0.04697  0.75552  0.66229  1.0000
  H   H579      1.0  0.06691  0.75396  0.68563  1.0000
  H   H580      1.0  0.15463  0.63171  0.62056  1.0000
  H   H581      1.0  0.11218  0.61523  0.96163  1.0000
  H   H582      1.0  0.15768  0.66459  0.73053  1.0000
  H   H583      1.0  0.02332  0.63658  0.84684  1.0000
  H   H584      1.0  0.05928  0.50686  0.79799  1.0000
  C   C736      1.0  0.14533  0.71401  0.79315  1.0000
  H   H585      1.0  0.18695  0.93848  0.89107  1.0000
  C   C737      1.0  0.12236  0.78032  0.53599  1.0000
  C   C738      1.0  0.11422  0.77325  0.52470  1.0000
  C   C739      1.0  0.11179  0.75421  0.53009  1.0000
  C   C740      1.0  0.11758  0.74222  0.54669  1.0000
  C   C741      1.0  0.12628  0.74905  0.55783  1.0000
  C   C742      1.0  0.12827  0.76832  0.55255  1.0000
  P   P23       1.0  0.13376  0.73347  0.57931  1.0000
  C   C743      1.0  0.11331  0.73323  0.59940  1.0000
  C   C744      1.0  0.14360  0.70931  0.57521  1.0000
  C   C745      1.0  0.14368  0.69351  0.59080  1.0000
  C   C746      1.0  0.15119  0.67481  0.58756  1.0000
  C   C747      1.0  0.15860  0.67176  0.56882  1.0000
  C   C748      1.0  0.15907  0.68746  0.55329  1.0000
  C   C749      1.0  0.15199  0.70618  0.55648  1.0000
  C   C750      1.0  0.11617  0.72861  0.61842  1.0000
  C   C751      1.0  0.10041  0.72864  0.63398  1.0000
  C   C752      1.0  0.08169  0.73304  0.63073  1.0000
  C   C753      1.0  0.07869  0.73747  0.61189  1.0000
  C   C754      1.0  0.09441  0.73757  0.59626  1.0000
  C   C755      1.0  0.15242  0.74181  0.58486  1.0000
  H   H586      1.0  0.14565  0.72107  0.77816  1.0000
  H   H587      1.0  0.16084  0.78973  0.54101  1.0000
  C   C756      1.0  0.02368  0.68323  0.82440  1.0000
  C   C757      1.0  0.13036  0.57865  0.71343  1.0000
  H   H588      1.0  0.13167  0.50405  0.76166  1.0000
  H   H589      1.0  0.12387  0.79521  0.53202  1.0000
  H   H590      1.0  0.10949  0.78263  0.51198  1.0000
  H   H591      1.0  0.10515  0.74881  0.52155  1.0000
  H   H592      1.0  0.11520  0.72761  0.55087  1.0000
  H   H593      1.0  0.13422  0.77416  0.56127  1.0000
  H   H594      1.0  0.13843  0.69556  0.60548  1.0000
  C   C758      1.0  0.12080  0.70279  0.94072  1.0000
  C   C759      1.0  0.01785  0.65153  0.84078  1.0000
  H   H595      1.0  0.17357  0.68175  0.82216  1.0000
  H   H596      1.0  0.15339  0.71811  0.54434  1.0000
  H   H597      1.0  0.13056  0.72506  0.62126  1.0000
  H   H598      1.0  0.10271  0.72543  0.64859  1.0000
  H   H599      1.0  0.08055  0.63640  0.62581  1.0000
  H   H600      1.0  0.06411  0.74096  0.60945  1.0000
  H   H601      1.0  0.09166  0.74112  0.58185  1.0000
  H   H602      1.0  0.04584  0.65872  0.83218  1.0000
  Fe  Fe54      1.0  0.17991  0.51276  0.75381  1.0000
  H   H603      1.0  0.09377  0.67577  0.93258  1.0000
  C   C760      1.0  0.17331  0.49845  0.85620  1.0000
  C   C761      1.0  0.13818  0.81046  0.67387  1.0000
  C   C762      1.0  0.15354  0.50618  0.85870  1.0000
  C   C763      1.0  0.08486  0.61821  0.92970  1.0000
  C   C764      1.0  0.07252  0.63599  0.93133  1.0000
  C   C765      1.0  0.07417  0.64628  0.94423  1.0000
  C   C766      1.0  0.00680  0.72365  0.77974  1.0000
  H   H604      1.0  0.18429  0.63570  0.78804  1.0000
  H   H605      1.0  0.16381  0.69295  0.49691  1.0000
  H   H606      1.0  0.17877  0.82779  0.64006  1.0000
  C   C767      1.0  0.99180  0.59305  0.85240  1.0000
  H   H607      1.0  0.99806  0.63019  0.75861  1.0000
  H   H608      1.0  0.00346  0.63759  0.81279  1.0000
  C   C768      1.0  0.15751  0.52822  0.60413  1.0000
  C   C769      1.0  0.09405  0.51322  0.79877  1.0000
  H   H609      1.0  0.13028  0.69885  0.96715  1.0000
  C   C770      1.0  0.17549  0.71142  0.87056  1.0000
  C   C771      1.0  0.14983  0.48311  0.84223  1.0000
  H   H610      1.0  0.17086  0.53346  0.65164  1.0000
  C   C772      1.0  0.16622  0.70454  0.86006  1.0000
  H   H611      1.0  0.11862  0.48977  0.79547  1.0000
  H   H612      1.0  0.16614  0.65156  0.88172  1.0000
  C   C773      1.0  0.99094  0.67772  0.83367  1.0000
  H   H613      1.0  0.15180  0.66268  0.59961  1.0000
  H   H614      1.0  0.99878  0.70499  0.81868  1.0000
  C   C774      1.0  0.11001  0.74199  0.47738  1.0000
  C   C775      1.0  0.18076  0.68535  0.68778  1.0000
  H   H615      1.0  0.00084  0.74086  0.70919  1.0000
  S   S111      1.0  0.18438  0.56920  0.69921  1.0000
  H   H616      1.0  0.06181  0.64184  0.92243  1.0000
  H   H617      1.0  0.06451  0.66005  0.94529  1.0000
  H   H618      1.0  0.16769  0.71554  0.68441  1.0000
  C   C776      1.0  0.10239  0.67189  0.95969  1.0000
  H   H619      1.0  0.10894  0.59729  0.93909  1.0000
  C   C777      1.0  0.02137  0.73264  0.77981  1.0000
  H   H620      1.0  0.11354  0.80846  0.66435  1.0000
  C   C778      1.0  0.18235  0.87630  0.81046  1.0000
  C   C779      1.0  0.10853  0.71004  0.49682  1.0000
  H   H621      1.0  0.13116  0.63589  0.97110  1.0000
  C   C780      1.0  0.99910  0.63283  0.78675  1.0000
  C   C781      1.0  0.16089  0.69174  0.81803  1.0000
  H   H622      1.0  0.16481  0.65729  0.56634  1.0000
  H   H623      1.0  0.99800  0.51233  0.80973  1.0000
  Fe  Fe55      1.0  0.16652  0.64247  0.94502  1.0000
  C   C782      1.0  0.16177  0.76278  0.60000  1.0000
  C   C783      1.0  0.17090  0.53540  0.60931  1.0000
  C   C784      1.0  0.14804  0.56574  0.61069  1.0000
  H   H624      1.0  0.10077  0.70034  0.50805  1.0000
  C   C785      1.0  0.15875  0.65181  0.74189  1.0000
  C   C786      1.0  0.10076  0.62109  0.95364  1.0000
  C   C787      1.0  0.03059  0.66401  0.83246  1.0000
  C   C788      1.0  0.04061  0.72459  0.77298  1.0000
  C   C789      1.0  0.04531  0.70768  0.76588  1.0000
  C   C790      1.0  0.03081  0.69820  0.76640  1.0000
  C   C791      1.0  0.10897  0.52947  0.76061  1.0000
  P   P24       1.0  0.03642  0.67775  0.75524  1.0000
  C   C792      1.0  0.03520  0.68750  0.73024  1.0000
  C   C793      1.0  0.05997  0.66311  0.75728  1.0000
  C   C794      1.0  0.06922  0.65095  0.74423  1.0000
  C   C795      1.0  0.08679  0.63837  0.74638  1.0000
  C   C796      1.0  0.09529  0.63793  0.76147  1.0000
  C   C797      1.0  0.08606  0.64979  0.77471  1.0000
  C   C798      1.0  0.06829  0.66214  0.77283  1.0000
  C   C799      1.0  0.01802  0.69046  0.72381  1.0000
  C   C800      1.0  0.01768  0.69714  0.70423  1.0000
  C   C801      1.0  0.03418  0.70171  0.69106  1.0000
  C   C802      1.0  0.05093  0.70008  0.69756  1.0000
  C   C803      1.0  0.05139  0.69313  0.71711  1.0000
  C   C804      1.0  0.02058  0.66123  0.76740  1.0000
  H   H625      1.0  0.18091  0.75572  0.72467  1.0000
  C   C805      1.0  0.02906  0.50764  0.80351  1.0000
  H   H626      1.0  0.18269  0.81992  0.48416  1.0000
  H   H627      1.0  0.17454  0.97457  0.74840  1.0000
  C   C806      1.0  0.01411  0.65147  0.75698  1.0000
  H   H628      1.0  0.17222  0.97709  0.81285  1.0000
  H   H629      1.0  0.14026  0.52244  0.92489  1.0000
  H   H630      1.0  0.05187  0.73206  0.77207  1.0000
  H   H631      1.0  0.06018  0.70253  0.75935  1.0000
  C   C807      1.0  0.15819  0.80510  0.67194  1.0000
  H   H632      1.0  0.06259  0.65086  0.73269  1.0000
  H   H633      1.0  0.09371  0.62878  0.73651  1.0000
  H   H634      1.0  0.10882  0.62803  0.76315  1.0000
  H   H635      1.0  0.09250  0.64917  0.78666  1.0000
  H   H636      1.0  0.06107  0.67067  0.78368  1.0000
  H   H637      1.0  0.00482  0.68774  0.73380  1.0000
  C   C808      1.0  0.08973  0.64050  0.63282  1.0000
  H   H638      1.0  0.14470  0.65641  0.83074  1.0000
  H   H639      1.0  0.06325  0.70495  0.68756  1.0000
  H   H640      1.0  0.06418  0.69262  0.72211  1.0000
  H   H641      1.0  0.17254  0.72879  0.63030  1.0000
  P   P25       1.0  0.18371  0.56330  0.61929  1.0000
  C   C809      1.0  0.18630  0.74015  0.58335  1.0000
  H   H642      1.0  0.17530  0.54998  0.78327  1.0000
  H   H643      1.0  0.01769  0.65425  0.74143  1.0000
  H   H644      1.0  0.15708  0.59420  0.67575  1.0000
  H   H645      1.0  0.10989  0.70286  0.91622  1.0000
  C   C810      1.0  0.10028  0.72966  0.49243  1.0000
  H   H646      1.0  0.17001  0.68191  0.68223  1.0000
  C   C811      1.0  0.07475  0.63138  0.69835  1.0000
  C   C812      1.0  0.10129  0.63844  0.66168  1.0000
  C   C813      1.0  0.11305  0.65147  0.65097  1.0000
  C   C814      1.0  0.11309  0.65896  0.63143  1.0000
  C   C815      1.0  0.10152  0.65345  0.62229  1.0000
  C   C816      1.0  0.06104  0.64752  0.69186  1.0000
  C   C817      1.0  0.04134  0.64806  0.69894  1.0000
  C   C818      1.0  0.03512  0.63246  0.71238  1.0000
  C   C819      1.0  0.04862  0.61642  0.71901  1.0000
  C   C820      1.0  0.06836  0.61592  0.71220  1.0000
  H   H647      1.0  0.12221  0.65600  0.65758  1.0000
  H   H648      1.0  0.12207  0.66918  0.62349  1.0000
  H   H649      1.0  0.10158  0.65935  0.60712  1.0000
  C   C821      1.0  0.16933  0.79414  0.65827  1.0000
  H   H650      1.0  0.01978  0.63280  0.71745  1.0000
  H   H651      1.0  0.04379  0.60413  0.72905  1.0000
  H   H652      1.0  0.07848  0.60321  0.71743  1.0000
  C   C822      1.0  0.00613  0.64187  0.79723  1.0000
  C   C823      1.0  0.99886  0.59230  0.83292  1.0000
  C   C824      1.0  0.12743  0.70781  0.82605  1.0000
  H   H653      1.0  0.12906  0.53419  0.59816  1.0000
  C   C825      1.0  0.11743  0.68297  0.86792  1.0000
  C   C826      1.0  0.10695  0.67104  0.86467  1.0000
  C   C827      1.0  0.08731  0.67266  0.87289  1.0000
  C   C828      1.0  0.07793  0.68625  0.88430  1.0000
  C   C829      1.0  0.08812  0.69848  0.88726  1.0000
  C   C830      1.0  0.10774  0.69701  0.87892  1.0000
  H   H654      1.0  0.11607  0.65265  0.90506  1.0000
  H   H655      1.0  0.12825  0.71444  0.93329  1.0000
  C   C831      1.0  0.14744  0.75640  0.59549  1.0000
  P   P26       1.0  0.09018  0.65231  0.97226  1.0000
  H   H656      1.0  0.11374  0.66065  0.85558  1.0000
  H   H657      1.0  0.07928  0.66364  0.87001  1.0000
  H   H658      1.0  0.06266  0.68755  0.89045  1.0000
  H   H659      1.0  0.08073  0.70936  0.89570  1.0000
  H   H660      1.0  0.13966  0.62809  0.69063  1.0000
  C   C832      1.0  0.18119  0.75470  0.59390  1.0000
  H   H661      1.0  0.16486  0.80927  0.68138  1.0000
  C   C833      1.0  0.17056  0.54732  0.89003  1.0000
  C   C834      1.0  0.01150  0.70642  0.77315  1.0000
  C   C835      1.0  0.12411  0.57315  0.68472  1.0000
  H   H662      1.0  0.12962  0.81851  0.68479  1.0000
  H   H663      1.0  0.18726  0.91703  0.76494  1.0000
  C   C836      1.0  0.08826  0.63887  0.95558  1.0000
  C   C837      1.0  0.17737  0.57434  0.82844  1.0000
  H   H664      1.0  0.03111  0.49335  0.80082  1.0000
  H   H665      1.0  0.13271  0.68745  0.48906  1.0000
  H   H666      1.0  0.12649  0.50457  0.85352  1.0000
  C   C838      1.0  0.16015  0.78874  0.64653  1.0000
  H   H667      1.0  0.02231  0.66283  0.79590  1.0000
  C   C839      1.0  0.18128  0.80654  0.49451  1.0000
  H   H668      1.0  0.12069  0.56749  0.60387  1.0000
  H   H669      1.0  0.13351  0.95763  0.72715  1.0000
  H   H670      1.0  0.16574  0.68505  0.53886  1.0000
  H   H671      1.0  0.08390  0.61040  0.91942  1.0000
  C   C840      1.0  0.13229  0.56637  0.70105  1.0000
  H   H672      1.0  0.16867  0.70932  0.84455  1.0000
  C   C841      1.0  0.15472  0.61466  0.64912  1.0000
  C   C842      1.0  0.16886  0.78949  0.52642  1.0000
  H   H673      1.0  0.18008  0.61753  0.88176  1.0000
  P   P27       1.0  0.14256  0.68170  0.85645  1.0000
  H   H674      1.0  0.18612  0.95972  0.84156  1.0000
  C   C843      1.0  0.13038  0.64072  0.69554  1.0000
  C   C844      1.0  0.13469  0.55852  0.60546  1.0000
  H   H675      1.0  0.12573  0.56363  0.67508  1.0000
  H   H676      1.0  0.08851  0.50679  0.81358  1.0000
  C   C845      1.0  0.15938  0.59624  0.66022  1.0000
  H   H677      1.0  0.14042  0.55170  0.70400  1.0000
  C   C846      1.0  0.00393  0.69005  0.82494  1.0000
  C   C847      1.0  0.14009  0.79399  0.64865  1.0000
  H   H678      1.0  0.16766  0.49530  0.91833  1.0000
  H   H679      1.0  0.13698  0.57341  0.72594  1.0000
  H   H680      1.0  0.17435  0.54786  0.84869  1.0000
  H   H681      1.0  0.18036  0.84670  0.82241  1.0000
  C   C848      1.0  0.12711  0.66963  0.70717  1.0000
  C   C849      1.0  0.04505  0.51540  0.80194  1.0000
  C   C850      1.0  0.14401  0.63253  0.77135  1.0000
  C   C851      1.0  0.16192  0.62033  0.77279  1.0000
  P   P28       1.0  0.10006  0.62982  0.68731  1.0000
  H   H682      1.0  0.11391  0.71042  0.83622  1.0000
  C   C852      1.0  0.16037  0.69270  0.90024  1.0000
  C   C853      1.0  0.17056  0.61765  0.85636  1.0000
  H   H683      1.0  0.13246  0.76269  0.60057  1.0000
  H   H684      1.0  0.18077  0.96276  0.78397  1.0000
  C   C854      1.0  0.14180  0.49846  0.85178  1.0000
  C   C855      1.0  0.15095  0.68600  0.88982  1.0000
  H   H685      1.0  0.16281  0.82042  0.51716  1.0000
  H   H686      1.0  0.16951  0.60418  0.60452  1.0000
  C   C856      1.0  0.12826  0.71730  0.80678  1.0000
  C   C857      1.0  0.17200  0.73378  0.57873  1.0000
  H   H687      1.0  0.10850  0.59730  0.66758  1.0000
  C   C858      1.0  0.17181  0.58318  0.63118  1.0000
  H   H688      1.0  0.17635  0.72240  0.57065  1.0000
  S   S112      1.0  0.18291  0.61530  0.96087  1.0000
  H   H689      1.0  0.09866  0.68737  0.71135  1.0000
  H   H690      1.0  0.07999  0.62337  0.66049  1.0000
  H   H691      1.0  0.14903  0.62693  0.65595  1.0000
  C   C859      1.0  0.01041  0.51830  0.80852  1.0000
  C   C860      1.0  0.17088  0.73483  0.50321  1.0000
  C   C861      1.0  0.16103  0.72102  0.50281  1.0000
  C   C862      1.0  0.17129  0.70372  0.49728  1.0000
  C   C863      1.0  0.15505  0.96392  0.73831  1.0000
  H   H692      1.0  0.17613  0.72799  0.75932  1.0000
  C   C864      1.0  0.15806  0.61735  0.62911  1.0000
  S   S113      1.0  0.16145  0.66478  0.63536  1.0000
  H   H693      1.0  0.11905  0.60693  0.71929  1.0000
  H   H694      1.0  0.06948  0.73312  0.64280  1.0000
  C   C865      1.0  0.09920  0.66213  0.70124  1.0000
  H   H695      1.0  0.15061  0.54608  0.75526  1.0000
  C   C866      1.0  0.10124  0.68089  0.94051  1.0000
  C   C867      1.0  0.11048  0.64500  0.69588  1.0000
  C   C868      1.0  0.12037  0.59776  0.70942  1.0000
  C   C869      1.0  0.11833  0.51149  0.76943  1.0000
  H   H696      1.0  0.08406  0.66623  0.70095  1.0000
  H   H697      1.0  0.17471  0.69838  0.78805  1.0000
  H   H698      1.0  0.03355  0.70760  0.67601  1.0000
  H   H699      1.0  0.16274  0.74828  0.50714  1.0000
  H   H700      1.0  0.14544  0.72373  0.50664  1.0000
  C   C870      1.0  0.13941  0.53977  0.60222  1.0000
  C   C871      1.0  0.17663  0.63954  0.74315  1.0000
  H   H701      1.0  0.16285  0.60868  0.78526  1.0000
  C   C872      1.0  0.16659  0.60171  0.62012  1.0000
  C   C873      1.0  0.10745  0.67424  0.70707  1.0000
  C   C874      1.0  0.11261  0.60491  0.69269  1.0000
  H   H702      1.0  0.13298  0.78906  0.64018  1.0000
  C   C875      1.0  0.16843  0.50981  0.91032  1.0000
  C   C876      1.0  0.00773  0.53673  0.81197  1.0000
  H   H703      1.0  0.17654  0.76432  0.69127  1.0000
  C   C877      1.0  0.04248  0.53399  0.80529  1.0000
  C   C878      1.0  0.02366  0.54450  0.81039  1.0000
  P   P29       1.0  0.06299  0.54421  0.80355  1.0000
  C   C879      1.0  0.06606  0.54341  0.82747  1.0000
  C   C880      1.0  0.08457  0.53135  0.79006  1.0000
  H   H704      1.0  0.18011  0.71038  0.89879  1.0000
  S   S114      1.0  0.17247  0.51791  0.72477  1.0000
  H   H705      1.0  0.16831  0.78006  0.63610  1.0000
  C   C881      1.0  0.18601  0.53201  0.88585  1.0000
  C   C882      1.0  0.09214  0.53939  0.77085  1.0000
  C   C883      1.0  0.08461  0.53989  0.83128  1.0000
  C   C884      1.0  0.08699  0.54049  0.84941  1.0000
  C   C885      1.0  0.07088  0.54502  0.86377  1.0000
  C   C886      1.0  0.05241  0.54879  0.86007  1.0000
  C   C887      1.0  0.04997  0.54796  0.84204  1.0000
  C   C888      1.0  0.05901  0.56919  0.79140  1.0000
  C   C889      1.0  0.06918  0.58163  0.79424  1.0000
  C   C890      1.0  0.06556  0.60118  0.78558  1.0000
  C   C891      1.0  0.05174  0.60845  0.77411  1.0000
  C   C892      1.0  0.04195  0.59606  0.77078  1.0000
  C   C893      1.0  0.04583  0.57643  0.77906  1.0000
  H   H706      1.0  0.15394  0.64951  0.70097  1.0000
  C   C894      1.0  0.12192  0.69402  0.95981  1.0000
  H   H707      1.0  0.02118  0.55886  0.81300  1.0000
  H   H708      1.0  0.16437  0.57555  0.82341  1.0000
  H   H709      1.0  0.00012  0.69982  0.77267  1.0000
  H   H710      1.0  0.08526  0.55338  0.76377  1.0000
  H   H711      1.0  0.09727  0.53725  0.82011  1.0000
  H   H712      1.0  0.10132  0.53816  0.85209  1.0000
  H   H713      1.0  0.07267  0.54623  0.87760  1.0000
  H   H714      1.0  0.03992  0.55303  0.87097  1.0000
  H   H715      1.0  0.03550  0.55154  0.83949  1.0000
  H   H716      1.0  0.07975  0.57636  0.80332  1.0000
  H   H717      1.0  0.07326  0.61071  0.78811  1.0000
  H   H718      1.0  0.04843  0.62369  0.76807  1.0000
  H   H719      1.0  0.03087  0.60174  0.76235  1.0000
  H   H720      1.0  0.03809  0.56710  0.77626  1.0000
  C   C895      1.0  0.14238  0.64814  0.75579  1.0000
  H   H721      1.0  0.13143  0.63013  0.78255  1.0000
  H   H722      1.0  0.12858  0.65790  0.75492  1.0000
  H   H723      1.0  0.18494  0.72137  0.86314  1.0000
  C   C896      1.0  0.12655  0.70279  0.48626  1.0000
  C   C897      1.0  0.15412  0.54381  0.90396  1.0000
  C   C898      1.0  0.09895  0.61077  0.94087  1.0000
  C   C899      1.0  0.16062  0.62867  0.84198  1.0000
  H   H724      1.0  0.15836  0.68774  0.91577  1.0000
  H   H725      1.0  0.14223  0.55571  0.90693  1.0000
  H   H726      1.0  0.13599  0.76135  0.48287  1.0000
  C   C900      1.0  0.12912  0.80482  0.66233  1.0000
  C   C901      1.0  0.13860  0.65291  0.70132  1.0000
  C   C902      1.0  0.17397  0.78525  0.75939  1.0000
  C   C903      1.0  0.14371  0.69482  0.83179  1.0000
  H   H727      1.0  0.13343  0.67928  0.71142  1.0000
  C   C904      1.0  0.16799  0.58053  0.65135  1.0000
  H   H728      1.0  0.17211  0.56657  0.66034  1.0000
  H   H729      1.0  0.17109  0.56205  0.88255  1.0000
  H   H730      1.0  0.17493  0.58358  0.76645  1.0000
  H   H731      1.0  0.18492  0.52631  0.61058  1.0000
  C   C905      1.0  0.18634  0.53143  0.64967  1.0000
  C   C906      1.0  0.16623  0.55419  0.61271  1.0000
  C   C907      1.0  0.13925  0.96887  0.72939  1.0000
  H   H732      1.0  0.18596  0.60730  0.67741  1.0000
  C   C908      1.0  0.17952  0.70434  0.68886  1.0000
  H   H733      1.0  0.16118  0.51369  0.60158  1.0000
  C   C909      1.0  0.17272  0.62619  0.87036  1.0000
  H   H734      1.0  0.17617  0.60237  0.85703  1.0000
  H   H735      1.0  0.17789  0.81377  0.74443  1.0000
  H   H736      1.0  0.17787  0.75864  0.53184  1.0000
  H   H737      1.0  0.99188  0.73034  0.78431  1.0000
  H   H738      1.0  0.99062  0.62204  0.79419  1.0000
  C   C910      1.0  0.18305  0.55871  0.84280  1.0000
  C   C911      1.0  0.99811  0.65826  0.84123  1.0000
  H   H739      1.0  0.14622  0.78770  0.49026  1.0000
  C   C912      1.0  0.18194  0.96316  0.81287  1.0000
  H   H740      1.0  0.18009  0.69723  0.62106  1.0000
  S   S115      1.0  0.16347  0.65904  0.96797  1.0000
  C   C913      1.0  0.18491  0.51325  0.89638  1.0000
  C   C914      1.0  0.17851  0.77191  0.52116  1.0000
  H   H741      1.0  0.18410  0.60043  0.80944  1.0000
  H   H742      1.0  0.18657  0.74859  0.66589  1.0000
  C   C915      1.0  0.18667  0.57581  0.77366  1.0000
  C   C916      1.0  0.18688  0.55660  0.78299  1.0000
  C   C917      1.0  0.30838  0.07062  0.33198  1.0000
  C   C918      1.0  0.22190  0.47541  0.30792  1.0000
  Fe  Fe56      1.0  0.34541  0.99456  0.26320  1.0000
  H   H743      1.0  0.30861  0.00601  0.30129  1.0000
  C   C919      1.0  0.19702  0.39050  0.14355  1.0000
  H   H744      1.0  0.22042  0.22704  0.01542  1.0000
  H   H745      1.0  0.33425  0.22829  0.10692  1.0000
  H   H746      1.0  0.24195  0.19651  0.98130  1.0000
  Fe  Fe57      1.0  0.23237  0.27333  0.12089  1.0000
  S   S116      1.0  0.22249  0.30440  0.10831  1.0000
  S   S117      1.0  0.26424  0.26275  0.11178  1.0000
  C   C920      1.0  0.26055  0.46303  0.24927  1.0000
  C   C921      1.0  0.20169  0.35171  0.08024  1.0000
  P   P30       1.0  0.24414  0.20771  0.07672  1.0000
  Fe  Fe58      1.0  0.20523  0.30658  0.13786  1.0000
  C   C922      1.0  0.23697  0.45655  0.17319  1.0000
  C   C923      1.0  0.33669  0.20598  0.00960  1.0000
  S   S118      1.0  0.21711  0.27614  0.15089  1.0000
  Fe  Fe59      1.0  0.26287  0.39665  0.19275  1.0000
  S   S119      1.0  0.26867  0.40799  0.16090  1.0000
  S   S120      1.0  0.23554  0.41038  0.21055  1.0000
  Fe  Fe60      1.0  0.30250  0.37017  0.19165  1.0000
  S   S121      1.0  0.31154  0.37994  0.15963  1.0000
  S   S122      1.0  0.31999  0.34665  0.21063  1.0000
  Fe  Fe61      1.0  0.29739  0.40960  0.16503  1.0000
  S   S123      1.0  0.30799  0.43719  0.15186  1.0000
  Fe  Fe62      1.0  0.28199  0.37728  0.15892  1.0000
  S   S124      1.0  0.27850  0.36349  0.13632  1.0000
  S   S125      1.0  0.29077  0.40012  0.19708  1.0000
  S   S126      1.0  0.27376  0.36569  0.19063  1.0000
  Fe  Fe63      1.0  0.35436  0.14368  0.09387  1.0000
  S   S127      1.0  0.33767  0.13413  0.12373  1.0000
  S   S128      1.0  0.35176  0.12598  0.07378  1.0000
  S   S129      1.0  0.34936  0.16799  0.13665  1.0000
  Fe  Fe64      1.0  0.36210  0.13729  0.13455  1.0000
  H   H747      1.0  0.20776  0.47246  0.17489  1.0000
  Fe  Fe65      1.0  0.32629  0.16538  0.12348  1.0000
  S   S130      1.0  0.29548  0.17393  0.13850  1.0000
  S   S131      1.0  0.34139  0.17514  0.09291  1.0000
  S   S132      1.0  0.34602  0.04930  0.25231  1.0000
  S   S133      1.0  0.32104  0.01750  0.25366  1.0000
  Fe  Fe66      1.0  0.34397  0.03156  0.23257  1.0000
  S   S134      1.0  0.33982  0.04426  0.20219  1.0000
  Fe  Fe67      1.0  0.32536  0.03292  0.27426  1.0000
  S   S135      1.0  0.29977  0.04756  0.29345  1.0000
  Fe  Fe68      1.0  0.23322  0.99753  0.37650  1.0000
  H   H748      1.0  0.20528  0.35455  0.10745  1.0000
  H   H749      1.0  0.22107  0.24656  0.07050  1.0000
  Fe  Fe69      1.0  0.22295  0.00960  0.41496  1.0000
  S   S136      1.0  0.23487  0.01497  0.43840  1.0000
  S   S137      1.0  0.22660  0.02642  0.38453  1.0000
  H   H750      1.0  0.27661  0.47594  0.16253  1.0000
  Fe  Fe70      1.0  0.30843  0.12135  0.44905  1.0000
  S   S138      1.0  0.32398  0.14565  0.43372  1.0000
  Fe  Fe71      1.0  0.29327  0.08674  0.44837  1.0000
  S   S139      1.0  0.28209  0.11870  0.44080  1.0000
  C   C924      1.0  0.28844  0.16539  0.09528  1.0000
  C   C925      1.0  0.36169  0.15711  0.26419  1.0000
  H   H751      1.0  0.37734  0.29477  0.20556  1.0000
  H   H752      1.0  0.26240  0.18204  0.10892  1.0000
  H   H753      1.0  0.38734  0.01932  0.31952  1.0000
  C   C926      1.0  0.24456  0.16365  0.46335  1.0000
  C   C927      1.0  0.21330  0.39340  0.14806  1.0000
  H   H754      1.0  0.31382  0.15098  0.07795  1.0000
  P   P31       1.0  0.18801  0.15339  0.43196  1.0000
  H   H755      1.0  0.32213  0.00028  0.41032  1.0000
  C   C928      1.0  0.22773  0.46340  0.29461  1.0000
  H   H756      1.0  0.35605  0.08631  0.42618  1.0000
  H   H757      1.0  0.24930  0.19178  0.44748  1.0000
  H   H758      1.0  0.20065  0.29998  0.34589  1.0000
  C   C929      1.0  0.24993  0.03158  0.43442  1.0000
  C   C930      1.0  0.25943  0.03918  0.41594  1.0000
  C   C931      1.0  0.27240  0.05119  0.41357  1.0000
  C   C932      1.0  0.27548  0.05624  0.42960  1.0000
  C   C933      1.0  0.26545  0.04921  0.44801  1.0000
  C   C934      1.0  0.25299  0.03670  0.45040  1.0000
  H   H759      1.0  0.25707  0.03553  0.40351  1.0000
  H   H760      1.0  0.28008  0.05654  0.39926  1.0000
  H   H761      1.0  0.34819  0.17219  0.41682  1.0000
  C   C935      1.0  0.35271  0.16115  0.40833  1.0000
  C   C936      1.0  0.34317  0.14583  0.41336  1.0000
  C   C937      1.0  0.34912  0.13164  0.40217  1.0000
  C   C938      1.0  0.36463  0.13291  0.38600  1.0000
  H   H762      1.0  0.36948  0.07203  0.46335  1.0000
  H   H763      1.0  0.34157  0.11996  0.40582  1.0000
  C   C939      1.0  0.28822  0.03045  0.31063  1.0000
  C   C940      1.0  0.27128  0.03645  0.32353  1.0000
  C   C941      1.0  0.26173  0.02278  0.33698  1.0000
  C   C942      1.0  0.26934  0.00311  0.33780  1.0000
  H   H764      1.0  0.26537  0.05166  0.32292  1.0000
  H   H765      1.0  0.24838  0.02749  0.34649  1.0000
  C   C943      1.0  0.34934  0.06495  0.19082  1.0000
  C   C944      1.0  0.34586  0.07477  0.17256  1.0000
  C   C945      1.0  0.35333  0.09126  0.16307  1.0000
  C   C946      1.0  0.36452  0.09787  0.17174  1.0000
  H   H766      1.0  0.33740  0.06958  0.16574  1.0000
  H   H767      1.0  0.35042  0.09878  0.14907  1.0000
  C   C947      1.0  0.31800  0.44516  0.16705  1.0000
  C   C948      1.0  0.32553  0.43229  0.18233  1.0000
  C   C949      1.0  0.33469  0.43875  0.19335  1.0000
  C   C950      1.0  0.33599  0.45814  0.18939  1.0000
  C   C951      1.0  0.35362  0.35224  0.23355  1.0000
  C   C952      1.0  0.31914  0.46456  0.16325  1.0000
  H   H768      1.0  0.32494  0.41726  0.18522  1.0000
  C   C953      1.0  0.23918  0.18378  0.45771  1.0000
  H   H769      1.0  0.19873  0.02987  0.45491  1.0000
  H   H770      1.0  0.22777  0.47148  0.32084  1.0000
  C   C954      1.0  0.34273  0.33571  0.19875  1.0000
  C   C955      1.0  0.35271  0.31833  0.20818  1.0000
  S   S140      1.0  0.29275  0.07045  0.42610  1.0000
  H   H771      1.0  0.34691  0.31237  0.22299  1.0000
  S   S141      1.0  0.21377  0.21859  0.45762  1.0000
  C   C956      1.0  0.27270  0.23820  0.11986  1.0000
  C   C957      1.0  0.26191  0.22740  0.13547  1.0000
  C   C958      1.0  0.26897  0.20757  0.14132  1.0000
  C   C959      1.0  0.28681  0.19870  0.13161  1.0000
  C   C960      1.0  0.29770  0.20965  0.11630  1.0000
  C   C961      1.0  0.29068  0.22938  0.11048  1.0000
  H   H772      1.0  0.24810  0.23431  0.14288  1.0000
  H   H773      1.0  0.26058  0.19912  0.15327  1.0000
  H   H774      1.0  0.31153  0.20295  0.10893  1.0000
  H   H775      1.0  0.29916  0.23781  0.09861  1.0000
  C   C962      1.0  0.22508  0.33749  0.14980  1.0000
  C   C963      1.0  0.23686  0.33933  0.13138  1.0000
  C   C964      1.0  0.25321  0.34731  0.12746  1.0000
  C   C965      1.0  0.25812  0.35312  0.14196  1.0000
  C   C966      1.0  0.24651  0.35099  0.16048  1.0000
  C   C967      1.0  0.23005  0.34315  0.16439  1.0000
  H   H776      1.0  0.23315  0.33508  0.12001  1.0000
  H   H777      1.0  0.26174  0.34958  0.11301  1.0000
  H   H778      1.0  0.24996  0.35564  0.17172  1.0000
  H   H779      1.0  0.22124  0.34135  0.17876  1.0000
  C   C968      1.0  0.36807  0.16237  0.39245  1.0000
  H   H780      1.0  0.34066  0.42877  0.20504  1.0000
  C   C969      1.0  0.20949  0.39974  0.24303  1.0000
  C   C970      1.0  0.22218  0.39413  0.22668  1.0000
  C   C971      1.0  0.22407  0.37572  0.22345  1.0000
  C   C972      1.0  0.21351  0.36282  0.23682  1.0000
  C   C973      1.0  0.37121  0.02599  0.40275  1.0000
  Fe  Fe72      1.0  0.19661  0.27577  0.97907  1.0000
  H   H781      1.0  0.23350  0.37145  0.21063  1.0000
  H   H782      1.0  0.21488  0.34862  0.23430  1.0000
  S   S142      1.0  0.38032  0.14394  0.10490  1.0000
  C   C974      1.0  0.19721  0.36053  0.09605  1.0000
  C   C975      1.0  0.35283  0.13367  0.04860  1.0000
  C   C976      1.0  0.36126  0.14915  0.03766  1.0000
  P   P32       1.0  0.30085  0.21665  0.99880  1.0000
  C   C977      1.0  0.35648  0.14322  0.00802  1.0000
  C   C978      1.0  0.34763  0.12804  0.01903  1.0000
  C   C979      1.0  0.34595  0.12323  0.03919  1.0000
  C   C980      1.0  0.20674  0.46890  0.23162  1.0000
  H   H783      1.0  0.21329  0.39377  0.16274  1.0000
  H   H784      1.0  0.34269  0.11957  0.01196  1.0000
  H   H785      1.0  0.33957  0.11112  0.04751  1.0000
  C   C981      1.0  0.19196  0.17724  0.41992  1.0000
  H   H786      1.0  0.28627  0.17242  0.46048  1.0000
  H   H787      1.0  0.22862  0.27872  0.06481  1.0000
  S   S143      1.0  0.20867  0.26344  0.11445  1.0000
  C   C982      1.0  0.35618  0.13924  0.26908  1.0000
  Fe  Fe73      1.0  0.36604  0.17473  0.10636  1.0000
  C   C983      1.0  0.27122  0.17921  0.09526  1.0000
  H   H788      1.0  0.28780  0.47202  0.23890  1.0000
  C   C984      1.0  0.36254  0.02249  0.34269  1.0000
  C   C985      1.0  0.31097  0.01427  0.38434  1.0000
  C   C986      1.0  0.22157  0.18331  0.04577  1.0000
  C   C987      1.0  0.25772  0.32071  0.21080  1.0000
  C   C988      1.0  0.24096  0.31331  0.21607  1.0000
  C   C989      1.0  0.23304  0.30730  0.23557  1.0000
  C   C990      1.0  0.24174  0.30888  0.24981  1.0000
  C   C991      1.0  0.25819  0.31698  0.24461  1.0000
  C   C992      1.0  0.26641  0.32238  0.22500  1.0000
  P   P33       1.0  0.26975  0.31910  0.26271  1.0000
  C   C993      1.0  0.28970  0.29869  0.26434  1.0000
  C   C994      1.0  0.27753  0.34170  0.25602  1.0000
  C   C995      1.0  0.29291  0.34373  0.26288  1.0000
  C   C996      1.0  0.29801  0.36167  0.25874  1.0000
  C   C997      1.0  0.28765  0.37769  0.24795  1.0000
  C   C998      1.0  0.27208  0.37581  0.24145  1.0000
  C   C999      1.0  0.26698  0.35793  0.24554  1.0000
  C   C1000     1.0  0.28692  0.28113  0.27681  1.0000
  C   C1001     1.0  0.30234  0.26525  0.27797  1.0000
  C   C1002     1.0  0.32054  0.26669  0.26643  1.0000
  C   C1003     1.0  0.32324  0.28390  0.25346  1.0000
  C   C1004     1.0  0.30787  0.29984  0.25231  1.0000
  C   C1005     1.0  0.25320  0.32066  0.28553  1.0000
  C   C1006     1.0  0.25968  0.31343  0.30296  1.0000
  C   C1007     1.0  0.24704  0.31586  0.32050  1.0000
  C   C1008     1.0  0.22796  0.32575  0.32074  1.0000
  C   C1009     1.0  0.22155  0.33325  0.30343  1.0000
  C   C1010     1.0  0.23416  0.33101  0.28589  1.0000
  H   H789      1.0  0.26383  0.32537  0.19568  1.0000
  H   H790      1.0  0.23409  0.31227  0.20504  1.0000
  H   H791      1.0  0.22000  0.30162  0.23964  1.0000
  H   H792      1.0  0.23543  0.30402  0.26481  1.0000
  H   H793      1.0  0.27941  0.32815  0.22073  1.0000
  H   H794      1.0  0.30086  0.33154  0.27153  1.0000
  H   H795      1.0  0.30998  0.36317  0.26390  1.0000
  H   H796      1.0  0.29157  0.39160  0.24468  1.0000
  H   H797      1.0  0.26374  0.38827  0.23347  1.0000
  H   H798      1.0  0.25460  0.35690  0.24078  1.0000
  H   H799      1.0  0.27284  0.27969  0.28564  1.0000
  H   H800      1.0  0.30017  0.25180  0.28781  1.0000
  H   H801      1.0  0.33254  0.25442  0.26734  1.0000
  H   H802      1.0  0.33731  0.28482  0.24432  1.0000
  H   H803      1.0  0.31018  0.31302  0.24201  1.0000
  H   H804      1.0  0.27455  0.30627  0.30304  1.0000
  H   H805      1.0  0.25206  0.31031  0.33394  1.0000
  C   C1011     1.0  0.22062  0.19348  0.46500  1.0000
  H   H806      1.0  0.20797  0.41399  0.24549  1.0000
  H   H807      1.0  0.22906  0.33758  0.27261  1.0000
  H   H808      1.0  0.33972  0.08260  0.40234  1.0000
  H   H809      1.0  0.36008  0.06787  0.31298  1.0000
  H   H810      1.0  0.18946  0.26932  0.07705  1.0000
  H   H811      1.0  0.26386  0.20285  0.01316  1.0000
  C   C1012     1.0  0.32786  0.47112  0.17455  1.0000
  C   C1013     1.0  0.35761  0.38128  0.20949  1.0000
  H   H812      1.0  0.26597  0.22771  0.98313  1.0000
  C   C1014     1.0  0.27327  0.25107  0.06721  1.0000
  C   C1015     1.0  0.20105  0.36836  0.25335  1.0000
  C   C1016     1.0  0.25242  0.99982  0.29693  1.0000
  C   C1017     1.0  0.25518  0.01869  0.28959  1.0000
  C   C1018     1.0  0.26702  0.02337  0.27156  1.0000
  C   C1019     1.0  0.27607  0.00916  0.26080  1.0000
  C   C1020     1.0  0.37848  0.29886  0.12485  1.0000
  H   H813      1.0  0.19401  0.35131  0.05398  1.0000
  C   C1021     1.0  0.29021  0.17028  0.47427  1.0000
  C   C1022     1.0  0.24825  0.25195  0.99466  1.0000
  C   C1023     1.0  0.19950  0.21056  0.13377  1.0000
  Fe  Fe74      1.0  0.19758  0.29499  0.10367  1.0000
  H   H814      1.0  0.36651  0.03398  0.43017  1.0000
  S   S144      1.0  0.37337  0.11895  0.16062  1.0000
  C   C1024     1.0  0.31694  0.05263  0.34159  1.0000
  C   C1025     1.0  0.23167  0.21176  0.11484  1.0000
  C   C1026     1.0  0.35535  0.07981  0.39958  1.0000
  C   C1027     1.0  0.22298  0.21572  0.02786  1.0000
  H   H815      1.0  0.31664  0.14683  0.00154  1.0000
  C   C1028     1.0  0.36465  0.08183  0.41314  1.0000
  S   S145      1.0  0.19444  0.26277  0.01100  1.0000
  H   H816      1.0  0.26962  0.03787  0.26621  1.0000
  H   H817      1.0  0.26830  0.98838  0.40967  1.0000
  S   S146      1.0  0.38735  0.25365  0.19533  1.0000
  H   H818      1.0  0.23648  0.25272  0.98792  1.0000
  H   H819      1.0  0.37393  0.34003  0.15523  1.0000
  C   C1029     1.0  0.20575  0.18433  0.42469  1.0000
  H   H820      1.0  0.27404  0.19269  0.04676  1.0000
  H   H821      1.0  0.23304  0.44259  0.17715  1.0000
  H   H822      1.0  0.26734  0.44461  0.17084  1.0000
  C   C1030     1.0  0.30829  0.10987  0.11700  1.0000
  C   C1031     1.0  0.31658  0.09098  0.11486  1.0000
  C   C1032     1.0  0.31483  0.07582  0.13082  1.0000
  C   C1033     1.0  0.30489  0.07954  0.14895  1.0000
  C   C1034     1.0  0.29674  0.09855  0.15136  1.0000
  C   C1035     1.0  0.29859  0.11369  0.13515  1.0000
  P   P34       1.0  0.28446  0.10391  0.17485  1.0000
  C   C1036     1.0  0.30117  0.11035  0.18524  1.0000
  C   C1037     1.0  0.26504  0.12447  0.17055  1.0000
  C   C1038     1.0  0.26236  0.14068  0.17849  1.0000
  C   C1039     1.0  0.24836  0.15711  0.17368  1.0000
  C   C1040     1.0  0.23684  0.15744  0.16108  1.0000
  C   C1041     1.0  0.23919  0.14125  0.15339  1.0000
  C   C1042     1.0  0.25322  0.12482  0.15810  1.0000
  C   C1043     1.0  0.30398  0.10147  0.20405  1.0000
  C   C1044     1.0  0.31739  0.10624  0.21153  1.0000
  C   C1045     1.0  0.32753  0.12045  0.20068  1.0000
  C   C1046     1.0  0.32434  0.12985  0.18229  1.0000
  C   C1047     1.0  0.31124  0.12484  0.17458  1.0000
  C   C1048     1.0  0.27523  0.08337  0.19058  1.0000
  C   C1049     1.0  0.28807  0.06657  0.19732  1.0000
  C   C1050     1.0  0.28121  0.05086  0.20994  1.0000
  C   C1051     1.0  0.26140  0.05173  0.21600  1.0000
  C   C1052     1.0  0.24845  0.06835  0.20942  1.0000
  C   C1053     1.0  0.25531  0.08415  0.19678  1.0000
  H   H823      1.0  0.30992  0.12158  0.10460  1.0000
  H   H824      1.0  0.32452  0.08816  0.10084  1.0000
  H   H825      1.0  0.32132  0.06114  0.12919  1.0000
  H   H826      1.0  0.30387  0.06744  0.16090  1.0000
  H   H827      1.0  0.29274  0.12853  0.13652  1.0000
  H   H828      1.0  0.27126  0.14085  0.18808  1.0000
  H   H829      1.0  0.24664  0.16974  0.17948  1.0000
  H   H830      1.0  0.22616  0.17027  0.15721  1.0000
  H   H831      1.0  0.23028  0.14153  0.14359  1.0000
  H   H832      1.0  0.25512  0.11250  0.15175  1.0000
  H   H833      1.0  0.29612  0.09070  0.21306  1.0000
  H   H834      1.0  0.32029  0.09848  0.22555  1.0000
  H   H835      1.0  0.19273  0.06497  0.39665  1.0000
  H   H836      1.0  0.33268  0.14044  0.17367  1.0000
  H   H837      1.0  0.30904  0.13225  0.16028  1.0000
  H   H838      1.0  0.30350  0.06572  0.19309  1.0000
  H   H839      1.0  0.29140  0.03809  0.21507  1.0000
  H   H840      1.0  0.25609  0.03955  0.22587  1.0000
  H   H841      1.0  0.23308  0.06905  0.21421  1.0000
  H   H842      1.0  0.24499  0.09691  0.19211  1.0000
  H   H843      1.0  0.21803  0.16951  0.04720  1.0000
  H   H844      1.0  0.33260  0.99058  0.36090  1.0000
  C   C1054     1.0  0.31065  0.00237  0.40279  1.0000
  H   H845      1.0  0.28549  0.01264  0.24694  1.0000
  C   C1055     1.0  0.37739  0.31604  0.17908  1.0000
  H   H846      1.0  0.34291  0.20323  0.99524  1.0000
  H   H847      1.0  0.20639  0.40377  0.32173  1.0000
  C   C1056     1.0  0.34453  0.99701  0.35212  1.0000
  C   C1057     1.0  0.37422  0.06201  0.30529  1.0000
  H   H848      1.0  0.21818  0.32788  0.33428  1.0000
  H   H849      1.0  0.26184  0.28167  0.06319  1.0000
  C   C1058     1.0  0.35635  0.09878  0.47225  1.0000
  C   C1059     1.0  0.22699  0.20716  0.09944  1.0000
  H   H850      1.0  0.33829  0.12374  0.20625  1.0000
  H   H851      1.0  0.28014  0.22026  0.07364  1.0000
  C   C1060     1.0  0.35429  0.16839  0.19201  1.0000
  H   H852      1.0  0.28688  0.46104  0.40383  1.0000
  H   H853      1.0  0.38514  0.17277  0.13622  1.0000
  S   S147      1.0  0.34855  0.46565  0.20258  1.0000
  C   C1061     1.0  0.27558  0.19093  0.01026  1.0000
  H   H854      1.0  0.31341  0.47447  0.15143  1.0000
  H   H855      1.0  0.34434  0.40379  0.14480  1.0000
  C   C1062     1.0  0.27369  0.99020  0.26825  1.0000
  S   S148      1.0  0.18822  0.35205  0.27015  1.0000
  H   H856      1.0  0.36412  0.19669  0.01828  1.0000
  H   H857      1.0  0.30507  0.07202  0.31807  1.0000
  Fe  Fe75      1.0  0.36876  0.02407  0.26173  1.0000
  H   H858      1.0  0.31826  0.06550  0.38267  1.0000
  H   H859      1.0  0.29465  0.98464  0.42642  1.0000
  H   H860      1.0  0.20478  0.43626  0.30155  1.0000
  H   H861      1.0  0.34428  0.34374  0.24435  1.0000
  H   H862      1.0  0.33085  0.04174  0.43451  1.0000
  C   C1063     1.0  0.30755  0.08462  0.35868  1.0000
  H   H863      1.0  0.19989  0.22925  0.39627  1.0000
  H   H864      1.0  0.29238  0.98204  0.32580  1.0000
  C   C1064     1.0  0.29572  0.01079  0.31136  1.0000
  H   H865      1.0  0.33112  0.23872  0.97978  1.0000
  C   C1065     1.0  0.38376  0.42117  0.15823  1.0000
  C   C1066     1.0  0.23576  0.24773  0.06916  1.0000
  C   C1067     1.0  0.26582  0.18919  0.07773  1.0000
  H   H866      1.0  0.23420  0.23287  0.03997  1.0000
  H   H867      1.0  0.36916  0.12202  0.37732  1.0000
  H   H868      1.0  0.35905  0.07274  0.37186  1.0000
  C   C1068     1.0  0.30941  0.17737  0.00000  1.0000
  C   C1069     1.0  0.37914  0.11580  0.43850  1.0000
  C   C1070     1.0  0.32489  0.23203  0.13634  1.0000
  H   H869      1.0  0.24366  0.99665  0.31116  1.0000
  C   C1071     1.0  0.25029  0.23107  0.07117  1.0000
  H   H870      1.0  0.24586  0.03072  0.46472  1.0000
  S   S149      1.0  0.25783  0.98563  0.35447  1.0000
  H   H871      1.0  0.28452  0.30727  0.17010  1.0000
  H   H872      1.0  0.30787  0.27711  0.17903  1.0000
  H   H873      1.0  0.25723  0.46920  0.26194  1.0000
  C   C1072     1.0  0.36907  0.08736  0.45984  1.0000
  C   C1073     1.0  0.33113  0.03480  0.40769  1.0000
  C   C1074     1.0  0.23378  0.20438  0.05826  1.0000
  C   C1075     1.0  0.36738  0.15077  0.19279  1.0000
  H   H874      1.0  0.28297  0.14256  0.01382  1.0000
  C   C1076     1.0  0.30039  0.16151  0.07791  1.0000
  H   H875      1.0  0.34401  0.33665  0.08597  1.0000
  C   C1077     1.0  0.28274  0.45716  0.21956  1.0000
  H   H876      1.0  0.37116  0.25179  0.12733  1.0000
  C   C1078     1.0  0.19187  0.30589  0.03768  1.0000
  H   H877      1.0  0.21223  0.19564  0.01879  1.0000
  H   H878      1.0  0.37689  0.30668  0.13604  1.0000
  H   H879      1.0  0.32424  0.17885  0.99436  1.0000
  H   H880      1.0  0.26777  0.05288  0.46047  1.0000
  C   C1079     1.0  0.38346  0.27936  0.09531  1.0000
  C   C1080     1.0  0.19155  0.47307  0.22197  1.0000
  H   H881      1.0  0.19232  0.25993  0.23272  1.0000
  S   S150      1.0  0.36830  0.00720  0.24028  1.0000
  C   C1081     1.0  0.26154  0.47556  0.16471  1.0000
  C   C1082     1.0  0.29506  0.17128  0.06045  1.0000
  C   C1083     1.0  0.28040  0.99521  0.40244  1.0000
  H   H882      1.0  0.21425  0.39133  0.09553  1.0000
  H   H883      1.0  0.36681  0.15716  0.04470  1.0000
  H   H884      1.0  0.36358  0.21645  0.34930  1.0000
  H   H885      1.0  0.37526  0.17433  0.38885  1.0000
  H   H886      1.0  0.27496  0.23073  0.19740  1.0000
  C   C1084     1.0  0.35254  0.22319  0.20784  1.0000
  C   C1085     1.0  0.31587  0.06659  0.36847  1.0000
  C   C1086     1.0  0.37410  0.14839  0.38115  1.0000
  C   C1087     1.0  0.19464  0.20606  0.11850  1.0000
  C   C1088     1.0  0.26900  0.23285  0.07067  1.0000
  C   C1089     1.0  0.28098  0.00636  0.38380  1.0000
  S   S151      1.0  0.20382  0.32877  0.15469  1.0000
  C   C1090     1.0  0.37162  0.22287  0.33557  1.0000
  H   H887      1.0  0.32024  0.04041  0.33472  1.0000
  H   H888      1.0  0.31182  0.22683  0.13858  1.0000
  Fe  Fe76      1.0  0.20078  0.98305  0.40694  1.0000
  C   C1091     1.0  0.22939  0.18644  0.05990  1.0000
  C   C1092     1.0  0.21586  0.07409  0.40233  1.0000
  C   C1093     1.0  0.22318  0.07809  0.41629  1.0000
  C   C1094     1.0  0.21291  0.07635  0.43537  1.0000
  C   C1095     1.0  0.35655  0.14278  0.22762  1.0000
  C   C1096     1.0  0.30380  0.08664  0.34046  1.0000
  H   H889      1.0  0.19148  0.25143  0.05184  1.0000
  C   C1097     1.0  0.32077  0.05042  0.35995  1.0000
  C   C1098     1.0  0.34581  0.37063  0.22410  1.0000
  H   H890      1.0  0.19468  0.25939  0.19842  1.0000
  C   C1099     1.0  0.35984  0.03227  0.41933  1.0000
  H   H891      1.0  0.37659  0.14694  0.17961  1.0000
  H   H892      1.0  0.34631  0.23732  0.32390  1.0000
  H   H893      1.0  0.22406  0.07494  0.38765  1.0000
  H   H894      1.0  0.23719  0.08184  0.41244  1.0000
  H   H895      1.0  0.21928  0.07898  0.44592  1.0000
  H   H896      1.0  0.25875  0.30717  0.15426  1.0000
  H   H897      1.0  0.25624  0.27696  0.14716  1.0000
  H   H898      1.0  0.38206  0.98927  0.31443  1.0000
  C   C1100     1.0  0.32437  0.23581  0.19321  1.0000
  H   H899      1.0  0.37965  0.03432  0.17665  1.0000
  H   H900      1.0  0.25880  0.15617  0.45751  1.0000
  H   H901      1.0  0.30037  0.25325  0.20942  1.0000
  H   H902      1.0  0.35315  0.16655  0.30905  1.0000
  C   C1101     1.0  0.36618  0.07421  0.38249  1.0000
  H   H903      1.0  0.36988  0.09311  0.23224  1.0000
  C   C1102     1.0  0.36852  0.08774  0.18974  1.0000
  C   C1103     1.0  0.35488  0.11870  0.46774  1.0000
  C   C1104     1.0  0.36796  0.33389  0.16998  1.0000
  C   C1105     1.0  0.28640  0.99718  0.32507  1.0000
  H   H904      1.0  0.29263  0.15777  0.10878  1.0000
  C   C1106     1.0  0.29465  0.19347  0.00302  1.0000
  C   C1107     1.0  0.32930  0.23753  0.15137  1.0000
  H   H905      1.0  0.35040  0.21660  0.18180  1.0000
  H   H906      1.0  0.38541  0.44338  0.21488  1.0000
  C   C1108     1.0  0.35375  0.15906  0.29790  1.0000
  C   C1109     1.0  0.36256  0.02419  0.38857  1.0000
  H   H907      1.0  0.36287  0.38228  0.16875  1.0000
  H   H908      1.0  0.21905  0.20846  0.42017  1.0000
  H   H909      1.0  0.31746  0.25129  0.23496  1.0000
  H   H910      1.0  0.36409  0.06353  0.21315  1.0000
  H   H911      1.0  0.24569  0.21482  0.11326  1.0000
  H   H912      1.0  0.25669  0.17076  0.01923  1.0000
  C   C1110     1.0  0.19295  0.29582  0.02337  1.0000
  H   H913      1.0  0.31555  0.03816  0.40991  1.0000
  C   C1111     1.0  0.33736  0.23317  0.11830  1.0000
  C   C1112     1.0  0.36333  0.15368  0.01743  1.0000
  H   H914      1.0  0.36465  0.14270  0.44711  1.0000
  C   C1113     1.0  0.27143  0.17261  0.01423  1.0000
  C   C1114     1.0  0.21137  0.13742  0.42867  1.0000
  C   C1115     1.0  0.21900  0.12550  0.44443  1.0000
  C   C1116     1.0  0.23667  0.11257  0.44136  1.0000
  C   C1117     1.0  0.24702  0.11175  0.42262  1.0000
  C   C1118     1.0  0.23984  0.12399  0.40688  1.0000
  C   C1119     1.0  0.22212  0.13685  0.40988  1.0000
  C   C1120     1.0  0.37334  0.34462  0.22861  1.0000
  C   C1121     1.0  0.34238  0.02878  0.39082  1.0000
  C   C1122     1.0  0.37731  0.37350  0.20401  1.0000
  H   H915      1.0  0.37938  0.33031  0.23583  1.0000
  S   S152      1.0  0.36048  0.14882  0.98246  1.0000
  C   C1123     1.0  0.32463  0.24386  0.22325  1.0000
  C   C1124     1.0  0.37939  0.10778  0.24908  1.0000
  C   C1125     1.0  0.21379  0.39173  0.11029  1.0000
  C   C1126     1.0  0.26491  0.23764  0.99219  1.0000
  H   H916      1.0  0.29620  0.45860  0.20943  1.0000
  C   C1127     1.0  0.21805  0.21329  0.13198  1.0000
  C   C1128     1.0  0.36004  0.16714  0.27854  1.0000
  C   C1129     1.0  0.37230  0.24282  0.30357  1.0000
  C   C1130     1.0  0.30519  0.15909  0.00414  1.0000
  H   H917      1.0  0.21167  0.12628  0.45910  1.0000
  H   H918      1.0  0.24252  0.10340  0.45357  1.0000
  H   H919      1.0  0.26075  0.10177  0.42029  1.0000
  H   H920      1.0  0.24805  0.12348  0.39238  1.0000
  H   H921      1.0  0.21665  0.14621  0.39755  1.0000
  C   C1131     1.0  0.35566  0.40839  0.14829  1.0000
  H   H922      1.0  0.35357  0.17821  0.17823  1.0000
  C   C1132     1.0  0.31503  0.24508  0.20864  1.0000
  C   C1133     1.0  0.19898  0.38686  0.25641  1.0000
  C   C1134     1.0  0.36082  0.07137  0.19936  1.0000
  C   C1135     1.0  0.34344  0.23305  0.22277  1.0000
  H   H923      1.0  0.24858  0.02957  0.29821  1.0000
  H   H924      1.0  0.37291  0.10102  0.10498  1.0000
  P   P35       1.0  0.33056  0.02673  0.37275  1.0000
  Fe  Fe77      1.0  0.19209  0.26927  0.14373  1.0000
  H   H925      1.0  0.35102  0.23224  0.23395  1.0000
  S   S153      1.0  0.38360  0.19786  0.09896  1.0000
  H   H926      1.0  0.29608  0.02460  0.36040  1.0000
  C   C1136     1.0  0.29611  0.01596  0.37479  1.0000
  C   C1137     1.0  0.35930  0.42675  0.13959  1.0000
  C   C1138     1.0  0.31674  0.21279  0.01527  1.0000
  C   C1139     1.0  0.27982  0.23587  0.00167  1.0000
  C   C1140     1.0  0.27844  0.24969  0.01237  1.0000
  C   C1141     1.0  0.26178  0.26414  0.01466  1.0000
  C   C1142     1.0  0.24659  0.26511  0.00602  1.0000
  C   C1143     1.0  0.19285  0.27614  0.02842  1.0000
  H   H927      1.0  0.37175  0.01923  0.37599  1.0000
  C   C1144     1.0  0.30906  0.21434  0.03454  1.0000
  C   C1145     1.0  0.32115  0.21009  0.04770  1.0000
  C   C1146     1.0  0.34102  0.20404  0.04173  1.0000
  C   C1147     1.0  0.34877  0.20196  0.02271  1.0000
  C   C1148     1.0  0.23070  0.21898  0.04199  1.0000
  C   C1149     1.0  0.35819  0.24637  0.12976  1.0000
  S   S154      1.0  0.32085  0.08958  0.45464  1.0000
  C   C1150     1.0  0.37248  0.99606  0.32586  1.0000
  C   C1151     1.0  0.36630  0.12718  0.45091  1.0000
  H   H928      1.0  0.23837  0.45022  0.29728  1.0000
  H   H929      1.0  0.37055  0.16515  0.00899  1.0000
  C   C1152     1.0  0.38076  0.09574  0.44296  1.0000
  C   C1153     1.0  0.34725  0.01429  0.35484  1.0000
  H   H930      1.0  0.29014  0.24953  0.01884  1.0000
  H   H931      1.0  0.26055  0.27460  0.02318  1.0000
  H   H932      1.0  0.23353  0.27610  0.00801  1.0000
  C   C1154     1.0  0.37339  0.43311  0.14449  1.0000
  C   C1155     1.0  0.27786  0.18505  0.06038  1.0000
  H   H933      1.0  0.29367  0.21837  0.03949  1.0000
  H   H934      1.0  0.31514  0.21106  0.06264  1.0000
  H   H935      1.0  0.35038  0.20053  0.05196  1.0000
  H   H936      1.0  0.34350  0.35734  0.17266  1.0000
  S   S155      1.0  0.20274  0.99805  0.37598  1.0000
  H   H937      1.0  0.26949  0.00783  0.37646  1.0000
  H   H938      1.0  0.20385  0.20175  0.08950  1.0000
  C   C1156     1.0  0.33816  0.29001  0.18282  1.0000
  C   C1157     1.0  0.32312  0.30278  0.19194  1.0000
  C   C1158     1.0  0.31316  0.31890  0.18092  1.0000
  C   C1159     1.0  0.31820  0.32233  0.16079  1.0000
  C   C1160     1.0  0.33351  0.30979  0.15150  1.0000
  C   C1161     1.0  0.34320  0.29334  0.16268  1.0000
  P   P36       1.0  0.33958  0.31440  0.12546  1.0000
  C   C1162     1.0  0.32044  0.30916  0.11765  1.0000
  C   C1163     1.0  0.34290  0.33873  0.11515  1.0000
  C   C1164     1.0  0.34494  0.35040  0.12660  1.0000
  C   C1165     1.0  0.34836  0.36892  0.11826  1.0000
  C   C1166     1.0  0.34983  0.37591  0.09843  1.0000
  C   C1167     1.0  0.34821  0.36424  0.08686  1.0000
  C   C1168     1.0  0.34496  0.34564  0.09515  1.0000
  C   C1169     1.0  0.30760  0.32386  0.10804  1.0000
  C   C1170     1.0  0.29343  0.31931  0.10141  1.0000
  C   C1171     1.0  0.29138  0.30025  0.10509  1.0000
  C   C1172     1.0  0.30364  0.28564  0.11526  1.0000
  C   C1173     1.0  0.31806  0.29009  0.12158  1.0000
  C   C1174     1.0  0.36265  0.29979  0.11702  1.0000
  C   C1175     1.0  0.37593  0.05138  0.29130  1.0000
  H   H939      1.0  0.32032  0.16915  0.46173  1.0000
  C   C1176     1.0  0.34589  0.24504  0.14785  1.0000
  C   C1177     1.0  0.36534  0.29032  0.10187  1.0000
  H   H940      1.0  0.34607  0.27764  0.19137  1.0000
  H   H941      1.0  0.31945  0.30047  0.20753  1.0000
  H   H942      1.0  0.30180  0.32900  0.18798  1.0000
  H   H943      1.0  0.31027  0.33490  0.15246  1.0000
  H   H944      1.0  0.35476  0.28312  0.15602  1.0000
  H   H945      1.0  0.34401  0.34525  0.14193  1.0000
  H   H946      1.0  0.34983  0.37785  0.12722  1.0000
  H   H947      1.0  0.35230  0.39034  0.09205  1.0000
  C   C1178     1.0  0.25632  0.45766  0.16962  1.0000
  H   H948      1.0  0.36487  0.25172  0.29231  1.0000
  H   H949      1.0  0.30824  0.33885  0.10582  1.0000
  H   H950      1.0  0.28383  0.33059  0.09360  1.0000
  H   H951      1.0  0.28010  0.29685  0.10031  1.0000
  H   H952      1.0  0.30176  0.27091  0.11838  1.0000
  H   H953      1.0  0.32731  0.27874  0.12958  1.0000
  H   H954      1.0  0.36415  0.18099  0.27468  1.0000
  C   C1179     1.0  0.36859  0.13802  0.21047  1.0000
  H   H955      1.0  0.35356  0.29138  0.09508  1.0000
  C   C1180     1.0  0.20827  0.20443  0.10135  1.0000
  H   H956      1.0  0.36315  0.04915  0.28820  1.0000
  C   C1181     1.0  0.34894  0.14096  0.30295  1.0000
  C   C1182     1.0  0.35021  0.13104  0.28863  1.0000
  P   P37       1.0  0.35771  0.12632  0.25067  1.0000
  C   C1183     1.0  0.33748  0.11449  0.25816  1.0000
  C   C1184     1.0  0.33926  0.09609  0.27019  1.0000
  C   C1185     1.0  0.32367  0.08692  0.27660  1.0000
  C   C1186     1.0  0.30610  0.09599  0.27116  1.0000
  C   C1187     1.0  0.30410  0.11437  0.25934  1.0000
  C   C1188     1.0  0.31973  0.12361  0.25282  1.0000
  C   C1189     1.0  0.34228  0.17330  0.20895  1.0000
  C   C1190     1.0  0.34342  0.16059  0.22667  1.0000
  H   H957      1.0  0.34469  0.13438  0.31802  1.0000
  H   H958      1.0  0.34683  0.11686  0.29296  1.0000
  H   H959      1.0  0.35266  0.08877  0.27481  1.0000
  H   H960      1.0  0.32536  0.07264  0.28569  1.0000
  H   H961      1.0  0.29408  0.08870  0.27610  1.0000
  H   H962      1.0  0.29045  0.12136  0.25513  1.0000
  H   H963      1.0  0.31780  0.13778  0.24368  1.0000
  H   H964      1.0  0.33207  0.18695  0.20837  1.0000
  H   H965      1.0  0.33402  0.16464  0.23967  1.0000
  C   C1191     1.0  0.27017  0.44770  0.21607  1.0000
  C   C1192     1.0  0.24773  0.45366  0.24580  1.0000
  C   C1193     1.0  0.25274  0.44595  0.22911  1.0000
  P   P38       1.0  0.22515  0.45123  0.26261  1.0000
  C   C1194     1.0  0.22638  0.42717  0.27733  1.0000
  C   C1195     1.0  0.36594  0.39643  0.16208  1.0000
  C   C1196     1.0  0.26153  0.98538  0.28626  1.0000
  H   H966      1.0  0.22160  0.21738  0.14361  1.0000
  C   C1197     1.0  0.20869  0.20296  0.41605  1.0000
  C   C1198     1.0  0.23829  0.41112  0.27023  1.0000
  C   C1199     1.0  0.23880  0.39259  0.28174  1.0000
  C   C1200     1.0  0.22755  0.38995  0.30037  1.0000
  C   C1201     1.0  0.21552  0.40581  0.30746  1.0000
  C   C1202     1.0  0.21474  0.42429  0.29594  1.0000
  H   H967      1.0  0.20681  0.34102  0.30356  1.0000
  H   H968      1.0  0.38677  0.02274  0.40073  1.0000
  C   C1203     1.0  0.38522  0.35533  0.21408  1.0000
  H   H969      1.0  0.36711  0.21472  0.20746  1.0000
  C   C1204     1.0  0.36993  0.30839  0.19833  1.0000
  C   C1205     1.0  0.35067  0.34368  0.17979  1.0000
  H   H970      1.0  0.27400  0.44166  0.20327  1.0000
  H   H971      1.0  0.24312  0.43865  0.22613  1.0000
  C   C1206     1.0  0.36189  0.23464  0.32128  1.0000
  C   C1207     1.0  0.28624  0.15669  0.01121  1.0000
  H   H972      1.0  0.24690  0.41279  0.25576  1.0000
  H   H973      1.0  0.24769  0.38017  0.27619  1.0000
  H   H974      1.0  0.22782  0.37557  0.30917  1.0000
  H   H975      1.0  0.24257  0.39724  0.13730  1.0000
  C   C1208     1.0  0.21834  0.19797  0.02976  1.0000
  C   C1209     1.0  0.30947  0.16832  0.47498  1.0000
  H   H976      1.0  0.34949  0.36960  0.07146  1.0000
  C   C1210     1.0  0.24000  0.26593  0.06596  1.0000
  H   H977      1.0  0.37890  0.12451  0.21051  1.0000
  C   C1211     1.0  0.20582  0.45645  0.24982  1.0000
  H   H978      1.0  0.21399  0.17556  0.43538  1.0000
  H   H979      1.0  0.37744  0.09264  0.19632  1.0000
  H   H980      1.0  0.23194  0.17490  0.07218  1.0000
  S   S156      1.0  0.34829  0.00911  0.28553  1.0000
  H   H981      1.0  0.29716  0.10057  0.33298  1.0000
  Fe  Fe78      1.0  0.19560  0.02552  0.38692  1.0000
  H   H982      1.0  0.30435  0.16823  0.04698  1.0000
  C   C1212     1.0  0.34303  0.22442  0.19320  1.0000
  H   H983      1.0  0.30384  0.09698  0.36540  1.0000
  C   C1213     1.0  0.25875  0.26760  0.06495  1.0000
  C   C1214     1.0  0.27797  0.46474  0.23618  1.0000
  H   H984      1.0  0.33047  0.37640  0.22766  1.0000
  C   C1215     1.0  0.22980  0.39545  0.13372  1.0000
  C   C1216     1.0  0.38130  0.09328  0.23902  1.0000
  H   H985      1.0  0.36745  0.16329  0.24938  1.0000
  H   H986      1.0  0.36380  0.24093  0.10109  1.0000
  H   H987      1.0  0.31678  0.47394  0.39087  1.0000
  C   C1217     1.0  0.23007  0.39454  0.11487  1.0000
  C   C1218     1.0  0.35399  0.24038  0.11499  1.0000
  H   H988      1.0  0.28759  0.25240  0.06729  1.0000
  H   H989      1.0  0.35129  0.39548  0.20234  1.0000
  H   H990      1.0  0.36459  0.03613  0.34408  1.0000
  H   H991      1.0  0.35079  0.43623  0.12943  1.0000
  C   C1219     1.0  0.33980  0.03665  0.42179  1.0000
  P   P39       1.0  0.31235  0.23755  0.17401  1.0000
  C   C1220     1.0  0.29450  0.25938  0.16938  1.0000
  C   C1221     1.0  0.30137  0.21685  0.18068  1.0000
  C   C1222     1.0  0.31128  0.19973  0.17447  1.0000
  C   C1223     1.0  0.30251  0.18390  0.17936  1.0000
  C   C1224     1.0  0.28389  0.18495  0.19059  1.0000
  C   C1225     1.0  0.27405  0.20182  0.19715  1.0000
  C   C1226     1.0  0.28280  0.21771  0.19231  1.0000
  C   C1227     1.0  0.27993  0.25959  0.16010  1.0000
  C   C1228     1.0  0.26707  0.27677  0.15481  1.0000
  C   C1229     1.0  0.26860  0.29386  0.15865  1.0000
  C   C1230     1.0  0.28318  0.29385  0.16763  1.0000
  C   C1231     1.0  0.29624  0.27672  0.17280  1.0000
  H   H992      1.0  0.34930  0.25009  0.15892  1.0000
  H   H993      1.0  0.32562  0.19866  0.16553  1.0000
  H   H994      1.0  0.30993  0.17100  0.17390  1.0000
  H   H995      1.0  0.27704  0.17274  0.19397  1.0000
  H   H996      1.0  0.25956  0.20268  0.20577  1.0000
  H   H997      1.0  0.27879  0.24664  0.15638  1.0000
  C   C1232     1.0  0.19170  0.26663  0.04782  1.0000
  H   H998      1.0  0.18974  0.27679  0.37537  1.0000
  H   H999      1.0  0.21318  0.33908  0.07933  1.0000
  H   H1000     1.0  0.24306  0.39572  0.10391  1.0000
  C   C1233     1.0  0.21933  0.46804  0.27838  1.0000
  H   H1001     1.0  0.18929  0.39128  0.26908  1.0000
  C   C1234     1.0  0.35702  0.98804  0.33756  1.0000
  C   C1235     1.0  0.29526  0.99316  0.41190  1.0000
  Fe  Fe79      1.0  0.26858  0.11572  0.47220  1.0000
  C   C1236     1.0  0.37535  0.01313  0.32860  1.0000
  C   C1237     1.0  0.19820  0.06839  0.40743  1.0000
  H   H1002     1.0  0.19196  0.12075  0.41317  1.0000
  C   C1238     1.0  0.19793  0.21464  0.40256  1.0000
  H   H1003     1.0  0.21510  0.47364  0.37054  1.0000
  S   S157      1.0  0.19124  0.01066  0.41813  1.0000
  C   C1239     1.0  0.37972  0.40295  0.16752  1.0000
  C   C1240     1.0  0.19063  0.27670  0.06211  1.0000
  H   H1004     1.0  0.37550  0.42516  0.19677  1.0000
  H   H1005     1.0  0.38545  0.27190  0.08376  1.0000
  H   H1006     1.0  0.18875  0.21252  0.14680  1.0000
  C   C1241     1.0  0.22275  0.47341  0.17192  1.0000
  H   H1007     1.0  0.19425  0.36601  0.18281  1.0000
  H   H1008     1.0  0.37600  0.44745  0.13793  1.0000
  S   S158      1.0  0.18973  0.30946  0.07458  1.0000
  C   C1242     1.0  0.38484  0.07852  0.40957  1.0000
  C   C1243     1.0  0.19513  0.07056  0.44064  1.0000
  H   H1009     1.0  0.19374  0.30330  0.00848  1.0000
  C   C1244     1.0  0.19082  0.29635  0.05708  1.0000
  C   C1245     1.0  0.38629  0.07045  0.37909  1.0000
  C   C1246     1.0  0.28613  0.47587  0.39616  1.0000
  C   C1247     1.0  0.18927  0.44875  0.25841  1.0000
  H   H1010     1.0  0.19187  0.32114  0.03370  1.0000
  C   C1248     1.0  0.19713  0.38957  0.12464  1.0000
  H   H1011     1.0  0.21916  0.47541  0.22490  1.0000
  C   C1249     1.0  0.19089  0.35866  0.06584  1.0000
  C   C1250     1.0  0.19044  0.29170  0.34585  1.0000
  C   C1251     1.0  0.38744  0.09258  0.10490  1.0000
  H   H1012     1.0  0.18949  0.31620  0.39742  1.0000
  S   S159      1.0  0.38764  0.23727  0.25085  1.0000
  H   H1013     1.0  0.38735  0.12282  0.42529  1.0000
  H   H1014     1.0  0.18795  0.43943  0.27258  1.0000
  Fe  Fe80      1.0  0.23123  0.01565  0.71453  1.0000
  S   S160      1.0  0.22477  0.01835  0.74538  1.0000
  S   S161      1.0  0.23356  0.04360  0.69301  1.0000
  C   C1252     1.0  0.32397  0.44129  0.76895  1.0000
  C   C1253     1.0  0.33668  0.23837  0.94970  1.0000
  H   H1015     1.0  0.22904  0.29453  0.68985  1.0000
  P   P40       1.0  0.23345  0.25844  0.54242  1.0000
  H   H1016     1.0  0.25507  0.07747  0.83360  1.0000
  C   C1254     1.0  0.20938  0.16772  0.91840  1.0000
  S   S162      1.0  0.20771  0.99955  0.71851  1.0000
  H   H1017     1.0  0.30966  0.15948  0.88113  1.0000
  Fe  Fe81      1.0  0.31583  0.08975  0.63787  1.0000
  S   S163      1.0  0.34084  0.10394  0.62164  1.0000
  S   S164      1.0  0.31757  0.05957  0.65574  1.0000
  Fe  Fe82      1.0  0.28597  0.12495  0.62693  1.0000
  S   S165      1.0  0.30791  0.14247  0.61025  1.0000
  S   S166      1.0  0.25407  0.13510  0.62968  1.0000
  Fe  Fe83      1.0  0.32326  0.11589  0.59830  1.0000
  S   S167      1.0  0.33329  0.12093  0.56567  1.0000
  Fe  Fe84      1.0  0.32348  0.12928  0.63487  1.0000
  S   S168      1.0  0.30006  0.09940  0.61350  1.0000
  S   S169      1.0  0.29971  0.11415  0.65256  1.0000
  H   H1018     1.0  0.25014  0.17326  0.92867  1.0000
  S   S170      1.0  0.36905  0.13646  0.77422  1.0000
  S   S171      1.0  0.22308  0.21388  0.65757  1.0000
  C   C1255     1.0  0.23395  0.23464  0.57877  1.0000
  S   S172      1.0  0.22245  0.28751  0.96096  1.0000
  C   C1256     1.0  0.26373  0.27313  0.51622  1.0000
  H   H1019     1.0  0.22682  0.13531  0.81250  1.0000
  C   C1257     1.0  0.28888  0.17366  0.86307  1.0000
  C   C1258     1.0  0.31904  0.42406  0.76922  1.0000
  C   C1259     1.0  0.29159  0.25225  0.53776  1.0000
  Fe  Fe85      1.0  0.25324  0.38974  0.82180  1.0000
  S   S173      1.0  0.25455  0.40709  0.84238  1.0000
  S   S174      1.0  0.22592  0.38983  0.81348  1.0000
  Fe  Fe86      1.0  0.29629  0.37335  0.81390  1.0000
  S   S175      1.0  0.30174  0.38918  0.83357  1.0000
  S   S176      1.0  0.31754  0.35259  0.79669  1.0000
  Fe  Fe87      1.0  0.27513  0.38050  0.85359  1.0000
  S   S177      1.0  0.27588  0.36641  0.88451  1.0000
  Fe  Fe88      1.0  0.28085  0.41464  0.82083  1.0000
  S   S178      1.0  0.28557  0.44501  0.80753  1.0000
  S   S179      1.0  0.27144  0.36256  0.83495  1.0000
  S   S180      1.0  0.27766  0.39938  0.79925  1.0000
  S   S181      1.0  0.23664  0.33193  0.75919  1.0000
  H   H1020     1.0  0.28332  0.12953  0.55875  1.0000
  C   C1260     1.0  0.20343  0.11181  0.65576  1.0000
  Fe  Fe89      1.0  0.31826  0.01274  0.85542  1.0000
  Fe  Fe90      1.0  0.33328  0.16142  0.92378  1.0000
  S   S182      1.0  0.33834  0.18063  0.89438  1.0000
  Fe  Fe91      1.0  0.33135  0.11973  0.94156  1.0000
  S   S183      1.0  0.33748  0.09067  0.93316  1.0000
  S   S184      1.0  0.31044  0.14472  0.92882  1.0000
  Fe  Fe92      1.0  0.30335  0.05515  0.85840  1.0000
  S   S185      1.0  0.29368  0.08035  0.87354  1.0000
  Fe  Fe93      1.0  0.29029  0.03854  0.83110  1.0000
  S   S186      1.0  0.26453  0.04245  0.81804  1.0000
  Fe  Fe94      1.0  0.33143  0.04439  0.82253  1.0000
  S   S187      1.0  0.30275  0.06448  0.82684  1.0000
  H   H1021     1.0  0.31861  0.45439  0.75938  1.0000
  C   C1261     1.0  0.24755  0.00988  0.88383  1.0000
  Fe  Fe95      1.0  0.20327  0.00022  0.74976  1.0000
  C   C1262     1.0  0.32908  0.17982  0.72311  1.0000
  C   C1263     1.0  0.28206  0.15178  0.89376  1.0000
  H   H1022     1.0  0.25865  0.22399  0.83907  1.0000
  C   C1264     1.0  0.21321  0.21327  0.81058  1.0000
  C   C1265     1.0  0.25012  0.20143  0.96708  1.0000
  H   H1023     1.0  0.37440  0.21157  0.92079  1.0000
  Fe  Fe96      1.0  0.30422  0.08973  0.48519  1.0000
  S   S188      1.0  0.31504  0.07409  0.51269  1.0000
  H   H1024     1.0  0.19497  0.41310  0.88855  1.0000
  H   H1025     1.0  0.21067  0.43660  0.68986  1.0000
  S   S189      1.0  0.31903  0.01920  0.82374  1.0000
  C   C1266     1.0  0.37644  0.09793  0.88500  1.0000
  C   C1267     1.0  0.33858  0.27386  0.88418  1.0000
  H   H1026     1.0  0.31179  0.26581  0.51473  1.0000
  C   C1268     1.0  0.22158  0.98520  0.83313  1.0000
  C   C1269     1.0  0.26916  0.11857  0.95965  1.0000
  H   H1027     1.0  0.29635  0.20916  0.96300  1.0000
  C   C1270     1.0  0.25674  0.07883  0.61894  1.0000
  C   C1271     1.0  0.23883  0.46787  0.78988  1.0000
  C   C1272     1.0  0.30823  0.08305  0.88809  1.0000
  C   C1273     1.0  0.30732  0.10152  0.89076  1.0000
  C   C1274     1.0  0.31707  0.10406  0.90377  1.0000
  C   C1275     1.0  0.32732  0.08811  0.91475  1.0000
  C   C1276     1.0  0.32905  0.06970  0.91139  1.0000
  C   C1277     1.0  0.31966  0.06717  0.89799  1.0000
  H   H1028     1.0  0.29872  0.11388  0.88299  1.0000
  H   H1029     1.0  0.31626  0.11829  0.90566  1.0000
  H   H1030     1.0  0.33719  0.05727  0.91960  1.0000
  H   H1031     1.0  0.32058  0.05286  0.89597  1.0000
  H   H1032     1.0  0.23833  0.06288  0.50803  1.0000
  H   H1033     1.0  0.26240  0.33274  0.66775  1.0000
  C   C1278     1.0  0.36178  0.20573  0.87476  1.0000
  C   C1279     1.0  0.35375  0.19584  0.89285  1.0000
  C   C1280     1.0  0.35843  0.19783  0.90944  1.0000
  C   C1281     1.0  0.37102  0.20986  0.90792  1.0000
  C   C1282     1.0  0.24477  0.12245  0.88476  1.0000
  H   H1034     1.0  0.35237  0.19013  0.92346  1.0000
  S   S190      1.0  0.19822  0.25522  0.96025  1.0000
  H   H1035     1.0  0.25251  0.47082  0.78104  1.0000
  H   H1036     1.0  0.28747  0.18504  0.93282  1.0000
  H   H1037     1.0  0.27944  0.21911  0.91617  1.0000
  C   C1283     1.0  0.22881  0.37290  0.79936  1.0000
  C   C1284     1.0  0.24630  0.35992  0.79552  1.0000
  C   C1285     1.0  0.24850  0.34704  0.78354  1.0000
  C   C1286     1.0  0.23334  0.34735  0.77509  1.0000
  C   C1287     1.0  0.21571  0.36001  0.77939  1.0000
  C   C1288     1.0  0.21336  0.37247  0.79180  1.0000
  H   H1038     1.0  0.25820  0.35992  0.80158  1.0000
  H   H1039     1.0  0.26212  0.33726  0.78040  1.0000
  C   C1289     1.0  0.38385  0.17164  0.82229  1.0000
  C   C1290     1.0  0.22671  0.12008  0.81674  1.0000
  C   C1291     1.0  0.28648  0.46278  0.81931  1.0000
  C   C1292     1.0  0.28680  0.45890  0.83894  1.0000
  C   C1293     1.0  0.20216  0.19142  0.52310  1.0000
  H   H1040     1.0  0.20969  0.26659  0.85520  1.0000
  H   H1041     1.0  0.19074  0.06725  0.69293  1.0000
  H   H1042     1.0  0.26892  0.10423  0.91249  1.0000
  H   H1043     1.0  0.28597  0.44469  0.84760  1.0000
  H   H1044     1.0  0.35258  0.29280  0.83682  1.0000
  C   C1294     1.0  0.28839  0.47352  0.84731  1.0000
  C   C1295     1.0  0.23534  0.12878  0.90201  1.0000
  H   H1045     1.0  0.23757  0.24023  0.48085  1.0000
  C   C1296     1.0  0.36889  0.31693  0.80268  1.0000
  C   C1297     1.0  0.35121  0.32570  0.79704  1.0000
  C   C1298     1.0  0.33987  0.34229  0.80348  1.0000
  H   H1046     1.0  0.18999  0.32540  0.89437  1.0000
  C   C1299     1.0  0.23238  0.21761  0.59250  1.0000
  Fe  Fe97      1.0  0.19704  0.23198  0.64585  1.0000
  H   H1047     1.0  0.34615  0.31940  0.78799  1.0000
  S   S191      1.0  0.19920  0.34104  0.93440  1.0000
  H   H1048     1.0  0.23367  0.21654  0.60717  1.0000
  C   C1300     1.0  0.25447  0.35912  0.89765  1.0000
  C   C1301     1.0  0.25533  0.34075  0.90957  1.0000
  C   C1302     1.0  0.23843  0.33508  0.92103  1.0000
  C   C1303     1.0  0.22065  0.34791  0.92074  1.0000
  C   C1304     1.0  0.21981  0.36629  0.90887  1.0000
  C   C1305     1.0  0.23666  0.37180  0.89707  1.0000
  H   H1049     1.0  0.26905  0.33082  0.90981  1.0000
  H   H1050     1.0  0.23914  0.32082  0.93009  1.0000
  H   H1051     1.0  0.23596  0.38604  0.88796  1.0000
  H   H1052     1.0  0.25053  0.13641  0.51541  1.0000
  C   C1306     1.0  0.21898  0.12175  0.91312  1.0000
  S   S192      1.0  0.25431  0.98890  0.71840  1.0000
  H   H1053     1.0  0.24808  0.19836  0.50758  1.0000
  C   C1307     1.0  0.24586  0.15695  0.63739  1.0000
  C   C1308     1.0  0.25815  0.16498  0.64328  1.0000
  C   C1309     1.0  0.25109  0.18248  0.64961  1.0000
  C   C1310     1.0  0.23183  0.19196  0.64984  1.0000
  C   C1311     1.0  0.21968  0.18377  0.64403  1.0000
  C   C1312     1.0  0.22668  0.16636  0.63777  1.0000
  H   H1054     1.0  0.27304  0.15772  0.64300  1.0000
  H   H1055     1.0  0.26057  0.18878  0.65407  1.0000
  H   H1056     1.0  0.20478  0.19060  0.64466  1.0000
  H   H1057     1.0  0.21721  0.16024  0.63314  1.0000
  C   C1313     1.0  0.32777  0.10771  0.55144  1.0000
  C   C1314     1.0  0.32515  0.08875  0.55861  1.0000
  C   C1315     1.0  0.32153  0.07852  0.54653  1.0000
  C   C1316     1.0  0.31978  0.08735  0.52743  1.0000
  C   C1317     1.0  0.32221  0.10637  0.52037  1.0000
  C   C1318     1.0  0.32664  0.11628  0.53218  1.0000
  H   H1058     1.0  0.32630  0.08187  0.57333  1.0000
  H   H1059     1.0  0.31984  0.06377  0.55208  1.0000
  H   H1060     1.0  0.32102  0.11334  0.50573  1.0000
  H   H1061     1.0  0.32921  0.13068  0.52638  1.0000
  C   C1319     1.0  0.26737  0.99989  0.78124  1.0000
  C   C1320     1.0  0.25171  0.01540  0.78301  1.0000
  C   C1321     1.0  0.25093  0.02843  0.79432  1.0000
  C   C1322     1.0  0.26571  0.02584  0.80413  1.0000
  C   C1323     1.0  0.28109  0.01007  0.80279  1.0000
  C   C1324     1.0  0.28211  0.99735  0.79105  1.0000
  H   H1062     1.0  0.24007  0.01732  0.77588  1.0000
  H   H1063     1.0  0.23879  0.04043  0.79554  1.0000
  H   H1064     1.0  0.29213  0.00753  0.81090  1.0000
  C   C1325     1.0  0.22196  0.25400  0.68052  1.0000
  H   H1065     1.0  0.22342  0.19169  0.56475  1.0000
  C   C1326     1.0  0.22587  0.34391  0.84855  1.0000
  H   H1066     1.0  0.20411  0.25647  0.47833  1.0000
  H   H1067     1.0  0.25695  0.15100  0.57403  1.0000
  C   C1327     1.0  0.25710  0.04763  0.68284  1.0000
  C   C1328     1.0  0.25954  0.06618  0.67301  1.0000
  C   C1329     1.0  0.27801  0.06982  0.66445  1.0000
  C   C1330     1.0  0.29427  0.05494  0.66577  1.0000
  C   C1331     1.0  0.29190  0.03633  0.67549  1.0000
  C   C1332     1.0  0.27335  0.03269  0.68409  1.0000
  H   H1068     1.0  0.24716  0.07784  0.67207  1.0000
  H   H1069     1.0  0.27959  0.08417  0.65681  1.0000
  H   H1070     1.0  0.30440  0.02474  0.67633  1.0000
  H   H1071     1.0  0.27166  0.01829  0.69141  1.0000
  C   C1333     1.0  0.25611  0.22720  0.93925  1.0000
  H   H1072     1.0  0.35112  0.28033  0.87846  1.0000
  S   S193      1.0  0.27059  0.16423  0.96976  1.0000
  C   C1334     1.0  0.20183  0.07444  0.77909  1.0000
  C   C1335     1.0  0.21894  0.08096  0.77011  1.0000
  C   C1336     1.0  0.22767  0.07918  0.75102  1.0000
  C   C1337     1.0  0.21888  0.07115  0.74103  1.0000
  P   P41       1.0  0.24964  0.08748  0.73877  1.0000
  C   C1338     1.0  0.24331  0.10767  0.71970  1.0000
  C   C1339     1.0  0.26016  0.09459  0.75487  1.0000
  C   C1340     1.0  0.26436  0.11303  0.75087  1.0000
  C   C1341     1.0  0.27296  0.11802  0.76330  1.0000
  C   C1342     1.0  0.27810  0.10446  0.77939  1.0000
  C   C1343     1.0  0.27450  0.08597  0.78312  1.0000
  C   C1344     1.0  0.26552  0.08103  0.77099  1.0000
  C   C1345     1.0  0.26772  0.06792  0.73028  1.0000
  C   C1346     1.0  0.26576  0.04873  0.73778  1.0000
  C   C1347     1.0  0.28015  0.03365  0.73161  1.0000
  C   C1348     1.0  0.29661  0.03761  0.71800  1.0000
  C   C1349     1.0  0.29882  0.05663  0.71073  1.0000
  C   C1350     1.0  0.28458  0.07171  0.71707  1.0000
  H   H1073     1.0  0.28897  0.47041  0.86242  1.0000
  C   C1351     1.0  0.22701  0.06357  0.50073  1.0000
  S   S194      1.0  0.32023  0.12519  0.97188  1.0000
  H   H1074     1.0  0.22529  0.08718  0.77817  1.0000
  H   H1075     1.0  0.22563  0.06923  0.72645  1.0000
  H   H1076     1.0  0.26146  0.12346  0.73800  1.0000
  H   H1077     1.0  0.27606  0.13225  0.76022  1.0000
  H   H1078     1.0  0.28516  0.10810  0.78884  1.0000
  H   H1079     1.0  0.27880  0.07532  0.79537  1.0000
  H   H1080     1.0  0.26300  0.06652  0.77409  1.0000
  H   H1081     1.0  0.25952  0.09387  0.69581  1.0000
  H   H1082     1.0  0.25323  0.04525  0.74843  1.0000
  H   H1083     1.0  0.27835  0.01891  0.73727  1.0000
  H   H1084     1.0  0.30748  0.02599  0.71280  1.0000
  H   H1085     1.0  0.31131  0.05978  0.69978  1.0000
  H   H1086     1.0  0.28659  0.08633  0.71133  1.0000
  C   C1352     1.0  0.22212  0.19121  0.93485  1.0000
  C   C1353     1.0  0.20902  0.09606  0.67013  1.0000
  C   C1354     1.0  0.22077  0.10361  0.88919  1.0000
  H   H1087     1.0  0.25824  0.12640  0.87662  1.0000
  H   H1088     1.0  0.26998  0.07574  0.62416  1.0000
  H   H1089     1.0  0.24070  0.09505  0.64037  1.0000
  H   H1090     1.0  0.21939  0.09457  0.49479  1.0000
  C   C1355     1.0  0.36590  0.11249  0.78140  1.0000
  C   C1356     1.0  0.19301  0.39694  0.86877  1.0000
  C   C1357     1.0  0.38480  0.12328  0.66356  1.0000
  C   C1358     1.0  0.25661  0.07246  0.60263  1.0000
  C   C1359     1.0  0.26555  0.13584  0.53744  1.0000
  C   C1360     1.0  0.19915  0.43677  0.70243  1.0000
  C   C1361     1.0  0.27995  0.10091  0.95549  1.0000
  H   H1091     1.0  0.28925  0.31882  0.68534  1.0000
  C   C1362     1.0  0.28301  0.30944  0.68063  1.0000
  C   C1363     1.0  0.28976  0.28948  0.68471  1.0000
  C   C1364     1.0  0.28137  0.27736  0.67900  1.0000
  C   C1365     1.0  0.26624  0.28520  0.66901  1.0000
  C   C1366     1.0  0.25976  0.30526  0.66473  1.0000
  P   P42       1.0  0.25418  0.26996  0.66256  1.0000
  C   C1367     1.0  0.25089  0.28000  0.63809  1.0000
  C   C1368     1.0  0.26847  0.24569  0.66377  1.0000
  C   C1369     1.0  0.27869  0.23900  0.64691  1.0000
  C   C1370     1.0  0.28949  0.22014  0.64808  1.0000
  C   C1371     1.0  0.29024  0.20781  0.66603  1.0000
  C   C1372     1.0  0.26916  0.23313  0.68177  1.0000
  C   C1373     1.0  0.23455  0.27881  0.63225  1.0000
  C   C1374     1.0  0.23254  0.28627  0.61311  1.0000
  C   C1375     1.0  0.24669  0.29501  0.59974  1.0000
  C   C1376     1.0  0.26302  0.29621  0.60541  1.0000
  C   C1377     1.0  0.26516  0.28870  0.62449  1.0000
  C   C1378     1.0  0.23127  0.26888  0.67910  1.0000
  H   H1092     1.0  0.24095  0.01145  0.83925  1.0000
  C   C1379     1.0  0.19255  0.21634  0.84174  1.0000
  H   H1093     1.0  0.35932  0.39143  0.87804  1.0000
  C   C1380     1.0  0.19831  0.41955  0.77167  1.0000
  C   C1381     1.0  0.20765  0.18304  0.47817  1.0000
  C   C1382     1.0  0.31824  0.40998  0.86054  1.0000
  H   H1094     1.0  0.20314  0.34999  0.83331  1.0000
  H   H1095     1.0  0.28669  0.26198  0.68248  1.0000
  H   H1096     1.0  0.24791  0.31162  0.65728  1.0000
  H   H1097     1.0  0.27823  0.24817  0.63282  1.0000
  H   H1098     1.0  0.29720  0.21498  0.63503  1.0000
  H   H1099     1.0  0.29862  0.19319  0.66676  1.0000
  H   H1100     1.0  0.26119  0.23793  0.69491  1.0000
  H   H1101     1.0  0.22318  0.27242  0.64237  1.0000
  H   H1102     1.0  0.21967  0.28579  0.60879  1.0000
  H   H1103     1.0  0.24485  0.30104  0.58506  1.0000
  H   H1104     1.0  0.27394  0.30312  0.59508  1.0000
  H   H1105     1.0  0.27794  0.28968  0.62863  1.0000
  H   H1106     1.0  0.19238  0.14261  0.64931  1.0000
  H   H1107     1.0  0.32084  0.00244  0.75126  1.0000
  H   H1108     1.0  0.26156  0.16916  0.49057  1.0000
  C   C1383     1.0  0.38214  0.10331  0.89924  1.0000
  H   H1109     1.0  0.22841  0.24329  0.67174  1.0000
  C   C1384     1.0  0.28962  0.45245  0.72493  1.0000
  H   H1110     1.0  0.21219  0.12545  0.92704  1.0000
  H   H1111     1.0  0.22246  0.22945  0.90798  1.0000
  C   C1385     1.0  0.25210  0.45446  0.72133  1.0000
  C   C1386     1.0  0.26470  0.43646  0.72426  1.0000
  C   C1387     1.0  0.28359  0.43559  0.72594  1.0000
  P   P43       1.0  0.25596  0.41477  0.72734  1.0000
  C   C1388     1.0  0.23355  0.41618  0.74498  1.0000
  C   C1389     1.0  0.25250  0.41170  0.70488  1.0000
  C   C1390     1.0  0.25116  0.39350  0.70315  1.0000
  C   C1391     1.0  0.24827  0.39094  0.68594  1.0000
  C   C1392     1.0  0.24686  0.40645  0.67029  1.0000
  C   C1393     1.0  0.24846  0.42453  0.67178  1.0000
  C   C1394     1.0  0.25119  0.42719  0.68903  1.0000
  C   C1395     1.0  0.22998  0.42705  0.75921  1.0000
  C   C1396     1.0  0.21234  0.42888  0.77231  1.0000
  H   H1112     1.0  0.22689  0.06541  0.83271  1.0000
  C   C1397     1.0  0.21310  0.33418  0.63913  1.0000
  C   C1398     1.0  0.21946  0.40659  0.74464  1.0000
  C   C1399     1.0  0.27366  0.39439  0.73593  1.0000
  C   C1400     1.0  0.29002  0.38727  0.72282  1.0000
  H   H1113     1.0  0.29837  0.98614  0.73296  1.0000
  H   H1114     1.0  0.23736  0.45545  0.72038  1.0000
  H   H1115     1.0  0.29359  0.42197  0.72851  1.0000
  H   H1116     1.0  0.25198  0.38135  0.71524  1.0000
  H   H1117     1.0  0.24673  0.37698  0.68487  1.0000
  H   H1118     1.0  0.24421  0.40450  0.65712  1.0000
  H   H1119     1.0  0.24699  0.43665  0.65977  1.0000
  H   H1120     1.0  0.25180  0.44145  0.68997  1.0000
  H   H1121     1.0  0.24075  0.43419  0.76024  1.0000
  H   H1122     1.0  0.20963  0.43736  0.78309  1.0000
  C   C1401     1.0  0.32517  0.34792  0.87313  1.0000
  H   H1123     1.0  0.32980  0.16256  0.49334  1.0000
  H   H1124     1.0  0.22173  0.39789  0.73412  1.0000
  H   H1125     1.0  0.29148  0.39320  0.70749  1.0000
  H   H1126     1.0  0.25977  0.39187  0.76614  1.0000
  H   H1127     1.0  0.30888  0.13864  0.84357  1.0000
  C   C1402     1.0  0.34542  0.07201  0.70503  1.0000
  C   C1403     1.0  0.33678  0.09770  0.67845  1.0000
  C   C1404     1.0  0.20299  0.20029  0.80894  1.0000
  H   H1128     1.0  0.26868  0.24088  0.55838  1.0000
  H   H1129     1.0  0.31893  0.18697  0.69629  1.0000
  C   C1405     1.0  0.32566  0.01887  0.76924  1.0000
  C   C1406     1.0  0.33531  0.44172  0.78146  1.0000
  C   C1407     1.0  0.33134  0.23285  0.93532  1.0000
  H   H1130     1.0  0.36751  0.12969  0.84899  1.0000
  C   C1408     1.0  0.32785  0.01353  0.75176  1.0000
  H   H1131     1.0  0.25511  0.11234  0.82332  1.0000
  C   C1409     1.0  0.21315  0.16304  0.48414  1.0000
  C   C1410     1.0  0.35840  0.44845  0.81149  1.0000
  C   C1411     1.0  0.21053  0.11337  0.81643  1.0000
  C   C1412     1.0  0.23627  0.19143  0.51573  1.0000
  C   C1413     1.0  0.21140  0.99552  0.80240  1.0000
  S   S195      1.0  0.21783  0.34438  0.67062  1.0000
  H   H1132     1.0  0.36778  0.08799  0.74067  1.0000
  H   H1133     1.0  0.24571  0.47260  0.83231  1.0000
  C   C1414     1.0  0.20199  0.40821  0.75802  1.0000
  S   S196      1.0  0.33206  0.14850  0.64990  1.0000
  C   C1415     1.0  0.36442  0.34194  0.82031  1.0000
  C   C1416     1.0  0.22401  0.25832  0.52198  1.0000
  C   C1417     1.0  0.34148  0.42492  0.79459  1.0000
  H   H1134     1.0  0.33906  0.45517  0.78086  1.0000
  H   H1135     1.0  0.19891  0.10411  0.91523  1.0000
  C   C1418     1.0  0.34356  0.09760  0.84446  1.0000
  C   C1419     1.0  0.25813  0.12651  0.92941  1.0000
  H   H1136     1.0  0.21023  0.26162  0.88982  1.0000
  H   H1137     1.0  0.24524  0.10458  0.86549  1.0000
  C   C1420     1.0  0.22182  0.23131  0.89297  1.0000
  H   H1138     1.0  0.21634  0.15354  0.71379  1.0000
  C   C1421     1.0  0.26642  0.24090  0.78349  1.0000
  C   C1422     1.0  0.28219  0.23272  0.79239  1.0000
  C   C1423     1.0  0.27920  0.22649  0.81241  1.0000
  C   C1424     1.0  0.26046  0.22842  0.82358  1.0000
  C   C1425     1.0  0.24448  0.23646  0.81474  1.0000
  C   C1426     1.0  0.24766  0.24275  0.79459  1.0000
  C   C1427     1.0  0.20720  0.26317  0.81950  1.0000
  H   H1139     1.0  0.23648  0.24670  0.58299  1.0000
  H   H1140     1.0  0.19697  0.38303  0.87799  1.0000
  C   C1428     1.0  0.20467  0.47873  0.80157  1.0000
  C   C1429     1.0  0.19379  0.32102  0.66935  1.0000
  C   C1430     1.0  0.22628  0.21797  0.86484  1.0000
  C   C1431     1.0  0.22869  0.16325  0.92038  1.0000
  H   H1141     1.0  0.26873  0.24609  0.76799  1.0000
  H   H1142     1.0  0.29675  0.23152  0.78381  1.0000
  H   H1143     1.0  0.29147  0.22051  0.81931  1.0000
  H   H1144     1.0  0.23560  0.24941  0.78747  1.0000
  C   C1432     1.0  0.20211  0.08236  0.48334  1.0000
  C   C1433     1.0  0.27940  0.09572  0.93868  1.0000
  H   H1145     1.0  0.19501  0.05868  0.74214  1.0000
  H   H1146     1.0  0.23020  0.20551  0.85830  1.0000
  H   H1147     1.0  0.28696  0.14232  0.90624  1.0000
  C   C1434     1.0  0.32244  0.10736  0.69128  1.0000
  C   C1435     1.0  0.27238  0.25043  0.54468  1.0000
  C   C1436     1.0  0.21856  0.33025  0.88258  1.0000
  H   H1148     1.0  0.30240  0.24416  0.54611  1.0000
  C   C1437     1.0  0.19649  0.18347  0.92508  1.0000
  C   C1438     1.0  0.22036  0.23644  0.85403  1.0000
  C   C1439     1.0  0.22831  0.22042  0.55492  1.0000
  C   C1440     1.0  0.24269  0.10718  0.82295  1.0000
  C   C1441     1.0  0.35680  0.03442  0.68448  1.0000
  H   H1149     1.0  0.30139  0.28341  0.69247  1.0000
  H   H1150     1.0  0.23594  0.34920  0.83589  1.0000
  H   H1151     1.0  0.25008  0.01898  0.89203  1.0000
  H   H1152     1.0  0.37142  0.38294  0.82070  1.0000
  H   H1153     1.0  0.29891  0.18118  0.85204  1.0000
  C   C1442     1.0  0.26986  0.17625  0.86114  1.0000
  H   H1154     1.0  0.22711  0.20043  0.94104  1.0000
  H   H1155     1.0  0.28061  0.19442  0.52869  1.0000
  H   H1156     1.0  0.37722  0.21468  0.97001  1.0000
  C   C1443     1.0  0.27128  0.21426  0.93041  1.0000
  C   C1444     1.0  0.27585  0.19496  0.93985  1.0000
  C   C1445     1.0  0.22251  0.28268  0.69061  1.0000
  H   H1157     1.0  0.22598  0.13274  0.60967  1.0000
  H   H1158     1.0  0.28890  0.09131  0.96519  1.0000
  C   C1446     1.0  0.34838  0.08023  0.68524  1.0000
  C   C1447     1.0  0.19568  0.13273  0.67864  1.0000
  C   C1448     1.0  0.26862  0.10845  0.92567  1.0000
  S   S197      1.0  0.20411  0.29116  0.92330  1.0000
  C   C1449     1.0  0.37241  0.15165  0.67740  1.0000
  C   C1450     1.0  0.25688  0.16677  0.87566  1.0000
  C   C1451     1.0  0.18957  0.39786  0.85069  1.0000
  H   H1159     1.0  0.32821  0.07588  0.73319  1.0000
  C   C1452     1.0  0.23775  0.44946  0.80099  1.0000
  C   C1453     1.0  0.22018  0.44560  0.81242  1.0000
  C   C1454     1.0  0.22862  0.24801  0.49183  1.0000
  H   H1160     1.0  0.32034  0.23865  0.87736  1.0000
  C   C1455     1.0  0.38065  0.26654  0.92473  1.0000
  C   C1456     1.0  0.19981  0.33059  0.88136  1.0000
  H   H1161     1.0  0.24671  0.47097  0.86624  1.0000
  H   H1162     1.0  0.20315  0.15507  0.49458  1.0000
  H   H1163     1.0  0.33850  0.23664  0.92037  1.0000
  S   S198      1.0  0.23782  0.12824  0.48432  1.0000
  P   P44       1.0  0.22004  0.23934  0.82886  1.0000
  H   H1164     1.0  0.24600  0.33705  0.86738  1.0000
  C   C1457     1.0  0.29498  0.16141  0.87939  1.0000
  H   H1165     1.0  0.25059  0.43814  0.80069  1.0000
  H   H1166     1.0  0.21975  0.43114  0.82071  1.0000
  C   C1458     1.0  0.22729  0.21548  0.88412  1.0000
  C   C1459     1.0  0.31675  0.22239  0.94020  1.0000
  H   H1167     1.0  0.19651  0.23160  0.77358  1.0000
  C   C1460     1.0  0.33110  0.22949  0.82224  1.0000
  C   C1461     1.0  0.32545  0.21624  0.83897  1.0000
  C   C1462     1.0  0.30877  0.22172  0.85236  1.0000
  C   C1463     1.0  0.29796  0.24060  0.84928  1.0000
  C   C1464     1.0  0.30383  0.25422  0.83275  1.0000
  C   C1465     1.0  0.32026  0.24832  0.81905  1.0000
  P   P45       1.0  0.29226  0.27953  0.82999  1.0000
  C   C1466     1.0  0.26824  0.28333  0.84481  1.0000
  C   C1467     1.0  0.30620  0.29230  0.83727  1.0000
  C   C1468     1.0  0.29708  0.30908  0.84452  1.0000
  C   C1469     1.0  0.30792  0.31954  0.84933  1.0000
  C   C1470     1.0  0.32791  0.31349  0.84665  1.0000
  C   C1471     1.0  0.33706  0.29703  0.83928  1.0000
  C   C1472     1.0  0.32634  0.28642  0.83459  1.0000
  C   C1473     1.0  0.25194  0.29199  0.83657  1.0000
  C   C1474     1.0  0.23361  0.29525  0.84834  1.0000
  C   C1475     1.0  0.23145  0.29029  0.86836  1.0000
  C   C1476     1.0  0.24758  0.28245  0.87668  1.0000
  C   C1477     1.0  0.26591  0.27914  0.86498  1.0000
  C   C1478     1.0  0.29134  0.28901  0.80487  1.0000
  C   C1479     1.0  0.28148  0.28105  0.79585  1.0000
  C   C1480     1.0  0.27942  0.28918  0.77682  1.0000
  C   C1481     1.0  0.28773  0.30488  0.76649  1.0000
  C   C1482     1.0  0.29814  0.31244  0.77517  1.0000
  C   C1483     1.0  0.29980  0.30470  0.79433  1.0000
  H   H1168     1.0  0.34436  0.22542  0.81208  1.0000
  C   C1484     1.0  0.23990  0.08944  0.62842  1.0000
  H   H1169     1.0  0.28544  0.24448  0.86014  1.0000
  H   H1170     1.0  0.32531  0.25855  0.80631  1.0000
  H   H1171     1.0  0.28167  0.31441  0.84610  1.0000
  H   H1172     1.0  0.30088  0.33260  0.85467  1.0000
  H   H1173     1.0  0.33652  0.32178  0.84970  1.0000
  C   C1485     1.0  0.24503  0.01737  0.86489  1.0000
  H   H1174     1.0  0.33399  0.27391  0.82862  1.0000
  H   H1175     1.0  0.25319  0.29684  0.82117  1.0000
  H   H1176     1.0  0.22109  0.30210  0.84197  1.0000
  H   H1177     1.0  0.21732  0.29299  0.87750  1.0000
  H   H1178     1.0  0.24588  0.27921  0.89224  1.0000
  H   H1179     1.0  0.27831  0.27358  0.87170  1.0000
  H   H1180     1.0  0.27465  0.26916  0.80386  1.0000
  H   H1181     1.0  0.27093  0.28374  0.77019  1.0000
  H   H1182     1.0  0.28564  0.31155  0.75195  1.0000
  H   H1183     1.0  0.30440  0.32473  0.76728  1.0000
  H   H1184     1.0  0.30744  0.31129  0.80083  1.0000
  C   C1486     1.0  0.36387  0.11801  0.72690  1.0000
  C   C1487     1.0  0.35776  0.10174  0.73913  1.0000
  C   C1488     1.0  0.33890  0.10333  0.74987  1.0000
  C   C1489     1.0  0.32610  0.12119  0.74824  1.0000
  C   C1490     1.0  0.33228  0.13774  0.73642  1.0000
  C   C1491     1.0  0.35122  0.13596  0.72561  1.0000
  P   P46       1.0  0.31584  0.16092  0.73515  1.0000
  C   C1492     1.0  0.29829  0.16088  0.72169  1.0000
  C   C1493     1.0  0.30555  0.16586  0.75908  1.0000
  C   C1494     1.0  0.29158  0.18271  0.76149  1.0000
  C   C1495     1.0  0.28407  0.18702  0.77982  1.0000
  C   C1496     1.0  0.29101  0.17496  0.79579  1.0000
  C   C1497     1.0  0.30560  0.15870  0.79339  1.0000
  C   C1498     1.0  0.31296  0.15424  0.77512  1.0000
  C   C1499     1.0  0.26530  0.16818  0.71693  1.0000
  C   C1500     1.0  0.27836  0.16683  0.72842  1.0000
  C   C1501     1.0  0.26294  0.15445  0.89208  1.0000
  C   C1502     1.0  0.34150  0.46262  0.81448  1.0000
  H   H1185     1.0  0.33440  0.09076  0.75975  1.0000
  H   H1186     1.0  0.31164  0.12222  0.75676  1.0000
  H   H1187     1.0  0.35641  0.14839  0.71639  1.0000
  H   H1188     1.0  0.28677  0.19272  0.74911  1.0000
  H   H1189     1.0  0.27313  0.19991  0.78158  1.0000
  H   H1190     1.0  0.28546  0.17847  0.80993  1.0000
  H   H1191     1.0  0.31163  0.14971  0.80554  1.0000
  H   H1192     1.0  0.32496  0.14216  0.77355  1.0000
  H   H1193     1.0  0.25005  0.17348  0.72175  1.0000
  H   H1194     1.0  0.27274  0.17056  0.74237  1.0000
  C   C1503     1.0  0.31479  0.16462  0.49276  1.0000
  C   C1504     1.0  0.25766  0.12751  0.52689  1.0000
  C   C1505     1.0  0.25945  0.10755  0.53059  1.0000
  C   C1506     1.0  0.26894  0.09576  0.54504  1.0000
  C   C1507     1.0  0.27678  0.10395  0.55564  1.0000
  C   C1508     1.0  0.27570  0.12383  0.55143  1.0000
  S   S199      1.0  0.28843  0.03058  0.86314  1.0000
  H   H1195     1.0  0.25390  0.10126  0.52187  1.0000
  H   H1196     1.0  0.27089  0.08025  0.54751  1.0000
  H   H1197     1.0  0.28452  0.09480  0.56654  1.0000
  H   H1198     1.0  0.22053  0.16370  0.58718  1.0000
  C   C1509     1.0  0.20645  0.17640  0.75579  1.0000
  C   C1510     1.0  0.20401  0.25316  0.69284  1.0000
  H   H1199     1.0  0.32755  0.45955  0.81562  1.0000
  C   C1511     1.0  0.19688  0.14870  0.78915  1.0000
  H   H1200     1.0  0.34726  0.09221  0.48514  1.0000
  C   C1512     1.0  0.28380  0.29102  0.95934  1.0000
  H   H1201     1.0  0.22093  0.32287  0.55828  1.0000
  C   C1513     1.0  0.33681  0.40763  0.79444  1.0000
  C   C1514     1.0  0.22263  0.08704  0.60541  1.0000
  C   C1515     1.0  0.33715  0.25900  0.87630  1.0000
  C   C1516     1.0  0.21668  0.27873  0.81321  1.0000
  P   P47       1.0  0.26381  0.16157  0.53144  1.0000
  C   C1517     1.0  0.32289  0.12930  0.84406  1.0000
  H   H1202     1.0  0.26564  0.16361  0.59789  1.0000
  C   C1518     1.0  0.24639  0.12312  0.68579  1.0000
  H   H1203     1.0  0.20906  0.32747  0.61376  1.0000
  C   C1519     1.0  0.30741  0.27232  0.90519  1.0000
  H   H1204     1.0  0.31526  0.35483  0.75456  1.0000
  H   H1205     1.0  0.23140  0.27679  0.81464  1.0000
  H   H1206     1.0  0.19660  0.26306  0.56985  1.0000
  C   C1520     1.0  0.21157  0.13916  0.60708  1.0000
  H   H1207     1.0  0.29317  0.25137  0.90219  1.0000
  H   H1208     1.0  0.26511  0.18575  0.84852  1.0000
  S   S200      1.0  0.20978  0.32074  0.72501  1.0000
  C   C1521     1.0  0.19001  0.16562  0.59094  1.0000
  C   C1522     1.0  0.30720  0.30211  0.93097  1.0000
  C   C1523     1.0  0.22254  0.09309  0.62211  1.0000
  C   C1524     1.0  0.35012  0.39852  0.86776  1.0000
  C   C1525     1.0  0.36815  0.12706  0.65589  1.0000
  H   H1209     1.0  0.29672  0.15317  0.67818  1.0000
  C   C1526     1.0  0.25830  0.26079  0.53391  1.0000
  C   C1527     1.0  0.22664  0.20349  0.56869  1.0000
  C   C1528     1.0  0.23155  0.33708  0.86626  1.0000
  C   C1529     1.0  0.27785  0.18599  0.57698  1.0000
  H   H1210     1.0  0.21488  0.30873  0.79914  1.0000
  C   C1530     1.0  0.37660  0.02487  0.86527  1.0000
  H   H1211     1.0  0.19133  0.40051  0.75787  1.0000
  C   C1531     1.0  0.23509  0.17561  0.92800  1.0000
  S   S201      1.0  0.25030  0.25114  0.92684  1.0000
  H   H1212     1.0  0.36689  0.11774  0.64724  1.0000
  C   C1532     1.0  0.22397  0.16513  0.53910  1.0000
  C   C1533     1.0  0.25069  0.10692  0.70017  1.0000
  H   H1213     1.0  0.31688  0.42467  0.83135  1.0000
  C   C1534     1.0  0.28007  0.21429  0.68287  1.0000
  S   S202      1.0  0.35507  0.13613  0.93490  1.0000
  C   C1535     1.0  0.27219  0.38663  0.75571  1.0000
  H   H1214     1.0  0.20607  0.37623  0.90882  1.0000
  C   C1536     1.0  0.37612  0.45247  0.81140  1.0000
  C   C1537     1.0  0.21572  0.30977  0.56069  1.0000
  H   H1215     1.0  0.31601  0.99545  0.69943  1.0000
  C   C1538     1.0  0.32725  0.23374  0.96892  1.0000
  H   H1216     1.0  0.23215  0.20127  0.89230  1.0000
  H   H1217     1.0  0.33370  0.08585  0.81065  1.0000
  C   C1539     1.0  0.24267  0.08752  0.82880  1.0000
  H   H1218     1.0  0.36076  0.20215  0.73129  1.0000
  C   C1540     1.0  0.35820  0.40583  0.84860  1.0000
  C   C1541     1.0  0.32778  0.19010  0.70428  1.0000
  Fe  Fe98      1.0  0.20122  0.30908  0.94476  1.0000
  H   H1219     1.0  0.28704  0.28439  0.49563  1.0000
  H   H1220     1.0  0.19520  0.07556  0.79387  1.0000
  C   C1542     1.0  0.20735  0.33239  0.65914  1.0000
  C   C1543     1.0  0.20532  0.99801  0.84092  1.0000
  Fe  Fe99      1.0  0.30146  0.15186  0.95798  1.0000
  C   C1544     1.0  0.24568  0.22080  0.95770  1.0000
  C   C1545     1.0  0.26517  0.18848  0.95814  1.0000
  H   H1221     1.0  0.30524  0.15961  0.52354  1.0000
  H   H1222     1.0  0.27389  0.33992  0.94654  1.0000
  H   H1223     1.0  0.30469  0.21153  0.86557  1.0000
  H   H1224     1.0  0.23425  0.23076  0.96481  1.0000
  C   C1546     1.0  0.28191  0.19473  0.55747  1.0000
  C   C1547     1.0  0.34764  0.03729  0.73560  1.0000
  H   H1225     1.0  0.29529  0.27750  0.91583  1.0000
  P   P48       1.0  0.32815  0.29635  0.91221  1.0000
  H   H1226     1.0  0.20284  0.99929  0.85579  1.0000
  Fe  Fe100     1.0  0.22277  0.26842  0.94137  1.0000
  H   H1227     1.0  0.26978  0.06445  0.59519  1.0000
  C   C1548     1.0  0.20969  0.25719  0.49039  1.0000
  C   C1549     1.0  0.27689  0.47025  0.72223  1.0000
  S   S203      1.0  0.32261  0.17077  0.95199  1.0000
  H   H1228     1.0  0.35976  0.07333  0.67498  1.0000
  C   C1550     1.0  0.23436  0.14003  0.69074  1.0000
  S   S204      1.0  0.33298  0.03668  0.85372  1.0000
  H   H1229     1.0  0.28054  0.20467  0.69676  1.0000
  C   C1551     1.0  0.30083  0.16300  0.50983  1.0000
  Fe  Fe101     1.0  0.21329  0.34056  0.74184  1.0000
  C   C1552     1.0  0.33014  0.40047  0.87369  1.0000
  C   C1553     1.0  0.35127  0.19899  0.72388  1.0000
  C   C1554     1.0  0.30491  0.37291  0.72948  1.0000
  C   C1555     1.0  0.28708  0.37221  0.76227  1.0000
  C   C1556     1.0  0.25823  0.47123  0.72029  1.0000
  C   C1557     1.0  0.21632  0.08142  0.49328  1.0000
  C   C1558     1.0  0.36922  0.03489  0.69599  1.0000
  H   H1230     1.0  0.28600  0.36635  0.77755  1.0000
  C   C1559     1.0  0.22852  0.20212  0.58753  1.0000
  C   C1560     1.0  0.30473  0.15533  0.70376  1.0000
  C   C1561     1.0  0.27194  0.16323  0.69887  1.0000
  H   H1231     1.0  0.33235  0.03771  0.78351  1.0000
  H   H1232     1.0  0.24562  0.03228  0.85840  1.0000
  C   C1562     1.0  0.20078  0.11686  0.69303  1.0000
  H   H1233     1.0  0.23961  0.07208  0.58288  1.0000
  C   C1563     1.0  0.27414  0.31004  0.95968  1.0000
  C   C1564     1.0  0.21854  0.15817  0.75877  1.0000
  H   H1234     1.0  0.22389  0.12490  0.73944  1.0000
  H   H1235     1.0  0.22685  0.18916  0.59837  1.0000
  C   C1565     1.0  0.30353  0.36556  0.74924  1.0000
  H   H1236     1.0  0.24207  0.16910  0.87424  1.0000
  C   C1566     1.0  0.23959  0.07671  0.59576  1.0000
  C   C1567     1.0  0.34650  0.08912  0.80040  1.0000
  H   H1237     1.0  0.37745  0.30396  0.79794  1.0000
  C   C1568     1.0  0.29161  0.15674  0.69235  1.0000
  C   C1569     1.0  0.34096  0.18437  0.73282  1.0000
  C   C1570     1.0  0.33837  0.20448  0.69529  1.0000
  H   H1238     1.0  0.31999  0.15043  0.69828  1.0000
  C   C1571     1.0  0.33890  0.02260  0.73499  1.0000
  H   H1239     1.0  0.26191  0.16459  0.68978  1.0000
  H   H1240     1.0  0.22626  0.22121  0.54066  1.0000
  H   H1241     1.0  0.34268  0.17631  0.74714  1.0000
  H   H1242     1.0  0.22619  0.15152  0.54926  1.0000
  H   H1243     1.0  0.36961  0.34820  0.82925  1.0000
  H   H1244     1.0  0.22301  0.32453  0.89625  1.0000
  C   C1572     1.0  0.23050  0.12442  0.72451  1.0000
  C   C1573     1.0  0.25813  0.13124  0.94680  1.0000
  C   C1574     1.0  0.26801  0.31731  0.67064  1.0000
  H   H1245     1.0  0.31268  0.21799  0.92905  1.0000
  H   H1246     1.0  0.28785  0.08204  0.93541  1.0000
  H   H1247     1.0  0.31764  0.36769  0.71938  1.0000
  P   P49       1.0  0.36106  0.04981  0.71381  1.0000
  H   H1248     1.0  0.26097  0.31309  0.97027  1.0000
  C   C1575     1.0  0.34932  0.10814  0.79471  1.0000
  H   H1249     1.0  0.30403  0.45168  0.72664  1.0000
  P   P50       1.0  0.20078  0.10748  0.63363  1.0000
  C   C1576     1.0  0.21951  0.27807  0.55405  1.0000
  Fe  Fe102     1.0  0.34221  0.14384  0.96411  1.0000
  C   C1577     1.0  0.20736  0.29686  0.80450  1.0000
  C   C1578     1.0  0.23965  0.17358  0.52849  1.0000
  H   H1250     1.0  0.35160  0.05400  0.75423  1.0000
  H   H1251     1.0  0.32205  0.39375  0.78190  1.0000
  S   S205      1.0  0.35716  0.05054  0.79924  1.0000
  C   C1579     1.0  0.37549  0.32506  0.81434  1.0000
  H   H1252     1.0  0.37420  0.16149  0.68521  1.0000
  H   H1253     1.0  0.34866  0.25390  0.86501  1.0000
  Fe  Fe103     1.0  0.24596  0.99036  0.74967  1.0000
  H   H1254     1.0  0.28154  0.19140  0.58767  1.0000
  C   C1580     1.0  0.35573  0.15541  0.66978  1.0000
  C   C1581     1.0  0.36034  0.07439  0.79287  1.0000
  C   C1582     1.0  0.20802  0.22146  0.82699  1.0000
  H   H1255     1.0  0.23956  0.29716  0.54079  1.0000
  C   C1583     1.0  0.19382  0.33776  0.86367  1.0000
  C   C1584     1.0  0.32630  0.41722  0.84136  1.0000
  H   H1256     1.0  0.20738  0.03435  0.48583  1.0000
  H   H1257     1.0  0.33906  0.10392  0.66317  1.0000
  H   H1258     1.0  0.22483  0.21712  0.79887  1.0000
  C   C1585     1.0  0.23576  0.24851  0.50758  1.0000
  C   C1586     1.0  0.33802  0.13634  0.84611  1.0000
  C   C1587     1.0  0.32105  0.25057  0.88307  1.0000
  C   C1588     1.0  0.26417  0.16303  0.56912  1.0000
  C   C1589     1.0  0.26916  0.17107  0.54940  1.0000
  C   C1590     1.0  0.28140  0.16520  0.50924  1.0000
  H   H1259     1.0  0.21211  0.08628  0.69961  1.0000
  C   C1591     1.0  0.23181  0.23621  0.55990  1.0000
  C   C1592     1.0  0.30762  0.21730  0.95949  1.0000
  C   C1593     1.0  0.21518  0.24960  0.88256  1.0000
  C   C1594     1.0  0.38102  0.27295  0.94093  1.0000
  C   C1595     1.0  0.37703  0.07869  0.77984  1.0000
  C   C1596     1.0  0.19223  0.00940  0.82953  1.0000
  C   C1597     1.0  0.26889  0.17025  0.58277  1.0000
  S   S206      1.0  0.20474  0.47262  0.70120  1.0000
  C   C1598     1.0  0.19699  0.13025  0.66006  1.0000
  H   H1260     1.0  0.21531  0.09369  0.88439  1.0000
  H   H1261     1.0  0.33586  0.15124  0.84708  1.0000
  C   C1599     1.0  0.22624  0.14063  0.71009  1.0000
  H   H1262     1.0  0.35865  0.21978  0.69799  1.0000
  C   C1600     1.0  0.27624  0.16850  0.49135  1.0000
  C   C1601     1.0  0.20161  0.06500  0.74993  1.0000
  C   C1602     1.0  0.20345  0.46021  0.81267  1.0000
  C   C1603     1.0  0.21470  0.25226  0.86305  1.0000
  C   C1604     1.0  0.34648  0.35035  0.81519  1.0000
  C   C1605     1.0  0.32574  0.11001  0.84302  1.0000
  H   H1263     1.0  0.19345  0.19042  0.48397  1.0000
  C   C1606     1.0  0.32427  0.27988  0.89954  1.0000
  C   C1607     1.0  0.35881  0.10454  0.84659  1.0000
  C   C1608     1.0  0.27740  0.18745  0.54374  1.0000
  H   H1264     1.0  0.28880  0.20697  0.55297  1.0000
  C   C1609     1.0  0.21155  0.10948  0.90657  1.0000
  C   C1610     1.0  0.20712  0.34426  0.84718  1.0000
  H   H1265     1.0  0.31401  0.10444  0.84156  1.0000
  C   C1611     1.0  0.34875  0.29209  0.94061  1.0000
  H   H1266     1.0  0.30533  0.33006  0.89028  1.0000
  C   C1612     1.0  0.20462  0.28170  0.70301  1.0000
  H   H1267     1.0  0.25212  0.12242  0.67074  1.0000
  H   H1268     1.0  0.33871  0.11945  0.80069  1.0000
  C   C1613     1.0  0.19530  0.00817  0.81027  1.0000
  H   H1269     1.0  0.31419  0.35897  0.86702  1.0000
  H   H1270     1.0  0.34803  0.36238  0.85669  1.0000
  H   H1271     1.0  0.21372  0.99462  0.78745  1.0000
  C   C1614     1.0  0.21759  0.20018  0.51292  1.0000
  H   H1272     1.0  0.20416  0.15938  0.91147  1.0000
  H   H1273     1.0  0.22284  0.13002  0.77701  1.0000
  C   C1615     1.0  0.35012  0.20891  0.70507  1.0000
  C   C1616     1.0  0.28140  0.32514  0.94628  1.0000
  H   H1274     1.0  0.35347  0.02317  0.66149  1.0000
  H   H1275     1.0  0.21385  0.08167  0.66715  1.0000
  H   H1276     1.0  0.33773  0.21200  0.68058  1.0000
  C   C1617     1.0  0.20495  0.26741  0.52048  1.0000
  C   C1618     1.0  0.35595  0.12405  0.84729  1.0000
  H   H1277     1.0  0.34524  0.08261  0.84407  1.0000
  H   H1278     1.0  0.37391  0.06145  0.88676  1.0000
  C   C1619     1.0  0.24238  0.00551  0.85407  1.0000
  C   C1620     1.0  0.36306  0.02298  0.67063  1.0000
  C   C1621     1.0  0.29688  0.26446  0.52009  1.0000
  H   H1279     1.0  0.30273  0.41163  0.86519  1.0000
  H   H1280     1.0  0.34451  0.98081  0.79284  1.0000
  H   H1281     1.0  0.30987  0.42378  0.75990  1.0000
  H   H1282     1.0  0.34809  0.24628  0.94595  1.0000
  C   C1622     1.0  0.35344  0.14309  0.65908  1.0000
  H   H1283     1.0  0.35826  0.20417  0.86190  1.0000
  C   C1623     1.0  0.21371  0.14430  0.77530  1.0000
  H   H1284     1.0  0.31736  0.01171  0.78227  1.0000
  H   H1285     1.0  0.20988  0.18704  0.74278  1.0000
  H   H1286     1.0  0.25308  0.28136  0.50773  1.0000
  H   H1287     1.0  0.23082  0.15244  0.67951  1.0000
  H   H1288     1.0  0.20670  0.19432  0.79611  1.0000
  H   H1289     1.0  0.32382  0.39475  0.88850  1.0000
  H   H1290     1.0  0.20393  0.36045  0.77298  1.0000
  H   H1291     1.0  0.33427  0.20188  0.84180  1.0000
  H   H1292     1.0  0.34468  0.16808  0.67193  1.0000
  H   H1293     1.0  0.36826  0.17543  0.82519  1.0000
  C   C1624     1.0  0.33421  0.03347  0.76997  1.0000
  H   H1294     1.0  0.20961  0.09049  0.59978  1.0000
  S   S207      1.0  0.21176  0.36603  0.71715  1.0000
  H   H1295     1.0  0.25036  0.24100  0.50864  1.0000
  C   C1625     1.0  0.19620  0.12997  0.61667  1.0000
  C   C1626     1.0  0.20786  0.09860  0.68864  1.0000
  H   H1296     1.0  0.19278  0.20723  0.93878  1.0000
  C   C1627     1.0  0.22622  0.29513  0.55079  1.0000
  H   H1297     1.0  0.23141  0.15459  0.74810  1.0000
  H   H1298     1.0  0.36183  0.09585  0.88755  1.0000
  C   C1628     1.0  0.31949  0.09947  0.71101  1.0000
  H   H1299     1.0  0.31373  0.12096  0.68576  1.0000
  P   P51       1.0  0.24581  0.14330  0.91130  1.0000
  H   H1300     1.0  0.33776  0.36297  0.82037  1.0000
  C   C1629     1.0  0.23749  0.10994  0.87841  1.0000
  H   H1301     1.0  0.36536  0.30811  0.89324  1.0000
  H   H1302     1.0  0.34178  0.39445  0.80411  1.0000
  C   C1630     1.0  0.22673  0.08073  0.82836  1.0000
  H   H1303     1.0  0.22344  0.34299  0.63109  1.0000
  C   C1631     1.0  0.33083  0.08175  0.71788  1.0000
  H   H1304     1.0  0.34040  0.01820  0.72162  1.0000
  C   C1632     1.0  0.34433  0.34984  0.86723  1.0000
  C   C1633     1.0  0.20207  0.27605  0.56711  1.0000
  C   C1634     1.0  0.37908  0.21973  0.88982  1.0000
  C   C1635     1.0  0.34635  0.41479  0.83515  1.0000
  C   C1636     1.0  0.32569  0.40718  0.78178  1.0000
  C   C1637     1.0  0.18811  0.26616  0.81734  1.0000
  H   H1305     1.0  0.30841  0.10704  0.72095  1.0000
  C   C1638     1.0  0.28295  0.27491  0.50934  1.0000
  P   P52       1.0  0.35665  0.42464  0.81056  1.0000
  H   H1306     1.0  0.34231  0.04306  0.68597  1.0000
  C   C1639     1.0  0.32306  0.98407  0.70960  1.0000
  C   C1640     1.0  0.30595  0.25757  0.89717  1.0000
  C   C1641     1.0  0.34517  0.04265  0.75327  1.0000
  H   H1307     1.0  0.33683  0.30252  0.94661  1.0000
  C   C1642     1.0  0.29799  0.32125  0.93214  1.0000
  H   H1308     1.0  0.37526  0.00993  0.86893  1.0000
  C   C1643     1.0  0.38171  0.01169  0.66831  1.0000
  H   H1309     1.0  0.19458  0.09629  0.47703  1.0000
  H   H1310     1.0  0.19865  0.23452  0.73861  1.0000
  C   C1644     1.0  0.20850  0.15684  0.59427  1.0000
  C   C1645     1.0  0.32024  0.33153  0.88638  1.0000
  H   H1311     1.0  0.19974  0.38223  0.79509  1.0000
  C   C1646     1.0  0.35383  0.31911  0.88803  1.0000
  H   H1312     1.0  0.30761  0.27225  0.94515  1.0000
  C   C1647     1.0  0.19309  0.45293  0.71097  1.0000
  S   S208      1.0  0.20138  0.25246  0.61739  1.0000
  H   H1313     1.0  0.19846  0.08795  0.82227  1.0000
  S   S209      1.0  0.29361  0.12162  0.48002  1.0000
  C   C1648     1.0  0.19197  0.41390  0.87462  1.0000
  H   H1314     1.0  0.37856  0.11683  0.71866  1.0000
  H   H1315     1.0  0.37370  0.33641  0.86934  1.0000
  C   C1649     1.0  0.30042  0.28710  0.94528  1.0000
  C   C1650     1.0  0.33446  0.31723  0.89442  1.0000
  C   C1651     1.0  0.22343  0.04666  0.49828  1.0000
  C   C1652     1.0  0.35870  0.33529  0.87445  1.0000
  H   H1316     1.0  0.19535  0.27462  0.53157  1.0000
  C   C1653     1.0  0.37464  0.21744  0.87322  1.0000
  Fe  Fe104     1.0  0.20473  0.34671  0.70163  1.0000
  H   H1317     1.0  0.38067  0.02703  0.83466  1.0000
  C   C1654     1.0  0.21068  0.09358  0.82226  1.0000
  H   H1318     1.0  0.30329  0.33330  0.92217  1.0000
  H   H1319     1.0  0.21507  0.21347  0.50238  1.0000
  C   C1655     1.0  0.19524  0.26720  0.70386  1.0000
  C   C1656     1.0  0.31314  0.22257  0.97404  1.0000
  C   C1657     1.0  0.37980  0.09767  0.77416  1.0000
  C   C1658     1.0  0.37906  0.06386  0.85579  1.0000
  C   C1659     1.0  0.19791  0.26695  0.50464  1.0000
  C   C1660     1.0  0.36428  0.27258  0.91665  1.0000
  H   H1320     1.0  0.24994  0.14465  0.95066  1.0000
  H   H1321     1.0  0.19761  0.29259  0.71154  1.0000
  H   H1322     1.0  0.37150  0.02744  0.89484  1.0000
  C   C1661     1.0  0.20530  0.17400  0.53634  1.0000
  C   C1662     1.0  0.20503  0.32526  0.62931  1.0000
  H   H1323     1.0  0.29424  0.98537  0.78973  1.0000
  H   H1324     1.0  0.19109  0.38473  0.84582  1.0000
  H   H1325     1.0  0.38545  0.03218  0.74271  1.0000
  C   C1663     1.0  0.34820  0.28565  0.92434  1.0000
  H   H1326     1.0  0.38226  0.08100  0.69481  1.0000
  H   H1327     1.0  0.38661  0.00298  0.65741  1.0000
  H   H1328     1.0  0.36473  0.26722  0.90418  1.0000
  C   C1664     1.0  0.38133  0.05617  0.71860  1.0000
  S   S210      1.0  0.26891  0.98335  0.76709  1.0000
  C   C1665     1.0  0.37699  0.47070  0.81329  1.0000
  H   H1329     1.0  0.36535  0.29077  0.96141  1.0000
  H   H1330     1.0  0.19335  0.16714  0.54414  1.0000
  H   H1331     1.0  0.23204  0.03284  0.50366  1.0000
  H   H1332     1.0  0.19590  0.06905  0.63216  1.0000
  C   C1666     1.0  0.37441  0.03477  0.87986  1.0000
  C   C1667     1.0  0.20280  0.19506  0.93353  1.0000
  C   C1668     1.0  0.19853  0.30746  0.57391  1.0000
  C   C1669     1.0  0.19031  0.42080  0.71001  1.0000
  C   C1670     1.0  0.37569  0.05417  0.87517  1.0000
  H   H1333     1.0  0.26957  0.12263  0.97271  1.0000
  C   C1671     1.0  0.36499  0.28559  0.94898  1.0000
  C   C1672     1.0  0.37929  0.40923  0.80231  1.0000
  H   H1334     1.0  0.19949  0.13652  0.84377  1.0000
  S   S211      1.0  0.27790  0.08359  0.47941  1.0000
  H   H1335     1.0  0.37754  0.18045  0.97216  1.0000
  H   H1336     1.0  0.19674  0.24188  0.69341  1.0000
  C   C1673     1.0  0.18848  0.29960  0.80213  1.0000
  H   H1337     1.0  0.19522  0.40838  0.70336  1.0000
  H   H1338     1.0  0.19674  0.47721  0.84503  1.0000
  H   H1339     1.0  0.37748  0.15631  0.89699  1.0000
  C   C1674     1.0  0.38731  0.18774  0.96060  1.0000
  C   C1675     1.0  0.19313  0.06654  0.76899  1.0000
  C   C1676     1.0  0.34242  0.48077  0.81645  1.0000
  H   H1340     1.0  0.37368  0.40453  0.84430  1.0000
  H   H1341     1.0  0.27819  0.27929  0.96974  1.0000
  H   H1342     1.0  0.38097  0.22479  0.85916  1.0000
  C   C1677     1.0  0.37969  0.03448  0.84597  1.0000
  H   H1343     1.0  0.37205  0.10502  0.91268  1.0000
  C   C1678     1.0  0.20929  0.04759  0.48824  1.0000
  H   H1344     1.0  0.37774  0.20137  0.79073  1.0000
  C   C1679     1.0  0.38064  0.05394  0.84125  1.0000
  H   H1345     1.0  0.38314  0.11839  0.81325  1.0000
  H   H1346     1.0  0.38248  0.06123  0.82621  1.0000
  P   P53       1.0  0.38172  0.08865  0.84924  1.0000
  S   S212      1.0  0.38752  0.22897  0.80558  1.0000
  H   H1347     1.0  0.19546  0.03486  0.68673  1.0000
  C   C1680     1.0  0.19166  0.29067  0.57700  1.0000
  H   H1348     1.0  0.19930  0.11872  0.70754  1.0000
  H   H1349     1.0  0.24965  0.98460  0.90658  1.0000
  C   C1681     1.0  0.38223  0.38922  0.80955  1.0000
  C   C1682     1.0  0.19838  0.06547  0.48080  1.0000
  C   C1683     1.0  0.24187  0.98609  0.86225  1.0000
  C   C1684     1.0  0.22457  0.98413  0.81370  1.0000
  H   H1350     1.0  0.19055  0.31860  0.58191  1.0000
  C   C1685     1.0  0.19179  0.31358  0.63941  1.0000
  P   P54       1.0  0.18951  0.13030  0.80948  1.0000
  S   S213      1.0  0.33135  0.98203  0.86802  1.0000
  C   C1686     1.0  0.24729  0.99052  0.89202  1.0000
  H   H1351     1.0  0.38573  0.15203  0.80424  1.0000
  H   H1352     1.0  0.34454  0.12761  0.47703  1.0000
  S   S214      1.0  0.38565  0.26305  0.83706  1.0000
  H   H1353     1.0  0.18895  0.31989  0.68475  1.0000
  C   C1687     1.0  0.18964  0.18078  0.76946  1.0000
  H   H1354     1.0  0.19041  0.14692  0.68196  1.0000
  C   C1688     1.0  0.23152  0.15330  0.47666  1.0000
  C   C1689     1.0  0.38715  0.20703  0.95941  1.0000
  H   H1355     1.0  0.38659  0.19166  0.83784  1.0000
  C   C1690     1.0  0.38700  0.13548  0.67443  1.0000
  H   H1356     1.0  0.38786  0.06733  0.77410  1.0000
  C   C1691     1.0  0.38788  0.02340  0.69369  1.0000
  C   C1692     1.0  0.23107  0.52865  0.29384  1.0000
  C   C1693     1.0  0.23414  0.53254  0.41674  1.0000
  P   P55       1.0  0.24436  0.52265  0.38069  1.0000
  C   C1694     1.0  0.23956  0.57031  0.40232  1.0000
  S   S215      1.0  0.28553  0.74629  0.47466  1.0000
  C   C1695     1.0  0.26217  0.77905  0.20607  1.0000
  P   P56       1.0  0.27565  0.76522  0.22441  1.0000
  C   C1696     1.0  0.30297  0.48316  0.38889  1.0000
  C   C1697     1.0  0.33146  0.64891  0.99314  1.0000
  H   H1357     1.0  0.25659  0.93209  0.33251  1.0000
  S   S216      1.0  0.23479  0.81120  0.34381  1.0000
  C   C1698     1.0  0.20648  0.92638  0.37693  1.0000
  C   C1699     1.0  0.30667  0.50688  0.12323  1.0000
  C   C1700     1.0  0.26828  0.48775  0.39371  1.0000
  Fe  Fe105     1.0  0.32314  0.88659  0.22931  1.0000
  S   S217      1.0  0.33370  0.86976  0.25595  1.0000
  S   S218      1.0  0.32688  0.91754  0.21766  1.0000
  Fe  Fe106     1.0  0.30502  0.85386  0.22724  1.0000
  S   S219      1.0  0.31357  0.83523  0.25449  1.0000
  S   S220      1.0  0.28523  0.84468  0.21373  1.0000
  Fe  Fe107     1.0  0.30458  0.86247  0.26585  1.0000
  S   S221      1.0  0.28835  0.86858  0.29476  1.0000
  Fe  Fe108     1.0  0.34185  0.84443  0.24195  1.0000
  S   S222      1.0  0.36952  0.82229  0.24233  1.0000
  S   S223      1.0  0.29342  0.88040  0.23988  1.0000
  S   S224      1.0  0.33393  0.86169  0.21385  1.0000
  Fe  Fe109     1.0  0.29931  0.77221  0.09819  1.0000
  S   S225      1.0  0.27850  0.78761  0.12052  1.0000
  S   S226      1.0  0.29966  0.78330  0.06641  1.0000
  H   H1358     1.0  0.19883  0.67660  0.98348  1.0000
  S   S227      1.0  0.29436  0.75059  0.15315  1.0000
  Fe  Fe110     1.0  0.27220  0.75818  0.13481  1.0000
  S   S228      1.0  0.24305  0.75015  0.14443  1.0000
  Fe  Fe111     1.0  0.30284  0.77858  0.13670  1.0000
  S   S229      1.0  0.31786  0.79451  0.14907  1.0000
  S   S230      1.0  0.29143  0.74366  0.11143  1.0000
  Fe  Fe112     1.0  0.23385  0.65519  0.12475  1.0000
  S   S231      1.0  0.24144  0.62659  0.11634  1.0000
  S   S232      1.0  0.25765  0.66594  0.12988  1.0000
  C   C1701     1.0  0.29151  0.81814  0.00217  1.0000
  H   H1359     1.0  0.19164  0.58475  0.35619  1.0000
  Fe  Fe113     1.0  0.21819  0.61892  0.14166  1.0000
  S   S233      1.0  0.22329  0.59273  0.16544  1.0000
  Fe  Fe114     1.0  0.21790  0.63804  0.09944  1.0000
  S   S234      1.0  0.22569  0.63365  0.06860  1.0000
  S   S235      1.0  0.21186  0.64702  0.15083  1.0000
  S   S236      1.0  0.21272  0.66773  0.10534  1.0000
  Fe  Fe115     1.0  0.30158  0.51389  0.23599  1.0000
  H   H1360     1.0  0.22807  0.72357  0.24211  1.0000
  Fe  Fe116     1.0  0.31646  0.53715  0.19706  1.0000
  S   S237      1.0  0.34737  0.52236  0.19714  1.0000
  S   S238      1.0  0.31069  0.56076  0.17154  1.0000
  Fe  Fe117     1.0  0.33995  0.52633  0.22771  1.0000
  S   S239      1.0  0.30528  0.50975  0.20593  1.0000
  S   S240      1.0  0.30975  0.54275  0.22694  1.0000
  S   S241      1.0  0.27809  0.74035  0.99387  1.0000
  C   C1702     1.0  0.22429  0.77739  0.02481  1.0000
  C   C1703     1.0  0.24885  0.74161  0.23530  1.0000
  C   C1704     1.0  0.22778  0.96533  0.32696  1.0000
  C   C1705     1.0  0.37845  0.65676  0.35724  1.0000
  S   S242      1.0  0.20680  0.56388  0.29256  1.0000
  H   H1361     1.0  0.24671  0.75598  0.41947  1.0000
  H   H1362     1.0  0.19405  0.63326  0.19173  1.0000
  H   H1363     1.0  0.20318  0.50127  0.31551  1.0000
  H   H1364     1.0  0.24752  0.80759  0.00938  1.0000
  Fe  Fe118     1.0  0.34070  0.73442  0.45662  1.0000
  C   C1706     1.0  0.30197  0.50238  0.37927  1.0000
  S   S243      1.0  0.37276  0.72924  0.44439  1.0000
  H   H1365     1.0  0.33823  0.67393  0.02303  1.0000
  Fe  Fe119     1.0  0.30364  0.76054  0.44808  1.0000
  S   S244      1.0  0.29349  0.78315  0.42376  1.0000
  H   H1366     1.0  0.23210  0.51791  0.42255  1.0000
  S   S245      1.0  0.32013  0.73281  0.43963  1.0000
  C   C1707     1.0  0.24843  0.74699  0.44944  1.0000
  C   C1708     1.0  0.27895  0.70546  0.43843  1.0000
  H   H1367     1.0  0.24753  0.56329  0.37443  1.0000
  C   C1709     1.0  0.31506  0.64229  0.00450  1.0000
  H   H1368     1.0  0.24136  0.58507  0.39676  1.0000
  C   C1710     1.0  0.23333  0.56394  0.42211  1.0000
  H   H1369     1.0  0.28786  0.71596  0.43497  1.0000
  C   C1711     1.0  0.35510  0.88144  0.28782  1.0000
  C   C1712     1.0  0.26838  0.79084  0.42812  1.0000
  C   C1713     1.0  0.25896  0.79507  0.41279  1.0000
  C   C1714     1.0  0.23897  0.80174  0.41572  1.0000
  C   C1715     1.0  0.22834  0.80476  0.43386  1.0000
  C   C1716     1.0  0.23772  0.80024  0.44935  1.0000
  C   C1717     1.0  0.25775  0.79312  0.44651  1.0000
  H   H1370     1.0  0.26708  0.79291  0.39867  1.0000
  H   H1371     1.0  0.23177  0.80421  0.40394  1.0000
  H   H1372     1.0  0.26503  0.78983  0.45840  1.0000
  C   C1718     1.0  0.22236  0.78436  0.00558  1.0000
  S   S246      1.0  0.19229  0.80989  0.38868  1.0000
  H   H1373     1.0  0.36250  0.77408  0.06296  1.0000
  H   H1374     1.0  0.29817  0.82774  0.00605  1.0000
  C   C1719     1.0  0.25887  0.52096  0.26870  1.0000
  C   C1720     1.0  0.22686  0.54743  0.28334  1.0000
  C   C1721     1.0  0.23889  0.55314  0.26558  1.0000
  C   C1722     1.0  0.25503  0.53991  0.25829  1.0000
  H   H1375     1.0  0.23560  0.56771  0.25743  1.0000
  H   H1376     1.0  0.26421  0.54417  0.24449  1.0000
  S   S247      1.0  0.32411  0.76545  0.11300  1.0000
  C   C1723     1.0  0.24763  0.58463  0.16749  1.0000
  C   C1724     1.0  0.25235  0.57461  0.18527  1.0000
  C   C1725     1.0  0.27168  0.56685  0.18668  1.0000
  C   C1726     1.0  0.28638  0.56983  0.17041  1.0000
  C   C1727     1.0  0.28172  0.58031  0.15282  1.0000
  C   C1728     1.0  0.26243  0.58747  0.15132  1.0000
  H   H1377     1.0  0.24109  0.57299  0.19799  1.0000
  H   H1378     1.0  0.27523  0.55881  0.20035  1.0000
  H   H1379     1.0  0.29306  0.58254  0.14019  1.0000
  H   H1380     1.0  0.25912  0.59451  0.13746  1.0000
  C   C1729     1.0  0.25261  0.68915  0.13455  1.0000
  C   C1730     1.0  0.26722  0.69530  0.13877  1.0000
  C   C1731     1.0  0.26418  0.71396  0.14185  1.0000
  C   C1732     1.0  0.24636  0.72657  0.14101  1.0000
  C   C1733     1.0  0.23141  0.72023  0.13742  1.0000
  C   C1734     1.0  0.23458  0.70151  0.13405  1.0000
  H   H1381     1.0  0.28095  0.68557  0.13976  1.0000
  H   H1382     1.0  0.27556  0.71839  0.14538  1.0000
  H   H1383     1.0  0.21756  0.72989  0.13686  1.0000
  H   H1384     1.0  0.22321  0.69665  0.13101  1.0000
  C   C1735     1.0  0.27242  0.85322  0.30693  1.0000
  C   C1736     1.0  0.25829  0.85822  0.32268  1.0000
  C   C1737     1.0  0.24614  0.84568  0.33345  1.0000
  C   C1738     1.0  0.24880  0.82760  0.32918  1.0000
  C   C1739     1.0  0.26297  0.82253  0.31341  1.0000
  C   C1740     1.0  0.27446  0.83555  0.30198  1.0000
  H   H1385     1.0  0.25713  0.87156  0.32691  1.0000
  H   H1386     1.0  0.23512  0.84988  0.34540  1.0000
  H   H1387     1.0  0.26515  0.80852  0.31016  1.0000
  H   H1388     1.0  0.28524  0.83171  0.28974  1.0000
  C   C1741     1.0  0.29457  0.83061  0.19588  1.0000
  C   C1742     1.0  0.31426  0.82286  0.19097  1.0000
  C   C1743     1.0  0.32111  0.81163  0.17676  1.0000
  C   C1744     1.0  0.30834  0.80784  0.16753  1.0000
  C   C1745     1.0  0.28862  0.81529  0.17270  1.0000
  C   C1746     1.0  0.28181  0.82678  0.18671  1.0000
  H   H1389     1.0  0.32424  0.82572  0.19794  1.0000
  H   H1390     1.0  0.33641  0.80593  0.17278  1.0000
  H   H1391     1.0  0.27873  0.81265  0.16550  1.0000
  H   H1392     1.0  0.26662  0.83301  0.19027  1.0000
  P   P57       1.0  0.25887  0.96065  0.29587  1.0000
  S   S248      1.0  0.23706  0.63736  0.42355  1.0000
  H   H1393     1.0  0.19026  0.59957  0.20022  1.0000
  C   C1747     1.0  0.19457  0.71591  0.10157  1.0000
  C   C1748     1.0  0.36856  0.71739  0.41327  1.0000
  C   C1749     1.0  0.37516  0.71255  0.39507  1.0000
  C   C1750     1.0  0.26643  0.67871  0.46049  1.0000
  C   C1751     1.0  0.34546  0.83092  0.38259  1.0000
  H   H1394     1.0  0.35495  0.71448  0.42180  1.0000
  H   H1395     1.0  0.36627  0.70645  0.38961  1.0000
  H   H1396     1.0  0.20812  0.70937  0.40501  1.0000
  C   C1752     1.0  0.20900  0.89322  0.31745  1.0000
  C   C1753     1.0  0.33760  0.81125  0.99820  1.0000
  H   H1397     1.0  0.21156  0.95190  0.38263  1.0000
  C   C1754     1.0  0.22789  0.49138  0.16708  1.0000
  H   H1398     1.0  0.21119  0.76738  0.42629  1.0000
  C   C1755     1.0  0.26123  0.72295  0.04473  1.0000
  C   C1756     1.0  0.20261  0.63816  0.02254  1.0000
  H   H1399     1.0  0.25622  0.77102  0.05483  1.0000
  H   H1400     1.0  0.32118  0.79542  0.02348  1.0000
  H   H1401     1.0  0.33649  0.68419  0.46512  1.0000
  H   H1402     1.0  0.21887  0.55573  0.36298  1.0000
  H   H1403     1.0  0.21894  0.57291  0.32913  1.0000
  C   C1757     1.0  0.26822  0.65189  0.00457  1.0000
  H   H1404     1.0  0.28217  0.71595  0.08999  1.0000
  C   C1758     1.0  0.33735  0.95146  0.25740  1.0000
  C   C1759     1.0  0.33686  0.95993  0.23806  1.0000
  C   C1760     1.0  0.33341  0.94951  0.22606  1.0000
  C   C1761     1.0  0.33047  0.93057  0.23328  1.0000
  C   C1762     1.0  0.33081  0.92229  0.25268  1.0000
  C   C1763     1.0  0.33412  0.93271  0.26465  1.0000
  H   H1405     1.0  0.33723  0.64584  0.97881  1.0000
  H   H1406     1.0  0.33320  0.95607  0.21108  1.0000
  H   H1407     1.0  0.32852  0.90786  0.25853  1.0000
  H   H1408     1.0  0.33426  0.92617  0.27960  1.0000
  C   C1764     1.0  0.28215  0.72485  0.23400  1.0000
  C   C1765     1.0  0.25831  0.72953  0.07617  1.0000
  H   H1409     1.0  0.26915  0.75591  0.19068  1.0000
  C   C1766     1.0  0.21001  0.63218  0.05452  1.0000
  C   C1767     1.0  0.22825  0.49428  0.37598  1.0000
  H   H1410     1.0  0.22060  0.72580  0.09762  1.0000
  C   C1768     1.0  0.30157  0.93239  0.33636  1.0000
  C   C1769     1.0  0.25717  0.95643  0.25972  1.0000
  C   C1770     1.0  0.34528  0.67986  0.45200  1.0000
  H   H1411     1.0  0.19670  0.52437  0.24232  1.0000
  H   H1412     1.0  0.22221  0.52443  0.30778  1.0000
  P   P58       1.0  0.32787  0.80438  0.98125  1.0000
  H   H1413     1.0  0.30274  0.62524  0.45477  1.0000
  C   C1771     1.0  0.27346  0.79424  0.99194  1.0000
  H   H1414     1.0  0.21784  0.67883  0.00590  1.0000
  C   C1772     1.0  0.24040  0.80783  0.19304  1.0000
  H   H1415     1.0  0.34008  0.78539  0.40289  1.0000
  C   C1773     1.0  0.26127  0.77043  0.19143  1.0000
  C   C1774     1.0  0.30544  0.76453  0.05377  1.0000
  C   C1775     1.0  0.29934  0.76763  0.03642  1.0000
  Fe  Fe120     1.0  0.21201  0.82611  0.36528  1.0000
  H   H1416     1.0  0.25183  0.59003  0.33953  1.0000
  H   H1417     1.0  0.29047  0.78131  0.03127  1.0000
  C   C1776     1.0  0.23072  0.54503  0.42933  1.0000
  C   C1777     1.0  0.25801  0.65015  0.99168  1.0000
  H   H1418     1.0  0.19006  0.66140  0.22946  1.0000
  C   C1778     1.0  0.31513  0.51628  0.30170  1.0000
  C   C1779     1.0  0.26993  0.77805  0.24377  1.0000
  C   C1780     1.0  0.25710  0.77264  0.26108  1.0000
  H   H1419     1.0  0.19348  0.80618  0.30491  1.0000
  C   C1781     1.0  0.25895  0.80035  0.27213  1.0000
  C   C1782     1.0  0.27209  0.80553  0.25514  1.0000
  C   C1783     1.0  0.27760  0.79440  0.24103  1.0000
  H   H1420     1.0  0.25163  0.80496  0.21796  1.0000
  H   H1421     1.0  0.23255  0.82246  0.19349  1.0000
  C   C1784     1.0  0.28414  0.51429  0.37679  1.0000
  C   C1785     1.0  0.29324  0.79335  0.98511  1.0000
  H   H1422     1.0  0.25425  0.80937  0.28273  1.0000
  H   H1423     1.0  0.27761  0.81851  0.25260  1.0000
  H   H1424     1.0  0.34318  0.74162  0.37272  1.0000
  H   H1425     1.0  0.32604  0.76057  0.39802  1.0000
  H   H1426     1.0  0.30948  0.66256  0.04304  1.0000
  C   C1786     1.0  0.19141  0.76130  0.29413  1.0000
  C   C1787     1.0  0.36485  0.75020  0.04993  1.0000
  S   S249      1.0  0.24336  0.70361  0.00293  1.0000
  H   H1427     1.0  0.19516  0.57966  0.14155  1.0000
  H   H1428     1.0  0.26574  0.66843  0.47409  1.0000
  P   P59       1.0  0.25362  0.51568  0.15878  1.0000
  C   C1788     1.0  0.24725  0.52172  0.18224  1.0000
  C   C1789     1.0  0.27893  0.51458  0.14858  1.0000
  C   C1790     1.0  0.29000  0.52278  0.15600  1.0000
  C   C1791     1.0  0.30937  0.52260  0.14731  1.0000
  H   H1429     1.0  0.23175  0.80715  0.16732  1.0000
  H   H1430     1.0  0.26352  0.82868  0.01847  1.0000
  C   C1792     1.0  0.30703  0.94500  0.31902  1.0000
  C   C1793     1.0  0.23192  0.53697  0.18664  1.0000
  C   C1794     1.0  0.22712  0.54122  0.20500  1.0000
  C   C1795     1.0  0.23735  0.53018  0.21918  1.0000
  C   C1796     1.0  0.25227  0.51466  0.21507  1.0000
  C   C1797     1.0  0.25717  0.51036  0.19670  1.0000
  C   C1798     1.0  0.24191  0.53352  0.14102  1.0000
  C   C1799     1.0  0.23366  0.52820  0.12841  1.0000
  C   C1800     1.0  0.22598  0.54222  0.11380  1.0000
  C   C1801     1.0  0.22670  0.56154  0.11156  1.0000
  C   C1802     1.0  0.23520  0.56683  0.12383  1.0000
  C   C1803     1.0  0.24294  0.55284  0.13834  1.0000
  H   H1431     1.0  0.28731  0.70361  0.03457  1.0000
  H   H1432     1.0  0.34245  0.76944  0.00835  1.0000
  H   H1433     1.0  0.21671  0.50435  0.16666  1.0000
  H   H1434     1.0  0.28378  0.52954  0.16832  1.0000
  H   H1435     1.0  0.31791  0.52873  0.15325  1.0000
  H   H1436     1.0  0.36291  0.85228  0.32847  1.0000
  C   C1804     1.0  0.19420  0.69058  0.04197  1.0000
  H   H1437     1.0  0.22380  0.54586  0.17594  1.0000
  H   H1438     1.0  0.21597  0.55365  0.20791  1.0000
  H   H1439     1.0  0.23388  0.53376  0.23329  1.0000
  H   H1440     1.0  0.26026  0.50617  0.22607  1.0000
  H   H1441     1.0  0.35456  0.97503  0.33515  1.0000
  H   H1442     1.0  0.23360  0.51326  0.12946  1.0000
  H   H1443     1.0  0.21979  0.53807  0.10398  1.0000
  H   H1444     1.0  0.22092  0.57240  0.10015  1.0000
  H   H1445     1.0  0.23591  0.58176  0.12209  1.0000
  H   H1446     1.0  0.24996  0.55699  0.14741  1.0000
  C   C1805     1.0  0.36503  0.62848  0.37292  1.0000
  S   S250      1.0  0.32514  0.76339  0.46342  1.0000
  C   C1806     1.0  0.36576  0.66686  0.37083  1.0000
  C   C1807     1.0  0.35235  0.65789  0.38542  1.0000
  C   C1808     1.0  0.35224  0.63854  0.38650  1.0000
  P   P60       1.0  0.33565  0.67111  0.40269  1.0000
  C   C1809     1.0  0.34751  0.67293  0.42073  1.0000
  C   C1810     1.0  0.32536  0.69476  0.39012  1.0000
  C   C1811     1.0  0.31435  0.71570  0.36168  1.0000
  C   C1812     1.0  0.32332  0.69768  0.37097  1.0000
  C   C1813     1.0  0.36771  0.66931  0.41777  1.0000
  H   H1447     1.0  0.32083  0.68063  0.44078  1.0000
  C   C1814     1.0  0.31618  0.65856  0.41456  1.0000
  C   C1815     1.0  0.30009  0.66186  0.40627  1.0000
  C   C1816     1.0  0.28529  0.65183  0.41527  1.0000
  C   C1817     1.0  0.28619  0.63872  0.43278  1.0000
  C   C1818     1.0  0.30219  0.63525  0.44108  1.0000
  C   C1819     1.0  0.31725  0.64493  0.43191  1.0000
  H   H1448     1.0  0.36479  0.61361  0.37374  1.0000
  H   H1449     1.0  0.24140  0.77989  0.28841  1.0000
  H   H1450     1.0  0.34225  0.63118  0.39773  1.0000
  H   H1451     1.0  0.31281  0.71785  0.34692  1.0000
  H   H1452     1.0  0.32832  0.68598  0.36328  1.0000
  H   H1453     1.0  0.37672  0.66559  0.40452  1.0000
  H   H1454     1.0  0.28716  0.69391  0.23965  1.0000
  H   H1455     1.0  0.29872  0.67232  0.39302  1.0000
  H   H1456     1.0  0.27272  0.65474  0.40902  1.0000
  H   H1457     1.0  0.27431  0.63153  0.44010  1.0000
  C   C1820     1.0  0.19619  0.91147  0.38346  1.0000
  H   H1458     1.0  0.32959  0.64187  0.43851  1.0000
  C   C1821     1.0  0.27549  0.94960  0.31181  1.0000
  H   H1459     1.0  0.37289  0.76779  0.41823  1.0000
  H   H1460     1.0  0.26647  0.78513  0.98772  1.0000
  C   C1822     1.0  0.34771  0.77741  0.39168  1.0000
  H   H1461     1.0  0.32116  0.94859  0.31510  1.0000
  C   C1823     1.0  0.20328  0.60684  0.38609  1.0000
  C   C1824     1.0  0.38680  0.88911  0.24868  1.0000
  H   H1462     1.0  0.29430  0.90796  0.26172  1.0000
  C   C1825     1.0  0.20514  0.66818  0.20015  1.0000
  C   C1826     1.0  0.19382  0.67797  0.05988  1.0000
  H   H1463     1.0  0.20817  0.61065  0.35524  1.0000
  C   C1827     1.0  0.22801  0.79595  0.08867  1.0000
  C   C1828     1.0  0.25953  0.52860  0.34094  1.0000
  C   C1829     1.0  0.35480  0.72407  0.14953  1.0000
  S   S251      1.0  0.29187  0.69218  0.47248  1.0000
  Fe  Fe121     1.0  0.30723  0.72131  0.99565  1.0000
  C   C1830     1.0  0.20807  0.49234  0.30484  1.0000
  Fe  Fe122     1.0  0.19681  0.82739  0.40742  1.0000
  C   C1831     1.0  0.19315  0.73582  0.06378  1.0000
  Fe  Fe123     1.0  0.21659  0.63383  0.45233  1.0000
  C   C1832     1.0  0.36995  0.81442  0.43530  1.0000
  H   H1464     1.0  0.21880  0.81996  0.30997  1.0000
  C   C1833     1.0  0.37472  0.77068  0.36548  1.0000
  C   C1834     1.0  0.28734  0.50685  0.13199  1.0000
  H   H1465     1.0  0.27346  0.66498  0.00215  1.0000
  H   H1466     1.0  0.35866  0.73662  0.00428  1.0000
  H   H1467     1.0  0.25111  0.76006  0.26360  1.0000
  C   C1835     1.0  0.25389  0.61864  0.01055  1.0000
  C   C1836     1.0  0.22701  0.76807  0.06926  1.0000
  C   C1837     1.0  0.38302  0.68190  0.09447  1.0000
  C   C1838     1.0  0.20365  0.94041  0.38788  1.0000
  H   H1468     1.0  0.27895  0.50075  0.12586  1.0000
  H   H1469     1.0  0.32885  0.48610  0.17139  1.0000
  C   C1839     1.0  0.38095  0.68453  0.05355  1.0000
  H   H1470     1.0  0.25004  0.50080  0.29462  1.0000
  H   H1471     1.0  0.22343  0.71257  0.31345  1.0000
  H   H1472     1.0  0.25585  0.72456  0.03195  1.0000
  H   H1473     1.0  0.30092  0.69926  0.06333  1.0000
  C   C1840     1.0  0.25102  0.63346  0.99456  1.0000
  H   H1474     1.0  0.24685  0.66767  0.45083  1.0000
  H   H1475     1.0  0.18944  0.51057  0.28613  1.0000
  H   H1476     1.0  0.25005  0.77393  0.16605  1.0000
  H   H1477     1.0  0.21701  0.67817  0.17012  1.0000
  C   C1841     1.0  0.20747  0.51524  0.39700  1.0000
  C   C1842     1.0  0.20913  0.72580  0.09088  1.0000
  C   C1843     1.0  0.35229  0.80055  0.32364  1.0000
  C   C1844     1.0  0.33908  0.81806  0.32090  1.0000
  C   C1845     1.0  0.32491  0.82041  0.31049  1.0000
  C   C1846     1.0  0.32344  0.80503  0.30346  1.0000
  C   C1847     1.0  0.33619  0.78719  0.30674  1.0000
  C   C1848     1.0  0.35122  0.78531  0.31610  1.0000
  P   P61       1.0  0.33325  0.76752  0.29805  1.0000
  C   C1849     1.0  0.30857  0.76459  0.30624  1.0000
  C   C1850     1.0  0.33966  0.77410  0.27208  1.0000
  C   C1851     1.0  0.32545  0.78373  0.26122  1.0000
  C   C1852     1.0  0.33066  0.78981  0.24121  1.0000
  C   C1853     1.0  0.35003  0.78635  0.23192  1.0000
  C   C1854     1.0  0.36423  0.77691  0.24264  1.0000
  C   C1855     1.0  0.35913  0.77109  0.26267  1.0000
  C   C1856     1.0  0.30133  0.75427  0.29708  1.0000
  C   C1857     1.0  0.28228  0.75176  0.30346  1.0000
  C   C1858     1.0  0.27040  0.75944  0.31910  1.0000
  C   C1859     1.0  0.27762  0.76941  0.32852  1.0000
  C   C1860     1.0  0.29668  0.77187  0.32224  1.0000
  C   C1861     1.0  0.34751  0.74460  0.30747  1.0000
  C   C1862     1.0  0.34881  0.73962  0.32699  1.0000
  C   C1863     1.0  0.36033  0.72213  0.33417  1.0000
  C   C1864     1.0  0.37003  0.70922  0.32208  1.0000
  C   C1865     1.0  0.36779  0.71354  0.30299  1.0000
  C   C1866     1.0  0.35659  0.73114  0.29569  1.0000
  H   H1478     1.0  0.36386  0.79900  0.33093  1.0000
  H   H1479     1.0  0.34012  0.82999  0.32631  1.0000
  H   H1480     1.0  0.31513  0.83419  0.30771  1.0000
  H   H1481     1.0  0.31237  0.80701  0.29545  1.0000
  H   H1482     1.0  0.36228  0.77232  0.31741  1.0000
  H   H1483     1.0  0.31044  0.78717  0.26820  1.0000
  H   H1484     1.0  0.31981  0.79776  0.23288  1.0000
  H   H1485     1.0  0.35407  0.79151  0.21649  1.0000
  C   C1867     1.0  0.37606  0.56690  0.23612  1.0000
  H   H1486     1.0  0.37046  0.76464  0.27080  1.0000
  H   H1487     1.0  0.31041  0.74824  0.28497  1.0000
  H   H1488     1.0  0.27670  0.74396  0.29621  1.0000
  H   H1489     1.0  0.25557  0.75773  0.32396  1.0000
  H   H1490     1.0  0.26833  0.77554  0.34054  1.0000
  H   H1491     1.0  0.30196  0.77954  0.32988  1.0000
  H   H1492     1.0  0.34125  0.74944  0.33655  1.0000
  H   H1493     1.0  0.36207  0.71868  0.34900  1.0000
  C   C1868     1.0  0.35489  0.74747  0.99193  1.0000
  C   C1869     1.0  0.37136  0.59611  0.21161  1.0000
  H   H1494     1.0  0.35526  0.73418  0.28079  1.0000
  C   C1870     1.0  0.25672  0.69136  0.42960  1.0000
  C   C1871     1.0  0.22630  0.89885  0.31529  1.0000
  C   C1872     1.0  0.23765  0.90340  0.29694  1.0000
  H   H1495     1.0  0.25701  0.79532  0.07209  1.0000
  C   C1873     1.0  0.33992  0.78016  0.97844  1.0000
  C   C1874     1.0  0.26841  0.74222  0.23224  1.0000
  Fe  Fe124     1.0  0.27040  0.71489  0.98845  1.0000
  H   H1496     1.0  0.23115  0.89901  0.32800  1.0000
  H   H1497     1.0  0.25159  0.90668  0.29539  1.0000
  H   H1498     1.0  0.36464  0.66179  0.11047  1.0000
  H   H1499     1.0  0.28349  0.52924  0.36952  1.0000
  C   C1875     1.0  0.19743  0.95610  0.33083  1.0000
  C   C1876     1.0  0.24303  0.62116  0.21594  1.0000
  C   C1877     1.0  0.23871  0.61836  0.19951  1.0000
  C   C1878     1.0  0.24823  0.62629  0.18123  1.0000
  C   C1879     1.0  0.26215  0.63685  0.17931  1.0000
  C   C1880     1.0  0.26711  0.63918  0.19569  1.0000
  C   C1881     1.0  0.25723  0.63148  0.21406  1.0000
  P   P62       1.0  0.28515  0.65308  0.19259  1.0000
  C   C1882     1.0  0.29626  0.64703  0.21328  1.0000
  C   C1883     1.0  0.30361  0.64815  0.17168  1.0000
  C   C1884     1.0  0.31277  0.66261  0.15916  1.0000
  C   C1885     1.0  0.32751  0.65824  0.14355  1.0000
  C   C1886     1.0  0.33315  0.63951  0.14021  1.0000
  C   C1887     1.0  0.32410  0.62504  0.15257  1.0000
  C   C1888     1.0  0.30945  0.62931  0.16827  1.0000
  C   C1889     1.0  0.28565  0.65284  0.23047  1.0000
  C   C1890     1.0  0.29450  0.64994  0.24603  1.0000
  C   C1891     1.0  0.31409  0.64157  0.24439  1.0000
  C   C1892     1.0  0.32472  0.63567  0.22744  1.0000
  C   C1893     1.0  0.31592  0.63839  0.21190  1.0000
  C   C1894     1.0  0.27400  0.67835  0.19022  1.0000
  C   C1895     1.0  0.25478  0.68501  0.18807  1.0000
  C   C1896     1.0  0.24600  0.70444  0.18735  1.0000
  C   C1897     1.0  0.25643  0.71741  0.18845  1.0000
  C   C1898     1.0  0.27557  0.71090  0.19057  1.0000
  C   C1899     1.0  0.28429  0.69144  0.19161  1.0000
  H   H1500     1.0  0.23561  0.61500  0.23012  1.0000
  H   H1501     1.0  0.22799  0.61008  0.20086  1.0000
  H   H1502     1.0  0.24495  0.62418  0.16844  1.0000
  H   H1503     1.0  0.26918  0.64304  0.16495  1.0000
  H   H1504     1.0  0.26067  0.63299  0.22696  1.0000
  H   H1505     1.0  0.30872  0.67728  0.16126  1.0000
  C   C1900     1.0  0.25140  0.79779  0.20692  1.0000
  C   C1901     1.0  0.24281  0.55793  0.38967  1.0000
  H   H1506     1.0  0.32844  0.61045  0.15008  1.0000
  H   H1507     1.0  0.30271  0.61786  0.17771  1.0000
  H   H1508     1.0  0.27066  0.66008  0.23161  1.0000
  H   H1509     1.0  0.28632  0.65458  0.25918  1.0000
  H   H1510     1.0  0.32124  0.63998  0.25604  1.0000
  H   H1511     1.0  0.30311  0.73972  0.39833  1.0000
  H   H1512     1.0  0.32476  0.63413  0.19878  1.0000
  H   H1513     1.0  0.24664  0.67538  0.18651  1.0000
  H   H1514     1.0  0.23140  0.70966  0.18497  1.0000
  H   H1515     1.0  0.24986  0.73261  0.18694  1.0000
  H   H1516     1.0  0.28385  0.72097  0.19101  1.0000
  H   H1517     1.0  0.29918  0.68666  0.19318  1.0000
  H   H1518     1.0  0.28179  0.97930  0.26006  1.0000
  C   C1902     1.0  0.37032  0.68704  0.03933  1.0000
  H   H1519     1.0  0.20097  0.87087  0.41204  1.0000
  H   H1520     1.0  0.20711  0.69602  0.03442  1.0000
  C   C1903     1.0  0.27179  0.81885  0.00911  1.0000
  C   C1904     1.0  0.36567  0.72738  0.08683  1.0000
  H   H1521     1.0  0.38104  0.65018  0.13788  1.0000
  H   H1522     1.0  0.24504  0.56202  0.30287  1.0000
  C   C1905     1.0  0.20929  0.70472  0.35304  1.0000
  C   C1906     1.0  0.21455  0.68488  0.35297  1.0000
  C   C1907     1.0  0.23053  0.67338  0.36033  1.0000
  C   C1908     1.0  0.24170  0.68162  0.36738  1.0000
  C   C1909     1.0  0.23706  0.70139  0.36683  1.0000
  C   C1910     1.0  0.22090  0.71287  0.35985  1.0000
  C   C1911     1.0  0.23452  0.95951  0.30917  1.0000
  C   C1912     1.0  0.30897  0.72806  0.39055  1.0000
  C   C1913     1.0  0.37807  0.63762  0.35824  1.0000
  C   C1914     1.0  0.23000  0.70227  0.98674  1.0000
  C   C1915     1.0  0.29408  0.95350  0.30672  1.0000
  C   C1916     1.0  0.36397  0.75864  0.06523  1.0000
  C   C1917     1.0  0.36978  0.78042  0.44241  1.0000
  C   C1918     1.0  0.24541  0.53543  0.35602  1.0000
  C   C1919     1.0  0.19101  0.82148  0.30436  1.0000
  C   C1920     1.0  0.19119  0.69777  0.18044  1.0000
  C   C1921     1.0  0.21142  0.78847  0.09256  1.0000
  C   C1922     1.0  0.24738  0.49257  0.16302  1.0000
  H   H1523     1.0  0.38127  0.82144  0.34397  1.0000
  C   C1923     1.0  0.30245  0.80511  0.99040  1.0000
  H   H1524     1.0  0.19924  0.54140  0.26637  1.0000
  C   C1924     1.0  0.37266  0.79838  0.40930  1.0000
  H   H1525     1.0  0.20631  0.67803  0.34751  1.0000
  H   H1526     1.0  0.23391  0.65796  0.36106  1.0000
  H   H1527     1.0  0.25371  0.67265  0.37367  1.0000
  H   H1528     1.0  0.24568  0.70774  0.37243  1.0000
  H   H1529     1.0  0.21764  0.72797  0.36000  1.0000
  C   C1925     1.0  0.22127  0.77184  0.99465  1.0000
  H   H1530     1.0  0.32367  0.64968  0.08822  1.0000
  H   H1531     1.0  0.19908  0.48928  0.26281  1.0000
  C   C1926     1.0  0.30917  0.76239  0.19546  1.0000
  P   P63       1.0  0.37576  0.79909  0.38392  1.0000
  C   C1927     1.0  0.31773  0.51464  0.13098  1.0000
  C   C1928     1.0  0.30476  0.75310  0.02566  1.0000
  H   H1532     1.0  0.35482  0.65976  0.07371  1.0000
  C   C1929     1.0  0.20213  0.89338  0.30125  1.0000
  Fe  Fe125     1.0  0.19348  0.86480  0.37746  1.0000
  C   C1930     1.0  0.29207  0.85722  0.35039  1.0000
  C   C1931     1.0  0.28625  0.84017  0.35177  1.0000
  C   C1932     1.0  0.27445  0.83243  0.36867  1.0000
  C   C1933     1.0  0.26903  0.84130  0.38450  1.0000
  C   C1934     1.0  0.27531  0.85809  0.38353  1.0000
  C   C1935     1.0  0.28670  0.86615  0.36624  1.0000
  P   P64       1.0  0.27037  0.86776  0.40500  1.0000
  C   C1936     1.0  0.24672  0.86434  0.41851  1.0000
  C   C1937     1.0  0.28809  0.85428  0.41936  1.0000
  C   C1938     1.0  0.29318  0.86296  0.43176  1.0000
  C   C1939     1.0  0.30631  0.85235  0.44344  1.0000
  C   C1940     1.0  0.31419  0.83292  0.44308  1.0000
  C   C1941     1.0  0.30893  0.82409  0.43108  1.0000
  C   C1942     1.0  0.29593  0.83467  0.41929  1.0000
  C   C1943     1.0  0.23110  0.86982  0.40916  1.0000
  C   C1944     1.0  0.21288  0.86680  0.41940  1.0000
  H   H1533     1.0  0.36914  0.76690  0.45273  1.0000
  C   C1945     1.0  0.22564  0.85227  0.44829  1.0000
  C   C1946     1.0  0.24387  0.85545  0.43817  1.0000
  C   C1947     1.0  0.27120  0.89317  0.39865  1.0000
  C   C1948     1.0  0.25423  0.90752  0.39867  1.0000
  C   C1949     1.0  0.25516  0.92702  0.39397  1.0000
  C   C1950     1.0  0.27294  0.93244  0.38923  1.0000
  C   C1951     1.0  0.28989  0.91831  0.38924  1.0000
  C   C1952     1.0  0.28906  0.89877  0.39380  1.0000
  H   H1534     1.0  0.30050  0.86356  0.33689  1.0000
  H   H1535     1.0  0.29029  0.83328  0.33952  1.0000
  H   H1536     1.0  0.26932  0.81963  0.36943  1.0000
  H   H1537     1.0  0.26013  0.83487  0.39760  1.0000
  H   H1538     1.0  0.29147  0.87923  0.36494  1.0000
  H   H1539     1.0  0.28671  0.87781  0.43274  1.0000
  C   C1953     1.0  0.38012  0.72473  0.42081  1.0000
  H   H1540     1.0  0.32406  0.82455  0.45239  1.0000
  H   H1541     1.0  0.31459  0.80887  0.43120  1.0000
  H   H1542     1.0  0.29177  0.82725  0.41056  1.0000
  H   H1543     1.0  0.23296  0.87631  0.39390  1.0000
  H   H1544     1.0  0.22359  0.84500  0.46330  1.0000
  C   C1954     1.0  0.26511  0.94813  0.27622  1.0000
  H   H1545     1.0  0.22007  0.77714  0.97970  1.0000
  H   H1546     1.0  0.25566  0.85064  0.44572  1.0000
  H   H1547     1.0  0.24016  0.90395  0.40238  1.0000
  H   H1548     1.0  0.24202  0.93801  0.39408  1.0000
  H   H1549     1.0  0.27349  0.94763  0.38543  1.0000
  H   H1550     1.0  0.30365  0.92260  0.38564  1.0000
  H   H1551     1.0  0.30234  0.88804  0.39363  1.0000
  H   H1552     1.0  0.28114  0.57406  0.31965  1.0000
  P   P65       1.0  0.28502  0.63925  0.03682  1.0000
  C   C1955     1.0  0.27106  0.65655  0.05137  1.0000
  C   C1956     1.0  0.27125  0.63703  0.02065  1.0000
  C   C1957     1.0  0.26384  0.62045  0.02367  1.0000
  S   S252      1.0  0.19926  0.89521  0.36829  1.0000
  C   C1958     1.0  0.27639  0.70720  0.23875  1.0000
  C   C1959     1.0  0.36428  0.90223  0.30304  1.0000
  H   H1553     1.0  0.22075  0.74271  0.99461  1.0000
  C   C1960     1.0  0.27690  0.65698  0.06799  1.0000
  C   C1961     1.0  0.26661  0.67045  0.07921  1.0000
  C   C1962     1.0  0.25015  0.68335  0.07429  1.0000
  C   C1963     1.0  0.24412  0.68301  0.05785  1.0000
  C   C1964     1.0  0.25445  0.66959  0.04646  1.0000
  C   C1965     1.0  0.29139  0.61642  0.05281  1.0000
  C   C1966     1.0  0.30922  0.60397  0.04830  1.0000
  C   C1967     1.0  0.31412  0.58648  0.06101  1.0000
  C   C1968     1.0  0.30124  0.58132  0.07826  1.0000
  C   C1969     1.0  0.28338  0.59355  0.08273  1.0000
  C   C1970     1.0  0.27843  0.61098  0.07003  1.0000
  Fe  Fe126     1.0  0.19107  0.65723  0.13108  1.0000
  H   H1554     1.0  0.26545  0.60904  0.03622  1.0000
  C   C1971     1.0  0.22170  0.75242  0.00304  1.0000
  C   C1972     1.0  0.24513  0.55453  0.31766  1.0000
  S   S253      1.0  0.34273  0.96332  0.27289  1.0000
  H   H1555     1.0  0.24789  0.60599  0.01307  1.0000
  H   H1556     1.0  0.28951  0.64697  0.07223  1.0000
  H   H1557     1.0  0.27158  0.67111  0.09157  1.0000
  H   H1558     1.0  0.24224  0.69375  0.08312  1.0000
  H   H1559     1.0  0.23156  0.69325  0.05381  1.0000
  H   H1560     1.0  0.24924  0.66942  0.03403  1.0000
  H   H1561     1.0  0.31316  0.50063  0.11061  1.0000
  H   H1562     1.0  0.32792  0.57694  0.05749  1.0000
  H   H1563     1.0  0.30506  0.56783  0.08816  1.0000
  H   H1564     1.0  0.27334  0.58960  0.09607  1.0000
  H   H1565     1.0  0.26450  0.62026  0.07368  1.0000
  C   C1973     1.0  0.34611  0.90416  0.31532  1.0000
  C   C1974     1.0  0.33225  0.89516  0.31347  1.0000
  C   C1975     1.0  0.33689  0.88348  0.29998  1.0000
  H   H1566     1.0  0.34267  0.91315  0.32582  1.0000
  H   H1567     1.0  0.31788  0.89727  0.32236  1.0000
  H   H1568     1.0  0.32620  0.87643  0.29852  1.0000
  C   C1976     1.0  0.31638  0.73544  0.03220  1.0000
  C   C1977     1.0  0.23997  0.79925  0.17829  1.0000
  C   C1978     1.0  0.36534  0.67667  0.44879  1.0000
  H   H1569     1.0  0.21302  0.85439  0.30995  1.0000
  C   C1979     1.0  0.32784  0.61523  0.28983  1.0000
  C   C1980     1.0  0.34692  0.60708  0.28249  1.0000
  C   C1981     1.0  0.35093  0.59129  0.27378  1.0000
  C   C1982     1.0  0.33591  0.58371  0.27222  1.0000
  C   C1983     1.0  0.31667  0.59202  0.27926  1.0000
  C   C1984     1.0  0.31274  0.60785  0.28811  1.0000
  P   P66       1.0  0.29743  0.58161  0.27783  1.0000
  C   C1985     1.0  0.29431  0.58567  0.25328  1.0000
  C   C1986     1.0  0.30366  0.55600  0.28753  1.0000
  C   C1987     1.0  0.30008  0.54250  0.27910  1.0000
  C   C1988     1.0  0.31861  0.52957  0.31032  1.0000
  C   C1989     1.0  0.31300  0.54934  0.30322  1.0000
  C   C1990     1.0  0.27760  0.58229  0.24988  1.0000
  C   C1991     1.0  0.27540  0.58438  0.23103  1.0000
  C   C1992     1.0  0.28967  0.59017  0.21541  1.0000
  C   C1993     1.0  0.30619  0.59381  0.21864  1.0000
  C   C1994     1.0  0.30857  0.59154  0.23748  1.0000
  C   C1995     1.0  0.27532  0.59227  0.29249  1.0000
  C   C1996     1.0  0.26250  0.60802  0.28397  1.0000
  C   C1997     1.0  0.24580  0.61683  0.29535  1.0000
  C   C1998     1.0  0.24200  0.61033  0.31535  1.0000
  C   C1999     1.0  0.25489  0.59502  0.32399  1.0000
  C   C2000     1.0  0.27146  0.58596  0.31263  1.0000
  H   H1570     1.0  0.32477  0.62743  0.29666  1.0000
  H   H1571     1.0  0.35863  0.61299  0.28350  1.0000
  C   C2001     1.0  0.20898  0.75429  0.28267  1.0000
  H   H1572     1.0  0.33930  0.57135  0.26552  1.0000
  H   H1573     1.0  0.29809  0.61455  0.29376  1.0000
  H   H1574     1.0  0.29295  0.54696  0.26704  1.0000
  H   H1575     1.0  0.31621  0.55941  0.30982  1.0000
  H   H1576     1.0  0.26655  0.57745  0.26184  1.0000
  H   H1577     1.0  0.26284  0.58109  0.22847  1.0000
  H   H1578     1.0  0.28815  0.59138  0.20080  1.0000
  H   H1579     1.0  0.31745  0.59783  0.20652  1.0000
  H   H1580     1.0  0.32173  0.59402  0.23948  1.0000
  H   H1581     1.0  0.26541  0.61361  0.26856  1.0000
  H   H1582     1.0  0.23576  0.62871  0.28871  1.0000
  H   H1583     1.0  0.22905  0.61717  0.32416  1.0000
  H   H1584     1.0  0.23034  0.57377  0.43179  1.0000
  C   C2002     1.0  0.36281  0.82167  0.37231  1.0000
  C   C2003     1.0  0.26836  0.70495  0.42519  1.0000
  H   H1585     1.0  0.22962  0.80250  0.46342  1.0000
  C   C2004     1.0  0.31824  0.71017  0.39973  1.0000
  H   H1586     1.0  0.26925  0.71504  0.41149  1.0000
  H   H1587     1.0  0.28727  0.79903  0.22763  1.0000
  H   H1588     1.0  0.36639  0.68166  0.36995  1.0000
  C   C2005     1.0  0.27921  0.71090  0.04617  1.0000
  C   C2006     1.0  0.25939  0.53822  0.32183  1.0000
  S   S254      1.0  0.21863  0.84147  0.38464  1.0000
  H   H1589     1.0  0.20406  0.96872  0.35110  1.0000
  C   C2007     1.0  0.30590  0.52276  0.28609  1.0000
  Fe  Fe127     1.0  0.31408  0.73825  0.12864  1.0000
  C   C2008     1.0  0.37655  0.67123  0.43175  1.0000
  H   H1590     1.0  0.26888  0.49833  0.19370  1.0000
  C   C2009     1.0  0.30708  0.73086  0.37150  1.0000
  C   C2010     1.0  0.28347  0.92760  0.34096  1.0000
  C   C2011     1.0  0.36552  0.78086  0.38026  1.0000
  H   H1591     1.0  0.33424  0.80431  0.04672  1.0000
  C   C2012     1.0  0.31670  0.74672  0.06050  1.0000
  C   C2013     1.0  0.30667  0.64730  0.02254  1.0000
  H   H1592     1.0  0.34453  0.63620  0.12807  1.0000
  H   H1593     1.0  0.33452  0.66951  0.13404  1.0000
  H   H1594     1.0  0.36574  0.58492  0.26822  1.0000
  S   S255      1.0  0.24427  0.69053  0.41237  1.0000
  H   H1595     1.0  0.33935  0.97440  0.23229  1.0000
  C   C2014     1.0  0.25158  0.78383  0.27519  1.0000
  C   C2015     1.0  0.37257  0.68805  0.16830  1.0000
  C   C2016     1.0  0.23056  0.56085  0.33251  1.0000
  C   C2017     1.0  0.20191  0.84888  0.30716  1.0000
  Fe  Fe128     1.0  0.21212  0.63720  0.41111  1.0000
  C   C2018     1.0  0.34137  0.85596  0.35427  1.0000
  C   C2019     1.0  0.21014  0.85802  0.43892  1.0000
  H   H1596     1.0  0.30333  0.51246  0.27929  1.0000
  H   H1597     1.0  0.23807  0.75485  0.23359  1.0000
  H   H1598     1.0  0.22380  0.73030  0.02848  1.0000
  H   H1599     1.0  0.19490  0.70831  0.11632  1.0000
  C   C2020     1.0  0.24694  0.51540  0.28647  1.0000
  C   C2021     1.0  0.23061  0.55122  0.35161  1.0000
  C   C2022     1.0  0.23979  0.53902  0.39676  1.0000
  C   C2023     1.0  0.27840  0.93047  0.27690  1.0000
  H   H1600     1.0  0.31935  0.60773  0.03501  1.0000
  H   H1601     1.0  0.33996  0.62931  0.22618  1.0000
  C   C2024     1.0  0.32221  0.73227  0.04968  1.0000
  C   C2025     1.0  0.31552  0.65831  0.02934  1.0000
  H   H1602     1.0  0.35850  0.87249  0.27736  1.0000
  H   H1603     1.0  0.21663  0.92714  0.36326  1.0000
  H   H1604     1.0  0.27925  0.91757  0.35415  1.0000
  H   H1605     1.0  0.19144  0.70768  0.16659  1.0000
  H   H1606     1.0  0.28124  0.92336  0.23214  1.0000
  H   H1607     1.0  0.31944  0.70835  0.41446  1.0000
  H   H1608     1.0  0.29986  0.74473  0.36444  1.0000
  H   H1609     1.0  0.30028  0.75571  0.01215  1.0000
  H   H1610     1.0  0.30005  0.76711  0.18499  1.0000
  C   C2026     1.0  0.36932  0.72268  0.15938  1.0000
  C   C2027     1.0  0.20774  0.68721  0.97926  1.0000
  C   C2028     1.0  0.33641  0.67795  0.43808  1.0000
  C   C2029     1.0  0.20577  0.48534  0.27516  1.0000
  C   C2030     1.0  0.22555  0.50938  0.38551  1.0000
  S   S256      1.0  0.33196  0.70860  0.13591  1.0000
  C   C2031     1.0  0.33961  0.76338  0.38888  1.0000
  H   H1611     1.0  0.24303  0.63214  0.98464  1.0000
  H   H1612     1.0  0.20956  0.72340  0.43173  1.0000
  C   C2032     1.0  0.24348  0.77598  0.06513  1.0000
  H   H1613     1.0  0.33278  0.51445  0.12440  1.0000
  C   C2033     1.0  0.24399  0.78979  0.07488  1.0000
  C   C2034     1.0  0.37211  0.81502  0.41565  1.0000
  H   H1614     1.0  0.35406  0.67649  0.15783  1.0000
  H   H1615     1.0  0.35311  0.59650  0.19271  1.0000
  H   H1616     1.0  0.32599  0.52453  0.32227  1.0000
  C   C2035     1.0  0.35947  0.58829  0.20490  1.0000
  H   H1617     1.0  0.25252  0.69306  0.24509  1.0000
  H   H1618     1.0  0.32156  0.85509  0.38175  1.0000
  S   S257      1.0  0.20345  0.81439  0.43693  1.0000
  H   H1619     1.0  0.20457  0.52753  0.40362  1.0000
  C   C2036     1.0  0.26722  0.50696  0.38371  1.0000
  S   S258      1.0  0.21642  0.62433  0.38487  1.0000
  C   C2037     1.0  0.30141  0.76145  0.21521  1.0000
  H   H1620     1.0  0.34357  0.74630  0.23152  1.0000
  C   C2038     1.0  0.21836  0.68862  0.99204  1.0000
  H   H1621     1.0  0.19592  0.59959  0.41709  1.0000
  C   C2039     1.0  0.34945  0.70738  0.14878  1.0000
  H   H1622     1.0  0.37921  0.67412  0.17565  1.0000
  C   C2040     1.0  0.36690  0.71868  0.07148  1.0000
  C   C2041     1.0  0.19505  0.71687  0.41299  1.0000
  C   C2042     1.0  0.37451  0.82686  0.27693  1.0000
  H   H1623     1.0  0.31974  0.50096  0.30692  1.0000
  H   H1624     1.0  0.36712  0.72415  0.04089  1.0000
  Fe  Fe129     1.0  0.22492  0.66890  0.42181  1.0000
  C   C2043     1.0  0.33173  0.80445  0.01811  1.0000
  C   C2044     1.0  0.33490  0.84809  0.37365  1.0000
  H   H1625     1.0  0.34656  0.56398  0.20853  1.0000
  H   H1626     1.0  0.31006  0.85909  0.45308  1.0000
  C   C2045     1.0  0.25565  0.67832  0.44735  1.0000
  C   C2046     1.0  0.37826  0.70466  0.16873  1.0000
  H   H1627     1.0  0.29738  0.72479  0.23126  1.0000
  C   C2047     1.0  0.28385  0.92145  0.26119  1.0000
  C   C2048     1.0  0.19529  0.49080  0.38985  1.0000
  C   C2049     1.0  0.33204  0.66473  0.01802  1.0000
  H   H1628     1.0  0.37503  0.70341  0.29366  1.0000
  S   S259      1.0  0.32407  0.71720  0.01870  1.0000
  C   C2050     1.0  0.23870  0.75469  0.43423  1.0000
  S   S260      1.0  0.35907  0.53627  0.24121  1.0000
  H   H1629     1.0  0.29754  0.66973  0.10807  1.0000
  H   H1630     1.0  0.35691  0.74756  0.19660  1.0000
  H   H1631     1.0  0.19913  0.79313  0.10341  1.0000
  H   H1632     1.0  0.37362  0.73557  0.15976  1.0000
  H   H1633     1.0  0.22435  0.64909  0.02893  1.0000
  C   C2051     1.0  0.36872  0.82912  0.35256  1.0000
  C   C2052     1.0  0.25058  0.73241  0.05974  1.0000
  C   C2053     1.0  0.35830  0.68940  0.15821  1.0000
  H   H1634     1.0  0.34794  0.73801  0.14235  1.0000
  C   C2054     1.0  0.35580  0.56987  0.21380  1.0000
  H   H1635     1.0  0.38249  0.55862  0.24823  1.0000
  Fe  Fe130     1.0  0.33557  0.49533  0.20887  1.0000
  H   H1636     1.0  0.30238  0.70046  0.11232  1.0000
  C   C2055     1.0  0.36865  0.89134  0.28874  1.0000
  C   C2056     1.0  0.27807  0.69229  0.45606  1.0000
  H   H1637     1.0  0.36542  0.71894  0.10138  1.0000
  C   C2057     1.0  0.32568  0.66320  0.08991  1.0000
  C   C2058     1.0  0.26286  0.94745  0.24393  1.0000
  C   C2059     1.0  0.25035  0.78054  0.17754  1.0000
  S   S261      1.0  0.33122  0.49781  0.23957  1.0000
  C   C2060     1.0  0.21321  0.48494  0.37829  1.0000
  C   C2061     1.0  0.32911  0.75741  0.18884  1.0000
  H   H1638     1.0  0.33499  0.75826  0.17354  1.0000
  H   H1639     1.0  0.25062  0.73668  0.08799  1.0000
  H   H1640     1.0  0.36378  0.84001  0.27527  1.0000
  H   H1641     1.0  0.37382  0.93089  0.26870  1.0000
  C   C2062     1.0  0.31090  0.67451  0.10100  1.0000
  C   C2063     1.0  0.34323  0.66905  0.08159  1.0000
  H   H1642     1.0  0.21623  0.65525  0.20155  1.0000
  P   P67       1.0  0.22753  0.74861  0.05818  1.0000
  H   H1643     1.0  0.33243  0.71146  0.09671  1.0000
  C   C2064     1.0  0.31352  0.69185  0.10333  1.0000
  C   C2065     1.0  0.35272  0.82123  0.02491  1.0000
  H   H1644     1.0  0.19629  0.75383  0.35182  1.0000
  H   H1645     1.0  0.30836  0.75480  0.24349  1.0000
  H   H1646     1.0  0.19183  0.74388  0.04944  1.0000
  H   H1647     1.0  0.29855  0.96335  0.29341  1.0000
  H   H1648     1.0  0.36413  0.75367  0.09546  1.0000
  C   C2066     1.0  0.36400  0.55915  0.22950  1.0000
  S   S262      1.0  0.19723  0.52976  0.34476  1.0000
  C   C2067     1.0  0.27633  0.71764  0.07744  1.0000
  C   C2068     1.0  0.35879  0.82797  0.00514  1.0000
  C   C2069     1.0  0.21871  0.76106  0.43809  1.0000
  H   H1649     1.0  0.27036  0.51566  0.34379  1.0000
  H   H1650     1.0  0.33090  0.71856  0.05494  1.0000
  C   C2070     1.0  0.33919  0.80946  0.03138  1.0000
  S   S263      1.0  0.27810  0.50362  0.25983  1.0000
  C   C2071     1.0  0.34592  0.68647  0.08404  1.0000
  H   H1651     1.0  0.20113  0.88852  0.33185  1.0000
  C   C2072     1.0  0.33078  0.69799  0.09461  1.0000
  C   C2073     1.0  0.27634  0.93005  0.24460  1.0000
  C   C2074     1.0  0.34559  0.76618  0.99419  1.0000
  H   H1652     1.0  0.35838  0.82522  0.03525  1.0000
  C   C2075     1.0  0.34913  0.75288  0.37453  1.0000
  H   H1653     1.0  0.32156  0.74426  0.07382  1.0000
  C   C2076     1.0  0.24314  0.72393  0.24007  1.0000
  H   H1654     1.0  0.26995  0.53272  0.31018  1.0000
  C   C2077     1.0  0.23127  0.90308  0.28068  1.0000
  H   H1655     1.0  0.26394  0.74233  0.44639  1.0000
  H   H1656     1.0  0.31138  0.92627  0.34615  1.0000
  S   S264      1.0  0.20594  0.66550  0.45110  1.0000
  H   H1657     1.0  0.37214  0.67895  0.45926  1.0000
  H   H1658     1.0  0.36946  0.82730  0.44015  1.0000
  C   C2078     1.0  0.20849  0.75975  0.45715  1.0000
  C   C2079     1.0  0.21087  0.77459  0.08287  1.0000
  C   C2080     1.0  0.34147  0.75152  0.20184  1.0000
  H   H1659     1.0  0.36922  0.83717  0.00014  1.0000
  H   H1660     1.0  0.22734  0.94658  0.28917  1.0000
  C   C2081     1.0  0.33391  0.75075  0.22150  1.0000
  C   C2082     1.0  0.20918  0.96402  0.33748  1.0000
  C   C2083     1.0  0.31397  0.75570  0.22818  1.0000
  C   C2084     1.0  0.20203  0.60252  0.36895  1.0000
  S   S265      1.0  0.37506  0.61945  0.20019  1.0000
  H   H1661     1.0  0.24031  0.90626  0.26649  1.0000
  C   C2085     1.0  0.36468  0.74718  0.08359  1.0000
  H   H1662     1.0  0.22863  0.80632  0.09653  1.0000
  P   P68       1.0  0.36928  0.69285  0.07567  1.0000
  C   C2086     1.0  0.37971  0.58538  0.22723  1.0000
  C   C2087     1.0  0.28681  0.70831  0.06246  1.0000
  C   C2088     1.0  0.22355  0.74542  0.02225  1.0000
  H   H1663     1.0  0.20537  0.64481  0.00741  1.0000
  C   C2089     1.0  0.22511  0.75778  0.03327  1.0000
  H   H1664     1.0  0.38791  0.62988  0.34762  1.0000
  H   H1665     1.0  0.21354  0.76242  0.26831  1.0000
  C   C2090     1.0  0.25691  0.70673  0.24176  1.0000
  H   H1666     1.0  0.20646  0.67363  0.06618  1.0000
  H   H1667     1.0  0.25523  0.66196  0.97969  1.0000
  H   H1668     1.0  0.33305  0.86916  0.34739  1.0000
  C   C2091     1.0  0.20526  0.82923  0.30724  1.0000
  H   H1669     1.0  0.22176  0.79947  0.99908  1.0000
  C   C2092     1.0  0.19699  0.73339  0.31994  1.0000
  C   C2093     1.0  0.21329  0.64067  0.03480  1.0000
  H   H1670     1.0  0.37940  0.69596  0.32743  1.0000
  H   H1671     1.0  0.35505  0.69345  0.04173  1.0000
  H   H1672     1.0  0.22509  0.78737  0.03298  1.0000
  C   C2094     1.0  0.20870  0.73566  0.07176  1.0000
  C   C2095     1.0  0.21350  0.89824  0.28278  1.0000
  H   H1673     1.0  0.19241  0.48255  0.20790  1.0000
  C   C2096     1.0  0.36658  0.75662  0.36277  1.0000
  C   C2097     1.0  0.33991  0.66018  0.99985  1.0000
  H   H1674     1.0  0.19300  0.76479  0.45989  1.0000
  C   C2098     1.0  0.37182  0.78099  0.42279  1.0000
  H   H1675     1.0  0.37407  0.74832  0.35183  1.0000
  C   C2099     1.0  0.22251  0.95170  0.30250  1.0000
  C   C2100     1.0  0.20558  0.68112  0.18241  1.0000
  C   C2101     1.0  0.27051  0.93605  0.32867  1.0000
  C   C2102     1.0  0.18876  0.62674  0.02984  1.0000
  S   S266      1.0  0.29836  0.69530  0.99309  1.0000
  H   H1676     1.0  0.31498  0.50810  0.37386  1.0000
  H   H1677     1.0  0.28480  0.92363  0.28937  1.0000
  C   C2103     1.0  0.20412  0.94988  0.31337  1.0000
  C   C2104     1.0  0.36656  0.73027  0.05296  1.0000
  C   C2105     1.0  0.35825  0.84648  0.34369  1.0000
  S   S267      1.0  0.20159  0.66935  0.40682  1.0000
  H   H1678     1.0  0.37108  0.68404  0.01072  1.0000
  H   H1679     1.0  0.24179  0.49011  0.36633  1.0000
  C   C2106     1.0  0.36870  0.79713  0.44869  1.0000
  H   H1680     1.0  0.20894  0.89791  0.27002  1.0000
  C   C2107     1.0  0.37938  0.68170  0.02169  1.0000
  H   H1681     1.0  0.30866  0.63370  0.99893  1.0000
  Fe  Fe131     1.0  0.30411  0.71857  0.46772  1.0000
  H   H1682     1.0  0.22583  0.54015  0.44468  1.0000
  C   C2108     1.0  0.20026  0.49749  0.28832  1.0000
  C   C2109     1.0  0.19571  0.62126  0.06200  1.0000
  H   H1683     1.0  0.36713  0.79655  0.46393  1.0000
  H   H1684     1.0  0.33995  0.82475  0.39748  1.0000
  H   H1685     1.0  0.23404  0.73116  0.28082  1.0000
  H   H1686     1.0  0.36396  0.75914  0.03578  1.0000
  S   S268      1.0  0.19485  0.62807  0.12427  1.0000
  C   C2110     1.0  0.22051  0.73674  0.28972  1.0000
  C   C2111     1.0  0.19243  0.50596  0.39917  1.0000
  C   C2112     1.0  0.26278  0.80690  0.00403  1.0000
  C   C2113     1.0  0.37941  0.81537  0.26314  1.0000
  H   H1687     1.0  0.19610  0.85520  0.44662  1.0000
  C   C2114     1.0  0.35130  0.82299  0.99180  1.0000
  H   H1688     1.0  0.19515  0.94342  0.30836  1.0000
  C   C2115     1.0  0.21450  0.72625  0.30827  1.0000
  H   H1689     1.0  0.25715  0.95411  0.23100  1.0000
  H   H1690     1.0  0.23700  0.97046  0.33303  1.0000
  H   H1691     1.0  0.37030  0.91867  0.20946  1.0000
  H   H1692     1.0  0.25537  0.48195  0.39979  1.0000
  H   H1693     1.0  0.20018  0.78934  0.47507  1.0000
  C   C2116     1.0  0.21821  0.75218  0.47252  1.0000
  C   C2117     1.0  0.19502  0.59644  0.40379  1.0000
  H   H1694     1.0  0.37344  0.82842  0.40540  1.0000
  C   C2118     1.0  0.38380  0.82137  0.29269  1.0000
  C   C2119     1.0  0.19052  0.93964  0.40554  1.0000
  S   S269      1.0  0.38385  0.65937  0.22086  1.0000
  C   C2120     1.0  0.19271  0.58785  0.36946  1.0000
  H   H1695     1.0  0.38017  0.83038  0.30317  1.0000
  C   C2121     1.0  0.23823  0.74538  0.46853  1.0000
  H   H1696     1.0  0.35221  0.66582  0.99073  1.0000
  C   C2122     1.0  0.37694  0.66747  0.10999  1.0000
  H   H1697     1.0  0.37930  0.77489  0.23553  1.0000
  H   H1698     1.0  0.19320  0.61442  0.07711  1.0000
  S   S270      1.0  0.19265  0.63061  0.44017  1.0000
  H   H1699     1.0  0.37227  0.88725  0.20185  1.0000
  H   H1700     1.0  0.38333  0.85693  0.22409  1.0000
  C   C2123     1.0  0.38284  0.87068  0.22727  1.0000
  C   C2124     1.0  0.37672  0.88773  0.21467  1.0000
  C   C2125     1.0  0.38626  0.66076  0.12559  1.0000
  C   C2126     1.0  0.19580  0.72494  0.42797  1.0000
  H   H1701     1.0  0.19802  0.76871  0.08634  1.0000
  C   C2127     1.0  0.37568  0.90545  0.21895  1.0000
  H   H1702     1.0  0.35612  0.82849  0.97661  1.0000
  H   H1703     1.0  0.24693  0.97007  0.25893  1.0000
  C   C2128     1.0  0.38052  0.90618  0.23593  1.0000
  H   H1704     1.0  0.37875  0.92014  0.23915  1.0000
  H   H1705     1.0  0.37466  0.90962  0.30443  1.0000
  C   C2129     1.0  0.38770  0.87132  0.24427  1.0000
  C   C2130     1.0  0.19028  0.67179  0.21596  1.0000
  H   H1706     1.0  0.38687  0.95957  0.26485  1.0000
  S   S271      1.0  0.18863  0.85047  0.35586  1.0000
  C   C2131     1.0  0.19128  0.54896  0.25512  1.0000
  C   C2132     1.0  0.18970  0.53938  0.24164  1.0000
  P   P69       1.0  0.18855  0.71959  0.34347  1.0000
  S   S272      1.0  0.23185  0.98061  0.40679  1.0000
  C   C2133     1.0  0.29744  0.94432  0.81416  1.0000
  C   C2134     1.0  0.21295  0.57622  0.56322  1.0000
  C   C2135     1.0  0.24288  0.74669  0.52940  1.0000
  C   C2136     1.0  0.20861  0.92989  0.74265  1.0000
  H   H1707     1.0  0.26679  0.88415  0.87073  1.0000
  Fe  Fe132     1.0  0.30888  0.70450  0.96140  1.0000
  S   S273      1.0  0.28017  0.72224  0.95651  1.0000
  S   S274      1.0  0.32325  0.68079  0.94508  1.0000
  C   C2137     1.0  0.24438  0.97867  0.88134  1.0000
  P   P70       1.0  0.23849  0.97089  0.84807  1.0000
  C   C2138     1.0  0.31500  0.89904  0.75530  1.0000
  H   H1708     1.0  0.23989  0.90741  0.70836  1.0000
  Fe  Fe133     1.0  0.29015  0.74637  0.96195  1.0000
  S   S275      1.0  0.28137  0.77673  0.94565  1.0000
  H   H1709     1.0  0.29946  0.50611  0.72719  1.0000
  S   S276      1.0  0.32002  0.72922  0.96406  1.0000
  Fe  Fe134     1.0  0.31581  0.88642  0.85606  1.0000
  S   S277      1.0  0.30507  0.85916  0.86032  1.0000
  S   S278      1.0  0.29623  0.91118  0.86903  1.0000
  Fe  Fe135     1.0  0.35363  0.87193  0.82981  1.0000
  S   S279      1.0  0.34599  0.84389  0.83179  1.0000
  C   C2139     1.0  0.34997  0.94081  0.77478  1.0000
  Fe  Fe136     1.0  0.31677  0.86166  0.82856  1.0000
  S   S280      1.0  0.30364  0.85889  0.80534  1.0000
  Fe  Fe137     1.0  0.33523  0.84403  0.86334  1.0000
  S   S281      1.0  0.34484  0.81664  0.88408  1.0000
  S   S282      1.0  0.32526  0.88992  0.82399  1.0000
  S   S283      1.0  0.34508  0.87103  0.86174  1.0000
  Fe  Fe138     1.0  0.30878  0.72435  0.64181  1.0000
  S   S284      1.0  0.29763  0.75108  0.62163  1.0000
  S   S285      1.0  0.29690  0.69732  0.64756  1.0000
  Fe  Fe139     1.0  0.33650  0.74394  0.65184  1.0000
  S   S286      1.0  0.32771  0.77177  0.63156  1.0000
  C   C2140     1.0  0.23753  0.89740  0.83021  1.0000
  Fe  Fe140     1.0  0.29772  0.76674  0.64390  1.0000
  S   S287      1.0  0.27223  0.78981  0.65209  1.0000
  Fe  Fe141     1.0  0.32863  0.75317  0.61099  1.0000
  S   S288      1.0  0.34189  0.75924  0.57896  1.0000
  S   S289      1.0  0.30613  0.73992  0.66529  1.0000
  S   S290      1.0  0.34005  0.72551  0.63028  1.0000
  Fe  Fe142     1.0  0.24463  0.81805  0.74935  1.0000
  S   S291      1.0  0.23738  0.79459  0.77449  1.0000
  S   S292      1.0  0.27340  0.80896  0.73068  1.0000
  Fe  Fe143     1.0  0.23028  0.81695  0.79214  1.0000
  S   S293      1.0  0.24044  0.80991  0.82024  1.0000
  S   S294      1.0  0.23978  0.84002  0.76730  1.0000
  Fe  Fe144     1.0  0.26853  0.58170  0.83185  1.0000
  S   S295      1.0  0.28618  0.59429  0.80393  1.0000
  S   S296      1.0  0.24251  0.60211  0.84449  1.0000
  Fe  Fe145     1.0  0.28303  0.56953  0.79338  1.0000
  S   S297      1.0  0.27368  0.57651  0.76497  1.0000
  Fe  Fe146     1.0  0.31168  0.57434  0.81475  1.0000
  S   S298      1.0  0.33927  0.58575  0.80741  1.0000
  H   H1710     1.0  0.22451  0.88015  0.72768  1.0000
  H   H1711     1.0  0.27676  0.53656  0.78399  1.0000
  S   S299      1.0  0.21769  0.65489  0.62559  1.0000
  Fe  Fe147     1.0  0.21099  0.65540  0.57424  1.0000
  S   S300      1.0  0.24013  0.64883  0.58141  1.0000
  C   C2141     1.0  0.33572  0.85905  0.56701  1.0000
  Fe  Fe148     1.0  0.22695  0.63094  0.60928  1.0000
  S   S301      1.0  0.24104  0.60125  0.62321  1.0000
  Fe  Fe149     1.0  0.22831  0.67322  0.59718  1.0000
  S   S302      1.0  0.24359  0.69758  0.59197  1.0000
  C   C2142     1.0  0.19841  0.71511  0.73821  1.0000
  H   H1712     1.0  0.35435  0.92126  0.82143  1.0000
  S   S303      1.0  0.21883  0.51700  0.70700  1.0000
  H   H1713     1.0  0.23007  0.86273  0.82884  1.0000
  C   C2143     1.0  0.22931  0.49949  0.86701  1.0000
  C   C2144     1.0  0.38306  0.91339  0.72952  1.0000
  C   C2145     1.0  0.19137  0.70022  0.49209  1.0000
  Fe  Fe150     1.0  0.22227  0.51199  0.73746  1.0000
  S   S304      1.0  0.25029  0.50744  0.74670  1.0000
  H   H1714     1.0  0.36529  0.72788  0.97241  1.0000
  S   S305      1.0  0.29576  0.75218  0.51968  1.0000
  C   C2146     1.0  0.22015  0.89392  0.73198  1.0000
  H   H1715     1.0  0.20278  0.53053  0.79771  1.0000
  H   H1716     1.0  0.19829  0.72076  0.65015  1.0000
  S   S306      1.0  0.23586  0.94578  0.71339  1.0000
  H   H1717     1.0  0.23257  0.88109  0.87885  1.0000
  C   C2147     1.0  0.22592  0.59229  0.64484  1.0000
  C   C2148     1.0  0.21015  0.60469  0.65361  1.0000
  H   H1718     1.0  0.24167  0.52373  0.64384  1.0000
  H   H1719     1.0  0.31472  0.92914  0.74688  1.0000
  C   C2149     1.0  0.21677  0.56529  0.66996  1.0000
  C   C2150     1.0  0.22939  0.57259  0.65322  1.0000
  H   H1720     1.0  0.21898  0.55001  0.67579  1.0000
  H   H1721     1.0  0.24152  0.56290  0.64646  1.0000
  C   C2151     1.0  0.26520  0.55775  0.76128  1.0000
  C   C2152     1.0  0.25509  0.56117  0.74650  1.0000
  C   C2153     1.0  0.24936  0.54598  0.74263  1.0000
  C   C2154     1.0  0.25415  0.52727  0.75327  1.0000
  C   C2155     1.0  0.26360  0.52404  0.76847  1.0000
  C   C2156     1.0  0.26905  0.53925  0.77254  1.0000
  H   H1722     1.0  0.25203  0.57550  0.73782  1.0000
  H   H1723     1.0  0.24191  0.54858  0.73097  1.0000
  H   H1724     1.0  0.26702  0.50965  0.77688  1.0000
  C   C2157     1.0  0.24111  0.60401  0.86823  1.0000
  C   C2158     1.0  0.22427  0.61452  0.87786  1.0000
  C   C2159     1.0  0.22259  0.61600  0.89695  1.0000
  C   C2160     1.0  0.23801  0.60737  0.90630  1.0000
  C   C2161     1.0  0.25504  0.59724  0.89649  1.0000
  C   C2162     1.0  0.25657  0.59548  0.87752  1.0000
  H   H1725     1.0  0.21249  0.62144  0.87054  1.0000
  H   H1726     1.0  0.20935  0.62369  0.90442  1.0000
  H   H1727     1.0  0.26969  0.58750  0.87016  1.0000
  C   C2163     1.0  0.28299  0.69664  0.63153  1.0000
  C   C2164     1.0  0.28287  0.70996  0.61404  1.0000
  C   C2165     1.0  0.27085  0.70996  0.60198  1.0000
  C   C2166     1.0  0.25902  0.69649  0.60718  1.0000
  C   C2167     1.0  0.25943  0.68280  0.62443  1.0000
  C   C2168     1.0  0.27140  0.68289  0.63659  1.0000
  H   H1728     1.0  0.29217  0.72018  0.60966  1.0000
  H   H1729     1.0  0.27083  0.72039  0.58849  1.0000
  H   H1730     1.0  0.25034  0.67236  0.62853  1.0000
  H   H1731     1.0  0.27148  0.67248  0.65005  1.0000
  C   C2169     1.0  0.32936  0.75672  0.56244  1.0000
  C   C2170     1.0  0.31144  0.75144  0.56878  1.0000
  C   C2171     1.0  0.30145  0.74998  0.55547  1.0000
  C   C2172     1.0  0.30947  0.75332  0.53568  1.0000
  C   C2173     1.0  0.32760  0.75820  0.52922  1.0000
  C   C2174     1.0  0.33746  0.76001  0.54259  1.0000
  H   H1732     1.0  0.30520  0.74844  0.58390  1.0000
  H   H1733     1.0  0.28752  0.74603  0.56058  1.0000
  H   H1734     1.0  0.33386  0.76085  0.51396  1.0000
  H   H1735     1.0  0.35139  0.76396  0.53756  1.0000
  C   C2175     1.0  0.27227  0.79483  0.67413  1.0000
  C   C2176     1.0  0.28797  0.78639  0.68308  1.0000
  C   C2177     1.0  0.28803  0.79067  0.70059  1.0000
  C   C2178     1.0  0.27246  0.80338  0.70919  1.0000
  C   C2179     1.0  0.25669  0.81177  0.70031  1.0000
  C   C2180     1.0  0.25667  0.80761  0.68269  1.0000
  H   H1736     1.0  0.30021  0.77676  0.67643  1.0000
  H   H1737     1.0  0.30009  0.78400  0.70762  1.0000
  H   H1738     1.0  0.24474  0.82183  0.70676  1.0000
  H   H1739     1.0  0.24470  0.81452  0.67559  1.0000
  C   C2181     1.0  0.28682  0.84426  0.81060  1.0000
  C   C2182     1.0  0.28429  0.83747  0.79550  1.0000
  C   C2183     1.0  0.27053  0.82634  0.79875  1.0000
  C   C2184     1.0  0.25874  0.82247  0.81695  1.0000
  C   C2185     1.0  0.26133  0.82909  0.83221  1.0000
  C   C2186     1.0  0.27555  0.83986  0.82909  1.0000
  H   H1740     1.0  0.29296  0.84088  0.78119  1.0000
  H   H1741     1.0  0.26901  0.82077  0.78711  1.0000
  H   H1742     1.0  0.25206  0.82630  0.84627  1.0000
  H   H1743     1.0  0.27737  0.84526  0.84075  1.0000
  H   H1744     1.0  0.28125  0.48330  0.72205  1.0000
  C   C2187     1.0  0.28170  0.73707  0.72219  1.0000
  H   H1745     1.0  0.33456  0.70287  0.88409  1.0000
  C   C2188     1.0  0.35217  0.93223  0.80860  1.0000
  C   C2189     1.0  0.23252  0.75174  0.51466  1.0000
  C   C2190     1.0  0.34917  0.95169  0.80906  1.0000
  H   H1746     1.0  0.19452  0.64378  0.48955  1.0000
  C   C2191     1.0  0.18850  0.58838  0.82054  1.0000
  C   C2192     1.0  0.27819  0.96719  0.83379  1.0000
  C   C2193     1.0  0.32201  0.96387  0.74158  1.0000
  C   C2194     1.0  0.19043  0.76384  0.71370  1.0000
  C   C2195     1.0  0.21963  0.71374  0.95614  1.0000
  H   H1747     1.0  0.24602  0.73866  0.48003  1.0000
  H   H1748     1.0  0.19958  0.76759  0.91731  1.0000
  H   H1749     1.0  0.22011  0.72345  0.94229  1.0000
  H   H1750     1.0  0.23405  0.59406  0.55150  1.0000
  C   C2196     1.0  0.29917  0.78755  0.92852  1.0000
  C   C2197     1.0  0.29430  0.80695  0.91948  1.0000
  C   C2198     1.0  0.30820  0.81600  0.90574  1.0000
  C   C2199     1.0  0.32705  0.80567  0.90103  1.0000
  C   C2200     1.0  0.33194  0.78627  0.91005  1.0000
  C   C2201     1.0  0.31800  0.77719  0.92372  1.0000
  H   H1751     1.0  0.27975  0.81503  0.92318  1.0000
  H   H1752     1.0  0.30438  0.83100  0.89896  1.0000
  H   H1753     1.0  0.34650  0.77821  0.90636  1.0000
  H   H1754     1.0  0.32180  0.76218  0.93046  1.0000
  C   C2202     1.0  0.35228  0.52989  0.69213  1.0000
  S   S307      1.0  0.23637  0.60891  0.93023  1.0000
  C   C2203     1.0  0.34316  0.68467  0.92638  1.0000
  C   C2204     1.0  0.35124  0.67107  0.91469  1.0000
  H   H1755     1.0  0.36524  0.82940  0.91717  1.0000
  C   C2205     1.0  0.28917  0.49215  0.83624  1.0000
  H   H1756     1.0  0.34540  0.65830  0.91756  1.0000
  H   H1757     1.0  0.24567  0.77209  0.73934  1.0000
  C   C2206     1.0  0.32137  0.96293  0.86706  1.0000
  C   C2207     1.0  0.30144  0.96410  0.87176  1.0000
  C   C2208     1.0  0.29396  0.94801  0.87266  1.0000
  C   C2209     1.0  0.30622  0.93097  0.86800  1.0000
  C   C2210     1.0  0.32613  0.92995  0.86288  1.0000
  C   C2211     1.0  0.33368  0.94573  0.86283  1.0000
  H   H1758     1.0  0.24317  0.77243  0.94417  1.0000
  H   H1759     1.0  0.27862  0.94880  0.87683  1.0000
  H   H1760     1.0  0.33574  0.91683  0.85945  1.0000
  H   H1761     1.0  0.34912  0.94460  0.85953  1.0000
  C   C2212     1.0  0.24366  0.67883  0.92619  1.0000
  C   C2213     1.0  0.25699  0.66868  0.93770  1.0000
  C   C2214     1.0  0.27239  0.67658  0.93763  1.0000
  C   C2215     1.0  0.27464  0.69446  0.92578  1.0000
  C   C2216     1.0  0.26160  0.70455  0.91371  1.0000
  C   C2217     1.0  0.24569  0.69687  0.91455  1.0000
  P   P71       1.0  0.26423  0.72792  0.89867  1.0000
  C   C2218     1.0  0.24719  0.74558  0.91121  1.0000
  C   C2219     1.0  0.28913  0.73015  0.89348  1.0000
  C   C2220     1.0  0.30393  0.71432  0.88939  1.0000
  C   C2221     1.0  0.32324  0.71535  0.88657  1.0000
  H   H1762     1.0  0.23713  0.97486  0.80699  1.0000
  C   C2222     1.0  0.31338  0.74828  0.89087  1.0000
  C   C2223     1.0  0.29406  0.74743  0.89333  1.0000
  C   C2224     1.0  0.25244  0.75341  0.92414  1.0000
  H   H1763     1.0  0.26453  0.90223  0.81092  1.0000
  H   H1764     1.0  0.31757  0.50426  0.77873  1.0000
  H   H1765     1.0  0.34286  0.73290  0.88593  1.0000
  C   C2225     1.0  0.22797  0.75078  0.90887  1.0000
  C   C2226     1.0  0.25838  0.73120  0.87543  1.0000
  C   C2227     1.0  0.25800  0.71544  0.86816  1.0000
  C   C2228     1.0  0.25265  0.71844  0.85046  1.0000
  C   C2229     1.0  0.24812  0.73714  0.83970  1.0000
  C   C2230     1.0  0.24891  0.75286  0.84664  1.0000
  C   C2231     1.0  0.25405  0.74991  0.86442  1.0000
  H   H1766     1.0  0.23138  0.67294  0.92674  1.0000
  H   H1767     1.0  0.25518  0.65482  0.94687  1.0000
  H   H1768     1.0  0.28259  0.66896  0.94683  1.0000
  H   H1769     1.0  0.28656  0.70031  0.92624  1.0000
  H   H1770     1.0  0.23469  0.70485  0.90643  1.0000
  H   H1771     1.0  0.30058  0.70094  0.88900  1.0000
  C   C2232     1.0  0.23934  0.88607  0.86403  1.0000
  H   H1772     1.0  0.35142  0.62974  0.78534  1.0000
  H   H1773     1.0  0.31706  0.76132  0.89175  1.0000
  H   H1774     1.0  0.28312  0.76020  0.89542  1.0000
  H   H1775     1.0  0.26697  0.74951  0.92653  1.0000
  H   H1776     1.0  0.19908  0.96490  0.86654  1.0000
  P   P72       1.0  0.31493  0.83244  0.59256  1.0000
  Fe  Fe151     1.0  0.19241  0.53879  0.71560  1.0000
  H   H1777     1.0  0.23907  0.72583  0.96471  1.0000
  H   H1778     1.0  0.26168  0.70086  0.87616  1.0000
  H   H1779     1.0  0.25190  0.70626  0.84518  1.0000
  H   H1780     1.0  0.24388  0.73953  0.82602  1.0000
  H   H1781     1.0  0.24528  0.76740  0.83834  1.0000
  H   H1782     1.0  0.25436  0.76228  0.86971  1.0000
  C   C2233     1.0  0.19957  0.93743  0.79625  1.0000
  H   H1783     1.0  0.30099  0.90064  0.75215  1.0000
  C   C2234     1.0  0.33446  0.64923  0.49745  1.0000
  C   C2235     1.0  0.35356  0.64297  0.49973  1.0000
  C   C2236     1.0  0.32478  0.65710  0.52929  1.0000
  C   C2237     1.0  0.32012  0.65630  0.51211  1.0000
  P   P73       1.0  0.30661  0.66681  0.54821  1.0000
  C   C2238     1.0  0.30031  0.64791  0.56855  1.0000
  C   C2239     1.0  0.28506  0.65241  0.58383  1.0000
  C   C2240     1.0  0.27964  0.63794  0.59946  1.0000
  C   C2241     1.0  0.28896  0.61875  0.59965  1.0000
  C   C2242     1.0  0.30404  0.61408  0.58440  1.0000
  C   C2243     1.0  0.30976  0.62859  0.56891  1.0000
  C   C2244     1.0  0.28544  0.67851  0.53821  1.0000
  C   C2245     1.0  0.27202  0.66764  0.53882  1.0000
  C   C2246     1.0  0.25759  0.67525  0.52806  1.0000
  C   C2247     1.0  0.25669  0.69361  0.51633  1.0000
  C   C2248     1.0  0.26966  0.70468  0.51602  1.0000
  C   C2249     1.0  0.28390  0.69728  0.52701  1.0000
  H   H1784     1.0  0.38613  0.78856  0.61209  1.0000
  C   C2250     1.0  0.21621  0.72521  0.53015  1.0000
  H   H1785     1.0  0.30554  0.66140  0.50967  1.0000
  H   H1786     1.0  0.27718  0.66714  0.58351  1.0000
  H   H1787     1.0  0.26774  0.64156  0.61112  1.0000
  H   H1788     1.0  0.28419  0.60751  0.61145  1.0000
  H   H1789     1.0  0.31110  0.59916  0.58446  1.0000
  H   H1790     1.0  0.32125  0.62461  0.55713  1.0000
  H   H1791     1.0  0.27316  0.65295  0.54691  1.0000
  H   H1792     1.0  0.24742  0.66672  0.52836  1.0000
  H   H1793     1.0  0.24603  0.69920  0.50737  1.0000
  H   H1794     1.0  0.26893  0.71889  0.50692  1.0000
  H   H1795     1.0  0.29403  0.70602  0.52610  1.0000
  S   S308      1.0  0.29423  0.56346  0.84382  1.0000
  C   C2251     1.0  0.26748  0.89371  0.84032  1.0000
  Fe  Fe152     1.0  0.30855  0.74648  0.48968  1.0000
  C   C2252     1.0  0.36422  0.73416  0.79697  1.0000
  C   C2253     1.0  0.25864  0.88762  0.85946  1.0000
  H   H1796     1.0  0.34722  0.85255  0.57485  1.0000
  C   C2254     1.0  0.22872  0.89121  0.84950  1.0000
  H   H1797     1.0  0.36149  0.80901  0.94996  1.0000
  H   H1798     1.0  0.21150  0.58760  0.61240  1.0000
  C   C2255     1.0  0.22898  0.90931  0.72116  1.0000
  Fe  Fe153     1.0  0.19952  0.49553  0.71854  1.0000
  C   C2256     1.0  0.19110  0.73123  0.49821  1.0000
  H   H1799     1.0  0.32254  0.59233  0.84667  1.0000
  H   H1800     1.0  0.32326  0.53916  0.65982  1.0000
  C   C2257     1.0  0.23924  0.90679  0.78813  1.0000
  C   C2258     1.0  0.34716  0.71920  0.82773  1.0000
  H   H1801     1.0  0.36541  0.95188  0.71171  1.0000
  C   C2259     1.0  0.22468  0.58793  0.56440  1.0000
  C   C2260     1.0  0.33644  0.59635  0.84197  1.0000
  C   C2261     1.0  0.33184  0.82838  0.66234  1.0000
  C   C2262     1.0  0.25775  0.92653  0.76176  1.0000
  C   C2263     1.0  0.26680  0.51916  0.68302  1.0000
  H   H1802     1.0  0.24983  0.81997  0.62597  1.0000
  C   C2264     1.0  0.33343  0.82421  0.69587  1.0000
  C   C2265     1.0  0.33233  0.83611  0.67766  1.0000
  P   P74       1.0  0.33393  0.83466  0.71541  1.0000
  C   C2266     1.0  0.33228  0.81660  0.73747  1.0000
  C   C2267     1.0  0.35638  0.84229  0.71137  1.0000
  C   C2268     1.0  0.22419  0.59186  0.58218  1.0000
  C   C2269     1.0  0.31468  0.81551  0.75059  1.0000
  C   C2270     1.0  0.31375  0.80066  0.76700  1.0000
  C   C2271     1.0  0.33032  0.78689  0.77047  1.0000
  C   C2272     1.0  0.34787  0.78789  0.75747  1.0000
  C   C2273     1.0  0.34881  0.80260  0.74099  1.0000
  C   C2274     1.0  0.31378  0.85499  0.71589  1.0000
  C   C2275     1.0  0.31633  0.87358  0.71486  1.0000
  C   C2276     1.0  0.30104  0.88944  0.71299  1.0000
  C   C2277     1.0  0.28313  0.88692  0.71206  1.0000
  C   C2278     1.0  0.28036  0.86851  0.71330  1.0000
  C   C2279     1.0  0.29568  0.85265  0.71498  1.0000
  H   H1803     1.0  0.33100  0.83767  0.64839  1.0000
  C   C2280     1.0  0.36083  0.82097  0.77802  1.0000
  H   H1804     1.0  0.33191  0.85138  0.67534  1.0000
  S   S309      1.0  0.26345  0.55829  0.82053  1.0000
  H   H1805     1.0  0.30158  0.82581  0.74811  1.0000
  H   H1806     1.0  0.30009  0.79980  0.77696  1.0000
  H   H1807     1.0  0.32955  0.77550  0.78323  1.0000
  H   H1808     1.0  0.36080  0.77729  0.76006  1.0000
  H   H1809     1.0  0.36238  0.80283  0.73070  1.0000
  H   H1810     1.0  0.33014  0.87615  0.71488  1.0000
  H   H1811     1.0  0.30315  0.90377  0.71192  1.0000
  H   H1812     1.0  0.27145  0.89930  0.71028  1.0000
  H   H1813     1.0  0.26640  0.86650  0.71273  1.0000
  H   H1814     1.0  0.29354  0.83858  0.71513  1.0000
  C   C2281     1.0  0.21004  0.88589  0.81469  1.0000
  C   C2282     1.0  0.20592  0.80756  0.64258  1.0000
  H   H1815     1.0  0.26886  0.91571  0.73571  1.0000
  C   C2283     1.0  0.36027  0.75134  0.80340  1.0000
  P   P75       1.0  0.31198  0.54057  0.70097  1.0000
  C   C2284     1.0  0.36447  0.79121  0.59601  1.0000
  H   H1816     1.0  0.34604  0.64726  0.88715  1.0000
  H   H1817     1.0  0.35482  0.53143  0.63826  1.0000
  H   H1818     1.0  0.35200  0.52941  0.70705  1.0000
  H   H1819     1.0  0.35153  0.87972  0.54738  1.0000
  C   C2285     1.0  0.25642  0.54068  0.88188  1.0000
  H   H1820     1.0  0.23747  0.87981  0.78243  1.0000
  C   C2286     1.0  0.22851  0.50140  0.82868  1.0000
  C   C2287     1.0  0.33381  0.80449  0.69858  1.0000
  H   H1821     1.0  0.28906  0.51033  0.80812  1.0000
  H   H1822     1.0  0.28247  0.89480  0.83679  1.0000
  H   H1823     1.0  0.22217  0.79597  0.67533  1.0000
  C   C2288     1.0  0.33093  0.82063  0.95794  1.0000
  H   H1824     1.0  0.19225  0.75946  0.59766  1.0000
  C   C2289     1.0  0.21657  0.54105  0.63315  1.0000
  C   C2290     1.0  0.20373  0.73383  0.64363  1.0000
  H   H1825     1.0  0.25744  0.93329  0.86731  1.0000
  H   H1826     1.0  0.23048  0.49878  0.88161  1.0000
  C   C2291     1.0  0.35085  0.95929  0.71669  1.0000
  H   H1827     1.0  0.32949  0.53444  0.76349  1.0000
  P   P76       1.0  0.20726  0.53675  0.86781  1.0000
  H   H1828     1.0  0.28889  0.73290  0.70858  1.0000
  C   C2292     1.0  0.20102  0.57776  0.67871  1.0000
  C   C2293     1.0  0.35410  0.53097  0.65331  1.0000
  H   H1829     1.0  0.38292  0.79803  0.65273  1.0000
  C   C2294     1.0  0.23817  0.48466  0.83918  1.0000
  H   H1830     1.0  0.34788  0.65122  0.54461  1.0000
  C   C2295     1.0  0.37105  0.52608  0.66039  1.0000
  C   C2296     1.0  0.30654  0.51225  0.73462  1.0000
  C   C2297     1.0  0.20233  0.93739  0.88577  1.0000
  C   C2298     1.0  0.31508  0.83392  0.95161  1.0000
  C   C2299     1.0  0.37682  0.75193  0.69170  1.0000
  C   C2300     1.0  0.27891  0.79705  0.59515  1.0000
  H   H1831     1.0  0.19886  0.73611  0.77436  1.0000
  C   C2301     1.0  0.19367  0.70901  0.69539  1.0000
  C   C2302     1.0  0.36015  0.48485  0.81574  1.0000
  C   C2303     1.0  0.29431  0.53221  0.69388  1.0000
  C   C2304     1.0  0.28081  0.93866  0.81384  1.0000
  C   C2305     1.0  0.21731  0.76776  0.62642  1.0000
  C   C2306     1.0  0.38471  0.74863  0.86721  1.0000
  C   C2307     1.0  0.22272  0.83949  0.62327  1.0000
  C   C2308     1.0  0.33515  0.53479  0.68516  1.0000
  H   H1832     1.0  0.38707  0.94375  0.75581  1.0000
  C   C2309     1.0  0.26144  0.96128  0.83395  1.0000
  H   H1833     1.0  0.36466  0.63775  0.48822  1.0000
  H   H1834     1.0  0.25618  0.51416  0.67879  1.0000
  C   C2310     1.0  0.22918  0.95097  0.86472  1.0000
  C   C2311     1.0  0.24200  0.93460  0.87223  1.0000
  C   C2312     1.0  0.23505  0.92004  0.88675  1.0000
  C   C2313     1.0  0.21522  0.92132  0.89340  1.0000
  H   H1835     1.0  0.20412  0.94370  0.74682  1.0000
  C   C2314     1.0  0.20927  0.95229  0.87167  1.0000
  H   H1836     1.0  0.21405  0.59760  0.82083  1.0000
  H   H1837     1.0  0.32087  0.74457  0.72611  1.0000
  C   C2315     1.0  0.29846  0.80132  0.56289  1.0000
  H   H1838     1.0  0.35515  0.75233  0.94448  1.0000
  C   C2316     1.0  0.33823  0.87449  0.55140  1.0000
  C   C2317     1.0  0.25417  0.89587  0.75819  1.0000
  C   C2318     1.0  0.27528  0.54279  0.69525  1.0000
  C   C2319     1.0  0.20271  0.84155  0.62730  1.0000
  C   C2320     1.0  0.20242  0.54562  0.79123  1.0000
  H   H1839     1.0  0.27184  0.53576  0.87737  1.0000
  H   H1840     1.0  0.30261  0.49026  0.76031  1.0000
  H   H1841     1.0  0.31931  0.81891  0.55708  1.0000
  C   C2321     1.0  0.28730  0.48137  0.80832  1.0000
  C   C2322     1.0  0.21653  0.86689  0.82406  1.0000
  H   H1842     1.0  0.30710  0.81473  0.63364  1.0000
  H   H1843     1.0  0.21322  0.57341  0.54934  1.0000
  H   H1844     1.0  0.37430  0.59786  0.80383  1.0000
  H   H1845     1.0  0.22307  0.49672  0.78141  1.0000
  H   H1846     1.0  0.26565  0.66766  0.78674  1.0000
  C   C2323     1.0  0.25710  0.89826  0.82568  1.0000
  C   C2324     1.0  0.29062  0.86106  0.61188  1.0000
  C   C2325     1.0  0.26118  0.91285  0.75051  1.0000
  C   C2326     1.0  0.22372  0.54246  0.87898  1.0000
  C   C2327     1.0  0.21985  0.77168  0.93173  1.0000
  Fe  Fe154     1.0  0.19108  0.66739  0.95079  1.0000
  H   H1847     1.0  0.37259  0.90751  0.72605  1.0000
  P   P77       1.0  0.34627  0.77408  0.83142  1.0000
  C   C2328     1.0  0.32158  0.78074  0.84365  1.0000
  C   C2329     1.0  0.22661  0.72023  0.54487  1.0000
  C   C2330     1.0  0.31692  0.79066  0.85877  1.0000
  C   C2331     1.0  0.29766  0.79647  0.86758  1.0000
  C   C2332     1.0  0.28295  0.79267  0.86120  1.0000
  C   C2333     1.0  0.28744  0.78331  0.84579  1.0000
  C   C2334     1.0  0.30669  0.77732  0.83707  1.0000
  C   C2335     1.0  0.20369  0.64081  0.49981  1.0000
  C   C2336     1.0  0.33696  0.80780  0.80413  1.0000
  C   C2337     1.0  0.34161  0.82148  0.78740  1.0000
  H   H1848     1.0  0.27316  0.69807  0.76621  1.0000
  H   H1849     1.0  0.30285  0.79779  0.54870  1.0000
  H   H1850     1.0  0.36088  0.80049  0.84499  1.0000
  C   C2338     1.0  0.28396  0.79333  0.57656  1.0000
  H   H1851     1.0  0.32803  0.79405  0.86378  1.0000
  H   H1852     1.0  0.29414  0.80414  0.87922  1.0000
  H   H1853     1.0  0.26803  0.79747  0.86786  1.0000
  H   H1854     1.0  0.27595  0.78132  0.84020  1.0000
  H   H1855     1.0  0.30992  0.77060  0.82480  1.0000
  H   H1856     1.0  0.32192  0.80832  0.81089  1.0000
  H   H1857     1.0  0.33024  0.83225  0.78156  1.0000
  C   C2339     1.0  0.25915  0.66694  0.82697  1.0000
  C   C2340     1.0  0.25919  0.64731  0.83376  1.0000
  C   C2341     1.0  0.27568  0.63463  0.83901  1.0000
  C   C2342     1.0  0.29196  0.64159  0.83799  1.0000
  C   C2343     1.0  0.29208  0.66126  0.83116  1.0000
  C   C2344     1.0  0.27561  0.67391  0.82548  1.0000
  P   P78       1.0  0.31235  0.67015  0.83230  1.0000
  C   C2345     1.0  0.31380  0.66391  0.85748  1.0000
  C   C2346     1.0  0.35096  0.66718  0.81424  1.0000
  C   C2347     1.0  0.33157  0.65730  0.86326  1.0000
  C   C2348     1.0  0.30832  0.69605  0.82416  1.0000
  C   C2349     1.0  0.30219  0.70838  0.83734  1.0000
  C   C2350     1.0  0.29919  0.72837  0.83074  1.0000
  C   C2351     1.0  0.30247  0.73620  0.81095  1.0000
  C   C2352     1.0  0.30878  0.72404  0.79775  1.0000
  C   C2353     1.0  0.31150  0.70405  0.80431  1.0000
  H   H1858     1.0  0.24627  0.67674  0.82308  1.0000
  H   H1859     1.0  0.24638  0.64188  0.83529  1.0000
  H   H1860     1.0  0.27571  0.61941  0.84431  1.0000
  H   H1861     1.0  0.30437  0.63163  0.84286  1.0000
  H   H1862     1.0  0.27528  0.68915  0.82031  1.0000
  H   H1863     1.0  0.35118  0.67723  0.82258  1.0000
  H   H1864     1.0  0.34497  0.65502  0.85290  1.0000
  H   H1865     1.0  0.29984  0.70270  0.85271  1.0000
  H   H1866     1.0  0.29448  0.73778  0.84100  1.0000
  H   H1867     1.0  0.30022  0.75169  0.80583  1.0000
  H   H1868     1.0  0.31168  0.73016  0.78242  1.0000
  H   H1869     1.0  0.31619  0.69479  0.79393  1.0000
  C   C2354     1.0  0.25728  0.75942  0.73940  1.0000
  H   H1870     1.0  0.20932  0.78168  0.93970  1.0000
  S   S310      1.0  0.19269  0.65323  0.92666  1.0000
  S   S311      1.0  0.19745  0.53549  0.74521  1.0000
  C   C2355     1.0  0.35797  0.71802  0.80919  1.0000
  C   C2356     1.0  0.35280  0.75628  0.95829  1.0000
  H   H1871     1.0  0.22345  0.50148  0.66915  1.0000
  C   C2357     1.0  0.29613  0.95851  0.82421  1.0000
  C   C2358     1.0  0.34663  0.96575  0.79245  1.0000
  C   C2359     1.0  0.36155  0.60877  0.84843  1.0000
  H   H1872     1.0  0.30082  0.83519  0.96071  1.0000
  H   H1873     1.0  0.25349  0.75477  0.52897  1.0000
  H   H1874     1.0  0.25020  0.94188  0.82410  1.0000
  C   C2360     1.0  0.20514  0.89662  0.74787  1.0000
  H   H1875     1.0  0.27113  0.86143  0.65936  1.0000
  H   H1876     1.0  0.32185  0.64112  0.80760  1.0000
  C   C2361     1.0  0.23204  0.62246  0.51215  1.0000
  H   H1877     1.0  0.33213  0.80258  0.65326  1.0000
  H   H1878     1.0  0.36882  0.83311  0.68413  1.0000
  S   S312      1.0  0.31013  0.55022  0.80165  1.0000
  H   H1879     1.0  0.33439  0.73732  0.84839  1.0000
  H   H1880     1.0  0.28424  0.66186  0.90204  1.0000
  H   H1881     1.0  0.31370  0.50594  0.68717  1.0000
  C   C2362     1.0  0.20432  0.72856  0.76250  1.0000
  H   H1882     1.0  0.23487  0.76408  0.50313  1.0000
  H   H1883     1.0  0.36617  0.70160  0.76662  1.0000
  P   P79       1.0  0.20197  0.60925  0.76098  1.0000
  C   C2363     1.0  0.20170  0.58451  0.77333  1.0000
  C   C2364     1.0  0.21640  0.60844  0.73704  1.0000
  C   C2365     1.0  0.19298  0.89040  0.80767  1.0000
  H   H1884     1.0  0.22172  0.72276  0.61902  1.0000
  C   C2366     1.0  0.23749  0.60791  0.69921  1.0000
  C   C2367     1.0  0.23858  0.62164  0.70879  1.0000
  C   C2368     1.0  0.22803  0.62197  0.72761  1.0000
  C   C2369     1.0  0.21721  0.57335  0.78187  1.0000
  C   C2370     1.0  0.21760  0.55400  0.79067  1.0000
  H   H1885     1.0  0.34758  0.75624  0.73065  1.0000
  H   H1886     1.0  0.37294  0.71625  0.90505  1.0000
  Fe  Fe155     1.0  0.23033  0.97281  0.72507  1.0000
  C   C2371     1.0  0.21192  0.62037  0.77443  1.0000
  C   C2372     1.0  0.19973  0.63210  0.78703  1.0000
  C   C2373     1.0  0.20733  0.63872  0.79913  1.0000
  C   C2374     1.0  0.22713  0.63380  0.79867  1.0000
  C   C2375     1.0  0.23938  0.62269  0.78577  1.0000
  C   C2376     1.0  0.23184  0.61616  0.77358  1.0000
  S   S313      1.0  0.29183  0.51002  0.84691  1.0000
  C   C2377     1.0  0.19917  0.91475  0.75296  1.0000
  H   H1887     1.0  0.23392  0.75272  0.60375  1.0000
  C   C2378     1.0  0.35262  0.92680  0.79154  1.0000
  H   H1888     1.0  0.21369  0.89022  0.85325  1.0000
  C   C2379     1.0  0.21337  0.78675  0.68565  1.0000
  H   H1889     1.0  0.24749  0.63212  0.70156  1.0000
  H   H1890     1.0  0.22875  0.63291  0.73467  1.0000
  H   H1891     1.0  0.22931  0.57929  0.78153  1.0000
  H   H1892     1.0  0.22989  0.54548  0.79677  1.0000
  H   H1893     1.0  0.37704  0.84861  0.79707  1.0000
  C   C2380     1.0  0.38123  0.78516  0.66364  1.0000
  C   C2381     1.0  0.28826  0.80888  0.60003  1.0000
  C   C2382     1.0  0.19431  0.82569  0.63694  1.0000
  S   S314      1.0  0.22398  0.97214  0.75669  1.0000
  H   H1894     1.0  0.23294  0.63816  0.80864  1.0000
  H   H1895     1.0  0.25468  0.61858  0.78559  1.0000
  H   H1896     1.0  0.24151  0.60721  0.76397  1.0000
  C   C2383     1.0  0.33231  0.80873  0.66511  1.0000
  C   C2384     1.0  0.19844  0.65098  0.51473  1.0000
  C   C2385     1.0  0.35165  0.79362  0.81161  1.0000
  C   C2386     1.0  0.37702  0.85664  0.72214  1.0000
  C   C2387     1.0  0.21667  0.55373  0.89313  1.0000
  H   H1897     1.0  0.30900  0.96275  0.82475  1.0000
  H   H1898     1.0  0.22481  0.55055  0.62232  1.0000
  H   H1899     1.0  0.29185  0.97716  0.87535  1.0000
  C   C2388     1.0  0.30763  0.57821  0.67909  1.0000
  H   H1900     1.0  0.38490  0.52275  0.65085  1.0000
  C   C2389     1.0  0.24320  0.89282  0.77695  1.0000
  C   C2390     1.0  0.29746  0.66093  0.89120  1.0000
  C   C2391     1.0  0.22368  0.75193  0.61743  1.0000
  C   C2392     1.0  0.36896  0.75559  0.67521  1.0000
  C   C2393     1.0  0.31469  0.68405  0.57450  1.0000
  H   H1901     1.0  0.32561  0.89514  0.52891  1.0000
  H   H1902     1.0  0.33148  0.66843  0.74715  1.0000
  H   H1903     1.0  0.26704  0.59061  0.90364  1.0000
  H   H1904     1.0  0.24443  0.96371  0.88800  1.0000
  H   H1905     1.0  0.34922  0.85174  0.73840  1.0000
  H   H1906     1.0  0.22920  0.85183  0.61610  1.0000
  C   C2394     1.0  0.29928  0.51467  0.68767  1.0000
  H   H1907     1.0  0.37060  0.73475  0.75034  1.0000
  H   H1908     1.0  0.28421  0.72725  0.76961  1.0000
  H   H1909     1.0  0.36617  0.76322  0.79384  1.0000
  H   H1910     1.0  0.29036  0.69290  0.71740  1.0000
  C   C2395     1.0  0.21906  0.51619  0.85671  1.0000
  H   H1911     1.0  0.20137  0.73357  0.57904  1.0000
  H   H1912     1.0  0.20340  0.93164  0.78330  1.0000
  P   P80       1.0  0.20441  0.74907  0.49694  1.0000
  H   H1913     1.0  0.37052  0.81879  0.62386  1.0000
  C   C2396     1.0  0.21883  0.51700  0.83743  1.0000
  C   C2397     1.0  0.38053  0.78309  0.86287  1.0000
  C   C2398     1.0  0.26289  0.94686  0.82395  1.0000
  H   H1914     1.0  0.30112  0.68388  0.68559  1.0000
  H   H1915     1.0  0.28279  0.67005  0.86765  1.0000
  C   C2399     1.0  0.21010  0.64729  0.52819  1.0000
  H   H1916     1.0  0.33348  0.78162  0.68538  1.0000
  C   C2400     1.0  0.22678  0.63277  0.52714  1.0000
  H   H1917     1.0  0.20588  0.76688  0.73365  1.0000
  C   C2401     1.0  0.33027  0.73517  0.73548  1.0000
  H   H1918     1.0  0.21685  0.71089  0.48841  1.0000
  C   C2402     1.0  0.37284  0.79717  0.60794  1.0000
  C   C2403     1.0  0.31272  0.65136  0.76787  1.0000
  C   C2404     1.0  0.23435  0.82152  0.62871  1.0000
  H   H1919     1.0  0.21154  0.52976  0.82896  1.0000
  C   C2405     1.0  0.24862  0.74887  0.67670  1.0000
  C   C2406     1.0  0.25236  0.74597  0.65794  1.0000
  C   C2407     1.0  0.24847  0.72965  0.65463  1.0000
  C   C2408     1.0  0.24071  0.71625  0.67004  1.0000
  C   C2409     1.0  0.23699  0.71897  0.68904  1.0000
  C   C2410     1.0  0.24090  0.73553  0.69220  1.0000
  P   P81       1.0  0.22762  0.70105  0.70887  1.0000
  C   C2411     1.0  0.20893  0.69458  0.70143  1.0000
  C   C2412     1.0  0.24647  0.68013  0.71381  1.0000
  C   C2413     1.0  0.24515  0.66844  0.73243  1.0000
  C   C2414     1.0  0.25964  0.65221  0.73641  1.0000
  C   C2415     1.0  0.27532  0.64729  0.72181  1.0000
  C   C2416     1.0  0.27652  0.65858  0.70318  1.0000
  C   C2417     1.0  0.26225  0.67500  0.69918  1.0000
  H   H1920     1.0  0.19664  0.50120  0.89391  1.0000
  C   C2418     1.0  0.24374  0.53634  0.87312  1.0000
  P   P82       1.0  0.19519  0.78714  0.65599  1.0000
  C   C2419     1.0  0.21094  0.57126  0.84137  1.0000
  C   C2420     1.0  0.21001  0.67546  0.70047  1.0000
  C   C2421     1.0  0.21829  0.71091  0.73047  1.0000
  C   C2422     1.0  0.23113  0.71477  0.73957  1.0000
  C   C2423     1.0  0.22414  0.72372  0.75540  1.0000
  S   S315      1.0  0.38148  0.88012  0.81236  1.0000
  C   C2424     1.0  0.37723  0.92624  0.74219  1.0000
  S   S316      1.0  0.19872  0.63527  0.60058  1.0000
  H   H1921     1.0  0.25171  0.76156  0.67917  1.0000
  H   H1922     1.0  0.25831  0.75636  0.64598  1.0000
  H   H1923     1.0  0.25160  0.72731  0.64008  1.0000
  H   H1924     1.0  0.23783  0.70370  0.66706  1.0000
  H   H1925     1.0  0.23789  0.73849  0.70644  1.0000
  H   H1926     1.0  0.23295  0.67185  0.74388  1.0000
  H   H1927     1.0  0.25874  0.64342  0.75083  1.0000
  H   H1928     1.0  0.28658  0.63476  0.72497  1.0000
  H   H1929     1.0  0.28870  0.65484  0.69181  1.0000
  H   H1930     1.0  0.26376  0.68363  0.68468  1.0000
  H   H1931     1.0  0.26305  0.93976  0.75574  1.0000
  C   C2425     1.0  0.18964  0.77155  0.50248  1.0000
  H   H1932     1.0  0.33934  0.68970  0.76267  1.0000
  C   C2426     1.0  0.37062  0.84005  0.69469  1.0000
  H   H1933     1.0  0.22177  0.66411  0.70468  1.0000
  H   H1934     1.0  0.24654  0.71150  0.73397  1.0000
  H   H1935     1.0  0.23401  0.72741  0.76189  1.0000
  H   H1936     1.0  0.34969  0.97857  0.68907  1.0000
  C   C2427     1.0  0.30261  0.81726  0.58633  1.0000
  H   H1937     1.0  0.26808  0.79041  0.60595  1.0000
  H   H1938     1.0  0.34084  0.79701  0.58195  1.0000
  C   C2428     1.0  0.37465  0.69022  0.89575  1.0000
  C   C2429     1.0  0.37249  0.60692  0.83008  1.0000
  C   C2430     1.0  0.28558  0.50826  0.68213  1.0000
  C   C2431     1.0  0.34660  0.82501  0.60967  1.0000
  C   C2432     1.0  0.36397  0.81416  0.61466  1.0000
  H   H1939     1.0  0.19194  0.49021  0.80151  1.0000
  H   H1940     1.0  0.29519  0.88314  0.53808  1.0000
  H   H1941     1.0  0.37530  0.73897  0.70255  1.0000
  C   C2433     1.0  0.26164  0.53634  0.68971  1.0000
  H   H1942     1.0  0.36204  0.70456  0.80434  1.0000
  C   C2434     1.0  0.30831  0.50315  0.75353  1.0000
  C   C2435     1.0  0.32504  0.88075  0.76246  1.0000
  C   C2436     1.0  0.34282  0.87858  0.76721  1.0000
  H   H1943     1.0  0.24553  0.60770  0.68458  1.0000
  H   H1944     1.0  0.31877  0.86830  0.76482  1.0000
  H   H1945     1.0  0.35031  0.86447  0.77341  1.0000
  C   C2437     1.0  0.26370  0.74997  0.75643  1.0000
  C   C2438     1.0  0.28811  0.72735  0.73933  1.0000
  C   C2439     1.0  0.27914  0.73412  0.75638  1.0000
  P   P83       1.0  0.30895  0.70769  0.73939  1.0000
  C   C2440     1.0  0.31702  0.70108  0.71614  1.0000
  H   H1946     1.0  0.20988  0.90993  0.90457  1.0000
  C   C2441     1.0  0.33561  0.70226  0.70516  1.0000
  C   C2442     1.0  0.21523  0.59484  0.72721  1.0000
  C   C2443     1.0  0.32922  0.68997  0.68036  1.0000
  C   C2444     1.0  0.31080  0.68864  0.69129  1.0000
  C   C2445     1.0  0.30473  0.69399  0.70917  1.0000
  C   C2446     1.0  0.30328  0.68589  0.75588  1.0000
  C   C2447     1.0  0.28455  0.68536  0.76685  1.0000
  C   C2448     1.0  0.28012  0.66804  0.77844  1.0000
  C   C2449     1.0  0.29425  0.65110  0.77915  1.0000
  H   H1947     1.0  0.25694  0.75524  0.76958  1.0000
  H   H1948     1.0  0.32912  0.69563  0.52559  1.0000
  C   C2450     1.0  0.31665  0.51108  0.76391  1.0000
  C   C2451     1.0  0.33224  0.65280  0.88283  1.0000
  C   C2452     1.0  0.29672  0.66550  0.87166  1.0000
  H   H1949     1.0  0.34263  0.70657  0.83742  1.0000
  C   C2453     1.0  0.34398  0.65060  0.53154  1.0000
  C   C2454     1.0  0.31645  0.68369  0.55502  1.0000
  H   H1950     1.0  0.37571  0.83922  0.87967  1.0000
  C   C2455     1.0  0.33418  0.66031  0.81672  1.0000
  C   C2456     1.0  0.26627  0.75296  0.72231  1.0000
  H   H1951     1.0  0.32930  0.49158  0.81896  1.0000
  H   H1952     1.0  0.24521  0.61161  0.51096  1.0000
  C   C2457     1.0  0.31522  0.65473  0.89680  1.0000
  H   H1953     1.0  0.28435  0.81124  0.61457  1.0000
  C   C2458     1.0  0.33318  0.79686  0.68324  1.0000
  C   C2459     1.0  0.35831  0.64361  0.51679  1.0000
  C   C2460     1.0  0.32755  0.69554  0.54070  1.0000
  H   H1954     1.0  0.30630  0.67528  0.58600  1.0000
  C   C2461     1.0  0.34953  0.75270  0.82204  1.0000
  H   H1955     1.0  0.31579  0.65104  0.91198  1.0000
  H   H1956     1.0  0.26175  0.76077  0.70898  1.0000
  H   H1957     1.0  0.20717  0.61984  0.64724  1.0000
  Fe  Fe156     1.0  0.20939  0.84709  0.76313  1.0000
  C   C2462     1.0  0.33694  0.70720  0.54576  1.0000
  C   C2463     1.0  0.23887  0.76647  0.93427  1.0000
  C   C2464     1.0  0.34265  0.73659  0.83400  1.0000
  C   C2465     1.0  0.36770  0.66077  0.80135  1.0000
  S   S317      1.0  0.21501  0.82706  0.74258  1.0000
  C   C2466     1.0  0.21578  0.78178  0.70475  1.0000
  H   H1958     1.0  0.28194  0.92772  0.80595  1.0000
  C   C2467     1.0  0.21601  0.51335  0.65967  1.0000
  C   C2468     1.0  0.32411  0.69576  0.57948  1.0000
  C   C2469     1.0  0.35078  0.89467  0.76436  1.0000
  H   H1959     1.0  0.34547  0.70778  0.70995  1.0000
  C   C2470     1.0  0.34088  0.91318  0.75699  1.0000
  H   H1960     1.0  0.24832  0.72678  0.55566  1.0000
  H   H1961     1.0  0.28942  0.49474  0.67734  1.0000
  C   C2471     1.0  0.23992  0.73096  0.54450  1.0000
  C   C2472     1.0  0.33538  0.70718  0.56514  1.0000
  H   H1962     1.0  0.32268  0.69600  0.59451  1.0000
  H   H1963     1.0  0.34533  0.71642  0.53463  1.0000
  C   C2473     1.0  0.37179  0.75135  0.85521  1.0000
  H   H1964     1.0  0.23321  0.60102  0.58314  1.0000
  C   C2474     1.0  0.21190  0.58418  0.59877  1.0000
  Fe  Fe157     1.0  0.20901  0.62711  0.94371  1.0000
  H   H1965     1.0  0.22620  0.78726  0.70880  1.0000
  C   C2475     1.0  0.33549  0.84392  0.92073  1.0000
  H   H1966     1.0  0.33068  0.64893  0.48421  1.0000
  C   C2476     1.0  0.28846  0.49605  0.81674  1.0000
  C   C2477     1.0  0.34350  0.60347  0.85431  1.0000
  C   C2478     1.0  0.32336  0.52809  0.75531  1.0000
  H   H1967     1.0  0.27084  0.55597  0.70070  1.0000
  H   H1968     1.0  0.29187  0.56643  0.72769  1.0000
  C   C2479     1.0  0.19802  0.59752  0.67068  1.0000
  H   H1969     1.0  0.34267  0.71623  0.56906  1.0000
  H   H1970     1.0  0.33448  0.79491  0.71243  1.0000
  C   C2480     1.0  0.19112  0.78903  0.48929  1.0000
  H   H1971     1.0  0.29087  0.63770  0.78826  1.0000
  C   C2481     1.0  0.36289  0.77007  0.84715  1.0000
  H   H1972     1.0  0.31134  0.93760  0.80675  1.0000
  H   H1973     1.0  0.33998  0.83821  0.61483  1.0000
  C   C2482     1.0  0.33785  0.81883  0.59810  1.0000
  H   H1974     1.0  0.36473  0.89262  0.76787  1.0000
  C   C2483     1.0  0.22071  0.62681  0.49818  1.0000
  H   H1975     1.0  0.22397  0.57037  0.84618  1.0000
  Fe  Fe158     1.0  0.29064  0.54080  0.82996  1.0000
  H   H1976     1.0  0.27704  0.78381  0.57287  1.0000
  C   C2484     1.0  0.36559  0.59948  0.81789  1.0000
  C   C2485     1.0  0.32187  0.53708  0.73630  1.0000
  H   H1977     1.0  0.27971  0.60131  0.72298  1.0000
  C   C2486     1.0  0.33623  0.53532  0.66561  1.0000
  C   C2487     1.0  0.27935  0.85602  0.64658  1.0000
  C   C2488     1.0  0.29466  0.57511  0.71335  1.0000
  C   C2489     1.0  0.21923  0.74093  0.51483  1.0000
  C   C2490     1.0  0.35987  0.85028  0.72527  1.0000
  S   S318      1.0  0.35605  0.73915  0.67308  1.0000
  C   C2491     1.0  0.18986  0.95336  0.82900  1.0000
  C   C2492     1.0  0.20846  0.69969  0.96120  1.0000
  Fe  Fe159     1.0  0.20728  0.80492  0.76934  1.0000
  C   C2493     1.0  0.28767  0.59500  0.71065  1.0000
  H   H1978     1.0  0.32716  0.55025  0.72989  1.0000
  C   C2494     1.0  0.34087  0.95376  0.73568  1.0000
  C   C2495     1.0  0.30475  0.56651  0.69765  1.0000
  C   C2496     1.0  0.22943  0.55825  0.90169  1.0000
  C   C2497     1.0  0.35839  0.72975  0.74913  1.0000
  C   C2498     1.0  0.20073  0.56837  0.57983  1.0000
  C   C2499     1.0  0.34711  0.80205  0.59102  1.0000
  S   S319      1.0  0.20398  0.66258  0.54472  1.0000
  C   C2500     1.0  0.33438  0.64695  0.80597  1.0000
  P   P84       1.0  0.35195  0.93373  0.75234  1.0000
  C   C2501     1.0  0.22358  0.92719  0.72671  1.0000
  C   C2502     1.0  0.29069  0.60654  0.69217  1.0000
  C   C2503     1.0  0.31740  0.84551  0.93307  1.0000
  C   C2504     1.0  0.37548  0.80723  0.78574  1.0000
  S   S320      1.0  0.19283  0.87802  0.76086  1.0000
  H   H1979     1.0  0.24699  0.54459  0.69087  1.0000
  H   H1980     1.0  0.28517  0.62193  0.69000  1.0000
  S   S321      1.0  0.22800  0.61517  0.47847  1.0000
  H   H1981     1.0  0.24517  0.90779  0.89282  1.0000
  C   C2505     1.0  0.30069  0.59815  0.67640  1.0000
  C   C2506     1.0  0.30062  0.84178  0.61356  1.0000
  H   H1982     1.0  0.34481  0.71154  0.93186  1.0000
  H   H1983     1.0  0.31494  0.57202  0.66662  1.0000
  H   H1984     1.0  0.33713  0.85254  0.90619  1.0000
  C   C2507     1.0  0.32284  0.91522  0.75253  1.0000
  H   H1985     1.0  0.22245  0.78081  0.61915  1.0000
  C   C2508     1.0  0.36750  0.78590  0.85100  1.0000
  C   C2509     1.0  0.35099  0.70099  0.92289  1.0000
  C   C2510     1.0  0.36678  0.67395  0.89926  1.0000
  H   H1986     1.0  0.30289  0.60709  0.66203  1.0000
  H   H1987     1.0  0.36440  0.83115  0.76475  1.0000
  C   C2511     1.0  0.20012  0.57232  0.59776  1.0000
  C   C2512     1.0  0.34067  0.70432  0.75581  1.0000
  C   C2513     1.0  0.34912  0.81931  0.94549  1.0000
  C   C2514     1.0  0.35134  0.83086  0.92694  1.0000
  H   H1988     1.0  0.20610  0.58446  0.73394  1.0000
  C   C2515     1.0  0.21686  0.73499  0.62602  1.0000
  C   C2516     1.0  0.36686  0.70367  0.90767  1.0000
  C   C2517     1.0  0.21440  0.76382  0.91904  1.0000
  C   C2518     1.0  0.28926  0.83687  0.64837  1.0000
  H   H1989     1.0  0.27764  0.97820  0.84137  1.0000
  C   C2519     1.0  0.31344  0.52923  0.72577  1.0000
  C   C2520     1.0  0.38663  0.76494  0.69428  1.0000
  H   H1990     1.0  0.25664  0.88529  0.74946  1.0000
  C   C2521     1.0  0.34752  0.59427  0.82370  1.0000
  H   H1991     1.0  0.22401  0.56723  0.91237  1.0000
  C   C2522     1.0  0.37093  0.79388  0.80266  1.0000
  H   H1992     1.0  0.33498  0.60479  0.86853  1.0000
  C   C2523     1.0  0.32793  0.73223  0.88764  1.0000
  C   C2524     1.0  0.28000  0.86811  0.62835  1.0000
  H   H1993     1.0  0.19707  0.65620  0.69249  1.0000
  C   C2525     1.0  0.20125  0.71385  0.49264  1.0000
  H   H1994     1.0  0.33367  0.68623  0.66626  1.0000
  H   H1995     1.0  0.24830  0.48499  0.71859  1.0000
  C   C2526     1.0  0.19982  0.55713  0.84946  1.0000
  C   C2527     1.0  0.19600  0.67090  0.69358  1.0000
  C   C2528     1.0  0.22624  0.52581  0.64538  1.0000
  H   H1996     1.0  0.24973  0.52834  0.86168  1.0000
  C   C2529     1.0  0.37013  0.52555  0.67979  1.0000
  H   H1997     1.0  0.20138  0.55925  0.89742  1.0000
  C   C2530     1.0  0.30780  0.81321  0.56773  1.0000
  S   S322      1.0  0.19575  0.69763  0.94477  1.0000
  H   H1998     1.0  0.36900  0.73876  0.85231  1.0000
  C   C2531     1.0  0.19948  0.78018  0.68036  1.0000
  H   H1999     1.0  0.38042  0.84671  0.84405  1.0000
  C   C2532     1.0  0.22582  0.59454  0.70844  1.0000
  C   C2533     1.0  0.19735  0.74959  0.65268  1.0000
  C   C2534     1.0  0.24927  0.55152  0.89624  1.0000
  H   H2000     1.0  0.19268  0.72388  0.69579  1.0000
  C   C2535     1.0  0.20257  0.93547  0.82886  1.0000
  H   H2001     1.0  0.38095  0.64213  0.78116  1.0000
  H   H2002     1.0  0.23530  0.79180  0.64243  1.0000
  C   C2536     1.0  0.24684  0.92353  0.78052  1.0000
  S   S323      1.0  0.21006  0.64231  0.96618  1.0000
  H   H2003     1.0  0.30509  0.85548  0.92809  1.0000
  H   H2004     1.0  0.36075  0.49888  0.81752  1.0000
  H   H2005     1.0  0.25914  0.55508  0.90285  1.0000
  H   H2006     1.0  0.22482  0.58398  0.70099  1.0000
  C   C2537     1.0  0.20427  0.76664  0.64433  1.0000
  H   H2007     1.0  0.27230  0.88298  0.62700  1.0000
  C   C2538     1.0  0.32777  0.71632  0.74432  1.0000
  H   H2008     1.0  0.32354  0.63809  0.76809  1.0000
  C   C2539     1.0  0.30651  0.87641  0.54615  1.0000
  H   H2009     1.0  0.22473  0.70776  0.55638  1.0000
  C   C2540     1.0  0.23053  0.71492  0.96878  1.0000
  H   H2010     1.0  0.38076  0.66579  0.79985  1.0000
  C   C2541     1.0  0.31721  0.66863  0.75620  1.0000
  H   H2011     1.0  0.37118  0.77793  0.59091  1.0000
  H   H2012     1.0  0.35584  0.69802  0.67874  1.0000
  C   C2542     1.0  0.20737  0.92728  0.81248  1.0000
  C   C2543     1.0  0.35113  0.64062  0.79302  1.0000
  H   H2013     1.0  0.38328  0.52181  0.68527  1.0000
  P   P85       1.0  0.22359  0.90417  0.81164  1.0000
  H   H2014     1.0  0.24394  0.93451  0.78889  1.0000
  H   H2015     1.0  0.28880  0.82753  0.66253  1.0000
  C   C2544     1.0  0.22604  0.80559  0.63815  1.0000
  S   S324      1.0  0.20527  0.48864  0.74838  1.0000
  H   H2016     1.0  0.22331  0.74444  0.89953  1.0000
  S   S325      1.0  0.32612  0.71767  0.48441  1.0000
  H   H2017     1.0  0.37975  0.86277  0.73288  1.0000
  C   C2545     1.0  0.35592  0.71105  0.75818  1.0000
  C   C2546     1.0  0.37137  0.77218  0.66109  1.0000
  H   H2018     1.0  0.37272  0.66350  0.89013  1.0000
  C   C2547     1.0  0.32364  0.88317  0.54098  1.0000
  H   H2019     1.0  0.29054  0.85595  0.56564  1.0000
  H   H2020     1.0  0.29099  0.87076  0.59798  1.0000
  H   H2021     1.0  0.37314  0.63888  0.51852  1.0000
  S   S326      1.0  0.37031  0.61684  0.86466  1.0000
  H   H2022     1.0  0.35530  0.91163  0.79156  1.0000
  C   C2548     1.0  0.20532  0.58679  0.82692  1.0000
  H   H2023     1.0  0.19364  0.85551  0.62318  1.0000
  C   C2549     1.0  0.34166  0.69662  0.68737  1.0000
  H   H2024     1.0  0.36548  0.77508  0.64832  1.0000
  C   C2550     1.0  0.29977  0.82973  0.63196  1.0000
  H   H2025     1.0  0.22887  0.50241  0.81363  1.0000
  C   C2551     1.0  0.34328  0.77493  0.96055  1.0000
  C   C2552     1.0  0.31854  0.85218  0.57229  1.0000
  S   S327      1.0  0.19989  0.68105  0.58818  1.0000
  C   C2553     1.0  0.36780  0.64748  0.79075  1.0000
  H   H2026     1.0  0.34890  0.95587  0.82228  1.0000
  C   C2554     1.0  0.30395  0.86098  0.56175  1.0000
  C   C2555     1.0  0.34545  0.74186  0.73797  1.0000
  H   H2027     1.0  0.33831  0.78512  0.94838  1.0000
  H   H2028     1.0  0.18804  0.71189  0.73203  1.0000
  C   C2556     1.0  0.20436  0.77028  0.71876  1.0000
  C   C2557     1.0  0.34716  0.96036  0.77533  1.0000
  H   H2029     1.0  0.23595  0.63001  0.53738  1.0000
  H   H2030     1.0  0.37317  0.73308  0.78287  1.0000
  H   H2031     1.0  0.31399  0.95998  0.75619  1.0000
  H   H2032     1.0  0.20598  0.71665  0.53081  1.0000
  H   H2033     1.0  0.19778  0.64713  0.80934  1.0000
  S   S328      1.0  0.19929  0.82544  0.78949  1.0000
  C   C2558     1.0  0.20561  0.85295  0.82720  1.0000
  S   S329      1.0  0.19234  0.78060  0.77242  1.0000
  C   C2559     1.0  0.19654  0.54386  0.63507  1.0000
  C   C2560     1.0  0.19606  0.51623  0.66188  1.0000
  C   C2561     1.0  0.34199  0.97446  0.70375  1.0000
  H   H2034     1.0  0.38642  0.61086  0.82541  1.0000
  H   H2035     1.0  0.21058  0.83838  0.83458  1.0000
  H   H2036     1.0  0.28698  0.48437  0.79321  1.0000
  H   H2037     1.0  0.18914  0.64293  0.73243  1.0000
  H   H2038     1.0  0.38248  0.78309  0.80818  1.0000
  Fe  Fe160     1.0  0.19027  0.66036  0.61513  1.0000
  C   C2562     1.0  0.35855  0.74253  0.97399  1.0000
  H   H2039     1.0  0.20860  0.92822  0.84145  1.0000
  H   H2040     1.0  0.38368  0.79544  0.86596  1.0000
  H   H2041     1.0  0.18817  0.50659  0.67309  1.0000
  C   C2563     1.0  0.19152  0.72405  0.75402  1.0000
  H   H2042     1.0  0.34576  0.97145  0.76252  1.0000
  H   H2043     1.0  0.19935  0.68693  0.48754  1.0000
  H   H2044     1.0  0.19171  0.55948  0.57849  1.0000
  C   C2564     1.0  0.23862  0.48372  0.85833  1.0000
  S   S330      1.0  0.38664  0.66505  0.84185  1.0000
  C   C2565     1.0  0.22227  0.48247  0.79015  1.0000
  C   C2566     1.0  0.31312  0.97881  0.72850  1.0000
  C   C2567     1.0  0.18854  0.85765  0.82041  1.0000
  H   H2045     1.0  0.30123  0.78355  0.97563  1.0000
  C   C2568     1.0  0.38784  0.84617  0.69173  1.0000
  C   C2569     1.0  0.18801  0.76874  0.69464  1.0000
  H   H2046     1.0  0.18793  0.90463  0.79975  1.0000
  S   S331      1.0  0.40267  0.20715  0.17501  1.0000
  C   C2570     1.0  0.58527  0.31427  0.98152  1.0000
  H   H2047     1.0  0.40845  0.28673  0.12503  1.0000
  Fe  Fe161     1.0  0.56358  0.13126  0.34274  1.0000
  S   S332      1.0  0.57839  0.13420  0.31160  1.0000
  S   S333      1.0  0.53082  0.13727  0.35184  1.0000
  H   H2048     1.0  0.40041  0.14069  0.23152  1.0000
  H   H2049     1.0  0.39098  0.17766  0.16603  1.0000
  C   C2571     1.0  0.39237  0.03922  0.17667  1.0000
  H   H2050     1.0  0.40356  0.04110  0.42102  1.0000
  H   H2051     1.0  0.50376  0.16560  0.45113  1.0000
  Fe  Fe162     1.0  0.56171  0.26430  0.25319  1.0000
  S   S334      1.0  0.55300  0.29441  0.23690  1.0000
  S   S335      1.0  0.55290  0.25346  0.28507  1.0000
  C   C2572     1.0  0.41036  0.09223  0.25770  1.0000
  C   C2573     1.0  0.40699  0.04043  0.43468  1.0000
  H   H2052     1.0  0.40606  0.23180  0.13604  1.0000
  H   H2053     1.0  0.47083  0.18899  0.35590  1.0000
  Fe  Fe163     1.0  0.54554  0.28031  0.21678  1.0000
  S   S336      1.0  0.51773  0.29256  0.20607  1.0000
  H   H2054     1.0  0.45829  0.21604  0.33151  1.0000
  S   S337      1.0  0.55185  0.25066  0.23462  1.0000
  H   H2055     1.0  0.42079  0.28222  0.33047  1.0000
  H   H2056     1.0  0.40182  0.11204  0.39312  1.0000
  C   C2574     1.0  0.41679  0.39370  0.20635  1.0000
  Fe  Fe164     1.0  0.44265  0.24429  0.19315  1.0000
  S   S338      1.0  0.42154  0.26692  0.20782  1.0000
  S   S339      1.0  0.47398  0.23357  0.19521  1.0000
  Fe  Fe165     1.0  0.41076  0.23181  0.18183  1.0000
  S   S340      1.0  0.58287  0.10306  0.35271  1.0000
  C   C2575     1.0  0.39943  0.05297  0.16115  1.0000
  Fe  Fe166     1.0  0.40814  0.27338  0.18193  1.0000
  C   C2576     1.0  0.52524  0.18483  0.32097  1.0000
  Fe  Fe167     1.0  0.40284  0.24497  0.21979  1.0000
  H   H2057     1.0  0.39886  0.21009  0.34351  1.0000
  S   S341      1.0  0.43060  0.25214  0.16620  1.0000
  S   S342      1.0  0.42512  0.22191  0.20713  1.0000
  C   C2577     1.0  0.51298  0.19870  0.30998  1.0000
  C   C2578     1.0  0.43601  0.24293  0.30964  1.0000
  C   C2579     1.0  0.56418  0.16004  0.26913  1.0000
  Fe  Fe168     1.0  0.44549  0.10904  0.32296  1.0000
  S   S343      1.0  0.43168  0.14033  0.31670  1.0000
  S   S344      1.0  0.47800  0.10021  0.32097  1.0000
  Fe  Fe169     1.0  0.40767  0.09676  0.32517  1.0000
  H   H2058     1.0  0.45752  0.15934  0.36597  1.0000
  C   C2580     1.0  0.41626  0.07340  0.08898  1.0000
  Fe  Fe170     1.0  0.41770  0.13247  0.29694  1.0000
  S   S345      1.0  0.41616  0.14725  0.26635  1.0000
  C   C2581     1.0  0.40199  0.18166  0.27840  1.0000
  H   H2059     1.0  0.39473  0.06595  0.36595  1.0000
  S   S346      1.0  0.43311  0.10163  0.30127  1.0000
  S   S347      1.0  0.42143  0.10078  0.34773  1.0000
  C   C2582     1.0  0.57077  0.19211  0.25805  1.0000
  H   H2060     1.0  0.46377  0.23628  0.29080  1.0000
  C   C2583     1.0  0.48741  0.17346  0.30227  1.0000
  H   H2061     1.0  0.43520  0.39817  0.22272  1.0000
  C   C2584     1.0  0.44821  0.27551  0.31137  1.0000
  C   C2585     1.0  0.41067  0.04576  0.28631  1.0000
  C   C2586     1.0  0.40896  0.05682  0.29992  1.0000
  C   C2587     1.0  0.42587  0.34348  0.15993  1.0000
  H   H2062     1.0  0.41956  0.18315  0.32626  1.0000
  C   C2588     1.0  0.50094  0.12293  0.16592  1.0000
  H   H2063     1.0  0.42481  0.03918  0.27925  1.0000
  H   H2064     1.0  0.42174  0.05863  0.30342  1.0000
  C   C2589     1.0  0.40237  0.22672  0.31407  1.0000
  C   C2590     1.0  0.39755  0.08434  0.08908  1.0000
  C   C2591     1.0  0.43012  0.27219  0.32177  1.0000
  H   H2065     1.0  0.39082  0.08653  0.07692  1.0000
  H   H2066     1.0  0.39170  0.20951  0.22825  1.0000
  C   C2592     1.0  0.40606  0.17192  0.26329  1.0000
  C   C2593     1.0  0.39895  0.27785  0.10377  1.0000
  H   H2067     1.0  0.41291  0.26917  0.09886  1.0000
  H   H2068     1.0  0.47733  0.24631  0.23979  1.0000
  C   C2594     1.0  0.52003  0.20622  0.42612  1.0000
  H   H2069     1.0  0.39944  0.22719  0.10596  1.0000
  H   H2070     1.0  0.42537  0.37961  0.20460  1.0000
  H   H2071     1.0  0.42488  0.06641  0.24695  1.0000
  H   H2072     1.0  0.45263  0.19122  0.15752  1.0000
  H   H2073     1.0  0.57836  0.34898  0.35699  1.0000
  C   C2595     1.0  0.39073  0.06473  0.30965  1.0000
  C   C2596     1.0  0.39778  0.07858  0.23804  1.0000
  H   H2074     1.0  0.39892  0.06708  0.23080  1.0000
  C   C2597     1.0  0.39393  0.10702  0.25864  1.0000
  C   C2598     1.0  0.40121  0.03226  0.19254  1.0000
  C   C2599     1.0  0.43710  0.21627  0.28508  1.0000
  H   H2075     1.0  0.53620  0.15052  0.43565  1.0000
  C   C2600     1.0  0.41610  0.03772  0.47016  1.0000
  C   C2601     1.0  0.43850  0.23131  0.26872  1.0000
  C   C2602     1.0  0.51198  0.10472  0.16354  1.0000
  P   P86       1.0  0.39711  0.08078  0.42701  1.0000
  H   H2076     1.0  0.47140  0.14272  0.28543  1.0000
  C   C2603     1.0  0.58282  0.30036  0.99855  1.0000
  C   C2604     1.0  0.43126  0.11475  0.38699  1.0000
  C   C2605     1.0  0.47899  0.16412  0.17854  1.0000
  H   H2077     1.0  0.46147  0.11390  0.38379  1.0000
  C   C2606     1.0  0.50593  0.27612  0.20255  1.0000
  C   C2607     1.0  0.51443  0.25653  0.20443  1.0000
  C   C2608     1.0  0.50461  0.24361  0.20190  1.0000
  C   C2609     1.0  0.48614  0.25019  0.19770  1.0000
  C   C2610     1.0  0.47761  0.26977  0.19581  1.0000
  C   C2611     1.0  0.48754  0.28272  0.19813  1.0000
  H   H2078     1.0  0.52852  0.25136  0.20791  1.0000
  H   H2079     1.0  0.51121  0.22845  0.20356  1.0000
  H   H2080     1.0  0.46339  0.27497  0.19250  1.0000
  H   H2081     1.0  0.48088  0.29786  0.19669  1.0000
  H   H2082     1.0  0.49001  0.22662  0.34320  1.0000
  H   H2083     1.0  0.41484  0.15038  0.15794  1.0000
  C   C2612     1.0  0.39432  0.42956  0.21241  1.0000
  C   C2613     1.0  0.39607  0.09008  0.12051  1.0000
  C   C2614     1.0  0.39419  0.04301  0.28195  1.0000
  C   C2615     1.0  0.56874  0.23149  0.29105  1.0000
  C   C2616     1.0  0.56164  0.21498  0.30135  1.0000
  C   C2617     1.0  0.57438  0.19701  0.30430  1.0000
  C   C2618     1.0  0.53844  0.19777  0.41722  1.0000
  C   C2619     1.0  0.39866  0.20511  0.15309  1.0000
  H   H2084     1.0  0.54630  0.21599  0.30642  1.0000
  H   H2085     1.0  0.56889  0.18414  0.31168  1.0000
  C   C2620     1.0  0.51636  0.12719  0.34273  1.0000
  C   C2621     1.0  0.52448  0.11441  0.33018  1.0000
  C   C2622     1.0  0.51251  0.10631  0.32369  1.0000
  C   C2623     1.0  0.49233  0.11107  0.32942  1.0000
  C   C2624     1.0  0.48420  0.12395  0.34188  1.0000
  C   C2625     1.0  0.49619  0.13195  0.34848  1.0000
  H   H2086     1.0  0.53999  0.11049  0.32575  1.0000
  H   H2087     1.0  0.51893  0.09612  0.31434  1.0000
  H   H2088     1.0  0.46871  0.12759  0.34653  1.0000
  H   H2089     1.0  0.48990  0.14170  0.35827  1.0000
  H   H2090     1.0  0.40494  0.17463  0.23367  1.0000
  H   H2091     1.0  0.42534  0.16980  0.17580  1.0000
  C   C2626     1.0  0.47723  0.15986  0.30217  1.0000
  H   H2092     1.0  0.58483  0.28085  0.27130  1.0000
  H   H2093     1.0  0.49324  0.20119  0.44522  1.0000
  H   H2094     1.0  0.48975  0.27331  0.24309  1.0000
  S   S348      1.0  0.39362  0.15139  0.36136  1.0000
  H   H2095     1.0  0.39468  0.42633  0.16177  1.0000
  H   H2096     1.0  0.47598  0.08224  0.16628  1.0000
  H   H2097     1.0  0.54879  0.15213  0.38722  1.0000
  H   H2098     1.0  0.46820  0.15381  0.31535  1.0000
  H   H2099     1.0  0.44203  0.20987  0.12769  1.0000
  C   C2627     1.0  0.57713  0.17220  0.26004  1.0000
  C   C2628     1.0  0.49075  0.16131  0.26820  1.0000
  H   H2100     1.0  0.45641  0.11429  0.17041  1.0000
  C   C2629     1.0  0.41760  0.11996  0.16967  1.0000
  H   H2101     1.0  0.53548  0.15793  0.28442  1.0000
  H   H2102     1.0  0.57420  0.36840  0.32462  1.0000
  H   H2103     1.0  0.48631  0.17746  0.31575  1.0000
  H   H2104     1.0  0.41120  0.06987  0.38945  1.0000
  H   H2105     1.0  0.57000  0.30362  0.15217  1.0000
  H   H2106     1.0  0.47431  0.26511  0.29224  1.0000
  H   H2107     1.0  0.41993  0.08948  0.17742  1.0000
  C   C2630     1.0  0.50751  0.19464  0.43829  1.0000
  H   H2108     1.0  0.50821  0.13395  0.16595  1.0000
  C   C2631     1.0  0.42485  0.05206  0.17705  1.0000
  Fe  Fe171     1.0  0.58310  0.28932  0.21901  1.0000
  C   C2632     1.0  0.55608  0.12142  0.39481  1.0000
  H   H2109     1.0  0.56903  0.14458  0.27096  1.0000
  H   H2110     1.0  0.49208  0.15646  0.25508  1.0000
  H   H2111     1.0  0.51256  0.26733  0.26473  1.0000
  C   C2633     1.0  0.54790  0.18507  0.19575  1.0000
  H   H2112     1.0  0.51013  0.18069  0.25494  1.0000
  C   C2634     1.0  0.45839  0.15430  0.13492  1.0000
  H   H2113     1.0  0.46057  0.12281  0.20847  1.0000
  C   C2635     1.0  0.46027  0.26253  0.30023  1.0000
  H   H2114     1.0  0.40465  0.17385  0.29245  1.0000
  H   H2115     1.0  0.39195  0.05838  0.14931  1.0000
  C   C2636     1.0  0.47420  0.16761  0.19735  1.0000
  H   H2116     1.0  0.41534  0.43013  0.22785  1.0000
  C   C2637     1.0  0.45118  0.09314  0.40854  1.0000
  C   C2638     1.0  0.45881  0.16359  0.14927  1.0000
  C   C2639     1.0  0.41764  0.02100  0.46366  1.0000
  C   C2640     1.0  0.41576  0.05954  0.16120  1.0000
  H   H2117     1.0  0.39264  0.11766  0.26699  1.0000
  C   C2641     1.0  0.50086  0.17505  0.26818  1.0000
  H   H2118     1.0  0.40888  0.06863  0.46421  1.0000
  C   C2642     1.0  0.42405  0.25592  0.32099  1.0000
  C   C2643     1.0  0.44671  0.13193  0.20660  1.0000
  C   C2644     1.0  0.42232  0.40410  0.21679  1.0000
  C   C2645     1.0  0.56391  0.19954  0.35500  1.0000
  H   H2119     1.0  0.54777  0.11950  0.38546  1.0000
  H   H2120     1.0  0.42132  0.09146  0.26549  1.0000
  C   C2646     1.0  0.48297  0.09362  0.16608  1.0000
  H   H2121     1.0  0.42961  0.12609  0.37436  1.0000
  H   H2122     1.0  0.49034  0.22435  0.31022  1.0000
  C   C2647     1.0  0.55157  0.19987  0.26543  1.0000
  C   C2648     1.0  0.56815  0.12315  0.24031  1.0000
  C   C2649     1.0  0.43020  0.37847  0.16494  1.0000
  C   C2650     1.0  0.49805  0.18748  0.18862  1.0000
  H   H2123     1.0  0.54484  0.17098  0.19759  1.0000
  C   C2651     1.0  0.44608  0.18503  0.11553  1.0000
  C   C2652     1.0  0.39243  0.23905  0.30005  1.0000
  H   H2124     1.0  0.58078  0.20162  0.25114  1.0000
  C   C2653     1.0  0.57395  0.18089  0.38474  1.0000
  H   H2125     1.0  0.45929  0.09533  0.12682  1.0000
  H   H2126     1.0  0.43940  0.06228  0.10425  1.0000
  C   C2654     1.0  0.41113  0.42207  0.21973  1.0000
  S   S349      1.0  0.58119  0.14895  0.34943  1.0000
  C   C2655     1.0  0.50009  0.21362  0.31826  1.0000
  C   C2656     1.0  0.44568  0.36670  0.15498  1.0000
  C   C2657     1.0  0.44677  0.19438  0.12959  1.0000
  C   C2658     1.0  0.41547  0.10672  0.39771  1.0000
  C   C2659     1.0  0.39176  0.21907  0.33209  1.0000
  P   P87       1.0  0.42584  0.07650  0.14080  1.0000
  C   C2660     1.0  0.47858  0.04023  0.13168  1.0000
  H   H2127     1.0  0.51159  0.07596  0.16190  1.0000
  C   C2661     1.0  0.51955  0.25239  0.11543  1.0000
  C   C2662     1.0  0.50251  0.24734  0.12701  1.0000
  C   C2663     1.0  0.50231  0.23700  0.14591  1.0000
  C   C2664     1.0  0.51916  0.23158  0.15326  1.0000
  C   C2665     1.0  0.53649  0.23612  0.14155  1.0000
  C   C2666     1.0  0.53643  0.24697  0.12272  1.0000
  P   P88       1.0  0.55822  0.23027  0.15098  1.0000
  C   C2667     1.0  0.56253  0.25323  0.15157  1.0000
  C   C2668     1.0  0.55486  0.21515  0.17482  1.0000
  C   C2669     1.0  0.55642  0.22121  0.19088  1.0000
  C   C2670     1.0  0.55336  0.20942  0.20927  1.0000
  C   C2671     1.0  0.54903  0.19141  0.21174  1.0000
  Fe  Fe172     1.0  0.58185  0.24882  0.21711  1.0000
  C   C2672     1.0  0.55088  0.19685  0.17734  1.0000
  C   C2673     1.0  0.58548  0.16673  0.42282  1.0000
  C   C2674     1.0  0.40531  0.05730  0.44116  1.0000
  S   S350      1.0  0.39148  0.12737  0.31946  1.0000
  C   C2675     1.0  0.54986  0.28490  0.15951  1.0000
  C   C2676     1.0  0.54717  0.26677  0.15944  1.0000
  C   C2677     1.0  0.57601  0.21108  0.12034  1.0000
  H   H2128     1.0  0.56882  0.13233  0.22612  1.0000
  C   C2678     1.0  0.53184  0.16609  0.43276  1.0000
  C   C2679     1.0  0.39228  0.21196  0.25666  1.0000
  S   S351      1.0  0.57490  0.27752  0.19743  1.0000
  C   C2680     1.0  0.39088  0.20006  0.11929  1.0000
  H   H2129     1.0  0.51961  0.26076  0.10090  1.0000
  H   H2130     1.0  0.48933  0.25176  0.12150  1.0000
  H   H2131     1.0  0.48896  0.23355  0.15507  1.0000
  H   H2132     1.0  0.51837  0.22431  0.16819  1.0000
  H   H2133     1.0  0.54944  0.25137  0.11375  1.0000
  H   H2134     1.0  0.56015  0.23494  0.18936  1.0000
  H   H2135     1.0  0.55473  0.21417  0.22156  1.0000
  C   C2681     1.0  0.55681  0.13996  0.39579  1.0000
  H   H2136     1.0  0.55003  0.19176  0.16505  1.0000
  C   C2682     1.0  0.43796  0.16952  0.34647  1.0000
  C   C2683     1.0  0.41038  0.35520  0.16988  1.0000
  H   H2137     1.0  0.51549  0.22177  0.42365  1.0000
  H   H2138     1.0  0.53797  0.29515  0.16588  1.0000
  H   H2139     1.0  0.53306  0.26337  0.16552  1.0000
  H   H2140     1.0  0.56215  0.21436  0.11640  1.0000
  C   C2684     1.0  0.41744  0.03868  0.19276  1.0000
  C   C2685     1.0  0.43805  0.20171  0.32677  1.0000
  H   H2141     1.0  0.55288  0.20550  0.34647  1.0000
  C   C2686     1.0  0.45423  0.24628  0.29937  1.0000
  C   C2687     1.0  0.42120  0.11647  0.13178  1.0000
  H   H2142     1.0  0.43943  0.18534  0.29454  1.0000
  C   C2688     1.0  0.49137  0.05280  0.12548  1.0000
  C   C2689     1.0  0.40210  0.18203  0.24532  1.0000
  C   C2690     1.0  0.49982  0.21493  0.33701  1.0000
  H   H2143     1.0  0.41752  0.14739  0.12454  1.0000
  C   C2691     1.0  0.52502  0.18627  0.33967  1.0000
  H   H2144     1.0  0.47960  0.18236  0.21664  1.0000
  H   H2145     1.0  0.54694  0.18229  0.22601  1.0000
  C   C2692     1.0  0.40134  0.21902  0.13607  1.0000
  H   H2146     1.0  0.53473  0.17562  0.34793  1.0000
  C   C2693     1.0  0.44355  0.34914  0.15260  1.0000
  H   H2147     1.0  0.46264  0.13883  0.13670  1.0000
  H   H2148     1.0  0.48405  0.02485  0.13290  1.0000
  C   C2694     1.0  0.39560  0.07267  0.39249  1.0000
  C   C2695     1.0  0.48430  0.07263  0.12379  1.0000
  H   H2149     1.0  0.42420  0.03325  0.20516  1.0000
  C   C2696     1.0  0.45225  0.17111  0.35498  1.0000
  H   H2150     1.0  0.50675  0.04717  0.12186  1.0000
  P   P89       1.0  0.46617  0.15000  0.17145  1.0000
  C   C2697     1.0  0.48080  0.12661  0.16835  1.0000
  C   C2698     1.0  0.44108  0.19724  0.28245  1.0000
  C   C2699     1.0  0.45201  0.16502  0.11814  1.0000
  C   C2700     1.0  0.42170  0.09991  0.14662  1.0000
  H   H2151     1.0  0.41576  0.12140  0.18441  1.0000
  H   H2152     1.0  0.50494  0.19695  0.19243  1.0000
  C   C2701     1.0  0.41739  0.09179  0.41396  1.0000
  C   C2702     1.0  0.42700  0.15836  0.18826  1.0000
  H   H2153     1.0  0.49421  0.08239  0.11884  1.0000
  H   H2154     1.0  0.44899  0.03753  0.14092  1.0000
  H   H2155     1.0  0.54504  0.18643  0.37956  1.0000
  C   C2703     1.0  0.54501  0.16773  0.27667  1.0000
  H   H2156     1.0  0.51383  0.19070  0.15922  1.0000
  C   C2704     1.0  0.47902  0.15363  0.28524  1.0000
  H   H2157     1.0  0.43224  0.15652  0.35086  1.0000
  H   H2158     1.0  0.43740  0.07358  0.43172  1.0000
  H   H2159     1.0  0.45933  0.37119  0.14908  1.0000
  H   H2160     1.0  0.45139  0.15782  0.10722  1.0000
  H   H2161     1.0  0.43481  0.24619  0.27017  1.0000
  H   H2162     1.0  0.45555  0.33996  0.14498  1.0000
  H   H2163     1.0  0.43198  0.39217  0.16639  1.0000
  H   H2164     1.0  0.41006  0.25350  0.32929  1.0000
  C   C2705     1.0  0.45295  0.18373  0.14646  1.0000
  H   H2165     1.0  0.52258  0.23474  0.28333  1.0000
  C   C2706     1.0  0.56789  0.14260  0.40754  1.0000
  H   H2166     1.0  0.49712  0.17024  0.15020  1.0000
  C   C2707     1.0  0.48372  0.17925  0.20230  1.0000
  H   H2167     1.0  0.54807  0.20692  0.40797  1.0000
  H   H2168     1.0  0.45291  0.28814  0.31195  1.0000
  C   C2708     1.0  0.39647  0.28767  0.11850  1.0000
  C   C2709     1.0  0.41089  0.15606  0.20304  1.0000
  P   P90       1.0  0.42843  0.22163  0.30901  1.0000
  C   C2710     1.0  0.50301  0.09008  0.16362  1.0000
  P   P91       1.0  0.39259  0.38769  0.18572  1.0000
  H   H2169     1.0  0.39674  0.35064  0.17523  1.0000
  C   C2711     1.0  0.56790  0.28968  0.15174  1.0000
  C   C2712     1.0  0.43538  0.08512  0.41936  1.0000
  C   C2713     1.0  0.41269  0.14181  0.21965  1.0000
  C   C2714     1.0  0.44433  0.22730  0.25020  1.0000
  C   C2715     1.0  0.44849  0.20833  0.24780  1.0000
  C   C2716     1.0  0.44670  0.19333  0.26389  1.0000
  H   H2170     1.0  0.53509  0.17292  0.31519  1.0000
  C   C2717     1.0  0.46444  0.07992  0.12835  1.0000
  H   H2171     1.0  0.43210  0.11937  0.23474  1.0000
  C   C2718     1.0  0.56639  0.10534  0.40553  1.0000
  C   C2719     1.0  0.45872  0.04746  0.13625  1.0000
  H   H2172     1.0  0.44524  0.23893  0.23761  1.0000
  H   H2173     1.0  0.45264  0.20534  0.23342  1.0000
  H   H2174     1.0  0.44905  0.17868  0.26201  1.0000
  C   C2720     1.0  0.44915  0.10790  0.39232  1.0000
  C   C2721     1.0  0.42491  0.07078  0.10466  1.0000
  C   C2722     1.0  0.41698  0.13632  0.15482  1.0000
  H   H2175     1.0  0.40016  0.24523  0.28606  1.0000
  H   H2176     1.0  0.42242  0.11547  0.11702  1.0000
  H   H2177     1.0  0.43765  0.05662  0.17731  1.0000
  H   H2178     1.0  0.54730  0.21525  0.26418  1.0000
  S   S352      1.0  0.39830  0.30348  0.16605  1.0000
  C   C2723     1.0  0.57824  0.21669  0.13644  1.0000
  H   H2179     1.0  0.44070  0.19329  0.10274  1.0000
  C   C2724     1.0  0.40020  0.40140  0.19849  1.0000
  C   C2725     1.0  0.55011  0.12242  0.25259  1.0000
  C   C2726     1.0  0.54880  0.11043  0.27092  1.0000
  C   C2727     1.0  0.56549  0.09886  0.27682  1.0000
  C   C2728     1.0  0.41312  0.02236  0.44591  1.0000
  C   C2729     1.0  0.42002  0.10180  0.16561  1.0000
  C   C2730     1.0  0.45251  0.20315  0.33539  1.0000
  H   H2180     1.0  0.39717  0.16589  0.20191  1.0000
  C   C2731     1.0  0.49345  0.17245  0.16486  1.0000
  H   H2181     1.0  0.46510  0.08778  0.41259  1.0000
  H   H2182     1.0  0.46284  0.16184  0.20815  1.0000
  C   C2732     1.0  0.51232  0.20126  0.34771  1.0000
  C   C2733     1.0  0.41487  0.07919  0.12055  1.0000
  C   C2734     1.0  0.43059  0.12980  0.22146  1.0000
  S   S353      1.0  0.39678  0.02856  0.26528  1.0000
  H   H2183     1.0  0.53711  0.13111  0.24796  1.0000
  H   H2184     1.0  0.53486  0.10995  0.28052  1.0000
  H   H2185     1.0  0.56458  0.08946  0.29100  1.0000
  H   H2186     1.0  0.48734  0.21351  0.25792  1.0000
  C   C2735     1.0  0.58061  0.25823  0.14360  1.0000
  C   C2736     1.0  0.54442  0.17762  0.42036  1.0000
  C   C2737     1.0  0.41239  0.07816  0.24722  1.0000
  C   C2738     1.0  0.50296  0.18404  0.16991  1.0000
  C   C2739     1.0  0.47191  0.11179  0.16846  1.0000
  H   H2187     1.0  0.52752  0.10192  0.16174  1.0000
  C   C2740     1.0  0.57757  0.12631  0.41889  1.0000
  H   H2188     1.0  0.51218  0.20224  0.36223  1.0000
  H   H2189     1.0  0.40051  0.34930  0.21061  1.0000
  C   C2741     1.0  0.44502  0.14631  0.18990  1.0000
  C   C2742     1.0  0.45151  0.06736  0.13471  1.0000
  C   C2743     1.0  0.53851  0.18776  0.27481  1.0000
  C   C2744     1.0  0.41865  0.13460  0.13592  1.0000
  C   C2745     1.0  0.50679  0.25558  0.26359  1.0000
  C   C2746     1.0  0.49398  0.25893  0.25139  1.0000
  C   C2747     1.0  0.48702  0.24367  0.24953  1.0000
  C   C2748     1.0  0.49296  0.22499  0.25972  1.0000
  C   C2749     1.0  0.50582  0.22150  0.27209  1.0000
  C   C2750     1.0  0.51259  0.23701  0.27398  1.0000
  P   P92       1.0  0.51391  0.19749  0.28543  1.0000
  C   C2751     1.0  0.49931  0.18119  0.28525  1.0000
  Fe  Fe173     1.0  0.40679  0.13180  0.34011  1.0000
  C   C2752     1.0  0.43088  0.18468  0.33243  1.0000
  C   C2753     1.0  0.45961  0.18788  0.34938  1.0000
  H   H2190     1.0  0.56860  0.30031  0.00766  1.0000
  H   H2191     1.0  0.42405  0.06697  0.07671  1.0000
  C   C2754     1.0  0.41259  0.37255  0.17289  1.0000
  C   C2755     1.0  0.39482  0.20189  0.24217  1.0000
  H   H2192     1.0  0.39536  0.02197  0.20472  1.0000
  H   H2193     1.0  0.58269  0.31520  0.25515  1.0000
  C   C2756     1.0  0.41002  0.05580  0.45895  1.0000
  H   H2194     1.0  0.57296  0.32502  0.97746  1.0000
  C   C2757     1.0  0.55958  0.18871  0.37372  1.0000
  C   C2758     1.0  0.51342  0.17459  0.44162  1.0000
  C   C2759     1.0  0.57701  0.10779  0.41766  1.0000
  P   P93       1.0  0.56826  0.16675  0.40895  1.0000
  H   H2195     1.0  0.56628  0.09100  0.40428  1.0000
  C   C2760     1.0  0.58327  0.27633  0.14385  1.0000
  C   C2761     1.0  0.38917  0.18588  0.13613  1.0000
  C   C2762     1.0  0.39769  0.21634  0.11907  1.0000
  H   H2196     1.0  0.56564  0.18550  0.44108  1.0000
  C   C2763     1.0  0.58014  0.17733  0.43751  1.0000
  C   C2764     1.0  0.58552  0.35557  0.32593  1.0000
  H   H2197     1.0  0.41434  0.00939  0.44087  1.0000
  H   H2198     1.0  0.42412  0.32996  0.15791  1.0000
  C   C2765     1.0  0.39510  0.20171  0.27505  1.0000
  H   H2199     1.0  0.39273  0.20920  0.28651  1.0000
  C   C2766     1.0  0.38877  0.41921  0.20199  1.0000
  H   H2200     1.0  0.42230  0.00700  0.47240  1.0000
  C   C2767     1.0  0.58503  0.11204  0.24644  1.0000
  C   C2768     1.0  0.58348  0.09944  0.26451  1.0000
  C   C2769     1.0  0.39281  0.18852  0.15296  1.0000
  H   H2201     1.0  0.58601  0.21071  0.33245  1.0000
  C   C2770     1.0  0.58261  0.20248  0.34702  1.0000
  H   H2202     1.0  0.58571  0.12767  0.42862  1.0000
  H   H2203     1.0  0.58519  0.09531  0.42581  1.0000
  C   C2771     1.0  0.58785  0.34461  0.34416  1.0000
  S   S354      1.0  0.38823  0.07611  0.32880  1.0000
  H   H2204     1.0  0.38806  0.09662  0.13258  1.0000
  C   C2772     1.0  0.40551  0.05040  0.73783  1.0000
  S   S355      1.0  0.56995  0.21979  0.86092  1.0000
  S   S356      1.0  0.57415  0.11613  0.76573  1.0000
  H   H2205     1.0  0.46109  0.10444  0.92953  1.0000
  C   C2773     1.0  0.39988  0.21636  0.94459  1.0000
  C   C2774     1.0  0.38949  0.09518  0.86770  1.0000
  H   H2206     1.0  0.46757  0.10580  0.96063  1.0000
  C   C2775     1.0  0.39408  0.01184  0.67989  1.0000
  Fe  Fe174     1.0  0.55651  0.25097  0.85979  1.0000
  S   S357      1.0  0.52441  0.26321  0.86306  1.0000
  H   H2207     1.0  0.50675  0.24890  0.77251  1.0000
  H   H2208     1.0  0.40856  0.00314  0.67803  1.0000
  C   C2776     1.0  0.39031  0.04497  0.73378  1.0000
  Fe  Fe175     1.0  0.58389  0.13933  0.77335  1.0000
  Fe  Fe176     1.0  0.56948  0.13787  0.73849  1.0000
  S   S358      1.0  0.54303  0.14931  0.72490  1.0000
  C   C2777     1.0  0.38854  0.07226  0.70689  1.0000
  Fe  Fe177     1.0  0.40570  0.24655  0.85668  1.0000
  Fe  Fe178     1.0  0.44137  0.24901  0.82472  1.0000
  S   S359      1.0  0.42409  0.26538  0.80195  1.0000
  S   S360      1.0  0.47385  0.23849  0.81871  1.0000
  Fe  Fe179     1.0  0.40690  0.28228  0.82471  1.0000
  Fe  Fe180     1.0  0.40415  0.24467  0.81625  1.0000
  C   C2778     1.0  0.57117  0.32302  0.87679  1.0000
  S   S361      1.0  0.42552  0.26726  0.84640  1.0000
  S   S362      1.0  0.42293  0.22679  0.83693  1.0000
  Fe  Fe181     1.0  0.39506  0.14139  0.75041  1.0000
  H   H2209     1.0  0.57388  0.14582  0.69256  1.0000
  H   H2210     1.0  0.58410  0.43290  0.81268  1.0000
  Fe  Fe182     1.0  0.43905  0.13448  0.73607  1.0000
  S   S363      1.0  0.43670  0.15519  0.70783  1.0000
  S   S364      1.0  0.46638  0.11647  0.74599  1.0000
  Fe  Fe183     1.0  0.41415  0.17409  0.72616  1.0000
  S   S365      1.0  0.41359  0.20545  0.72391  1.0000
  Fe  Fe184     1.0  0.41201  0.14207  0.70778  1.0000
  S   S366      1.0  0.40849  0.13034  0.68332  1.0000
  S   S367      1.0  0.41807  0.15421  0.75429  1.0000
  S   S368      1.0  0.41629  0.11973  0.73464  1.0000
  C   C2779     1.0  0.38797  0.20827  0.77944  1.0000
  H   H2211     1.0  0.58521  0.07662  0.67082  1.0000
  S   S369      1.0  0.57729  0.16138  0.74738  1.0000
  C   C2780     1.0  0.45523  0.13612  0.95816  1.0000
  S   S370      1.0  0.57464  0.14681  0.80264  1.0000
  C   C2781     1.0  0.46061  0.11872  0.95188  1.0000
  C   C2782     1.0  0.39623  0.10747  0.81190  1.0000
  C   C2783     1.0  0.57752  0.33510  0.85938  1.0000
  H   H2212     1.0  0.39276  0.10071  0.76424  1.0000
  C   C2784     1.0  0.51816  0.15627  0.67475  1.0000
  H   H2213     1.0  0.39769  0.02340  0.70246  1.0000
  C   C2785     1.0  0.57148  0.10428  0.62191  1.0000
  H   H2214     1.0  0.56460  0.22904  0.80167  1.0000
  C   C2786     1.0  0.39540  0.22257  0.78284  1.0000
  H   H2215     1.0  0.40035  0.16262  0.94856  1.0000
  C   C2787     1.0  0.39370  0.20281  0.76150  1.0000
  C   C2788     1.0  0.40636  0.21216  0.74654  1.0000
  C   C2789     1.0  0.41343  0.22685  0.74973  1.0000
  C   C2790     1.0  0.40822  0.23182  0.76796  1.0000
  C   C2791     1.0  0.58228  0.16719  0.80379  1.0000
  H   H2216     1.0  0.42570  0.37501  0.78113  1.0000
  H   H2217     1.0  0.42314  0.23418  0.73814  1.0000
  H   H2218     1.0  0.41372  0.24310  0.77040  1.0000
  H   H2219     1.0  0.58464  0.09332  0.86434  1.0000
  C   C2792     1.0  0.39286  0.41662  0.78667  1.0000
  H   H2220     1.0  0.43713  0.09660  0.77854  1.0000
  C   C2793     1.0  0.57411  0.10458  0.65420  1.0000
  H   H2221     1.0  0.58500  0.17235  0.88657  1.0000
  H   H2222     1.0  0.51952  0.19735  0.80876  1.0000
  S   S371      1.0  0.57806  0.26173  0.83389  1.0000
  C   C2794     1.0  0.57402  0.17598  0.81965  1.0000
  H   H2223     1.0  0.41953  0.03668  0.48396  1.0000
  H   H2224     1.0  0.56249  0.12955  0.63419  1.0000
  H   H2225     1.0  0.50110  0.11491  0.69174  1.0000
  C   C2795     1.0  0.52157  0.14033  0.73195  1.0000
  C   C2796     1.0  0.50552  0.15110  0.72417  1.0000
  C   C2797     1.0  0.48838  0.14416  0.72871  1.0000
  C   C2798     1.0  0.48738  0.12608  0.74064  1.0000
  C   C2799     1.0  0.50348  0.11529  0.74843  1.0000
  C   C2800     1.0  0.52036  0.12256  0.74445  1.0000
  H   H2226     1.0  0.50632  0.16492  0.71455  1.0000
  H   H2227     1.0  0.47607  0.15267  0.72272  1.0000
  H   H2228     1.0  0.50302  0.10116  0.75744  1.0000
  H   H2229     1.0  0.53257  0.11423  0.75066  1.0000
  H   H2230     1.0  0.53398  0.16985  0.76003  1.0000
  H   H2231     1.0  0.57403  0.19824  0.83365  1.0000
  C   C2801     1.0  0.52411  0.25708  0.78713  1.0000
  H   H2232     1.0  0.55812  0.37603  0.85293  1.0000
  C   C2802     1.0  0.51962  0.24438  0.77847  1.0000
  C   C2803     1.0  0.49817  0.22934  0.74452  1.0000
  C   C2804     1.0  0.56094  0.21255  0.74032  1.0000
  C   C2805     1.0  0.51050  0.25567  0.85114  1.0000
  C   C2806     1.0  0.51818  0.24046  0.84137  1.0000
  C   C2807     1.0  0.50673  0.23516  0.83170  1.0000
  C   C2808     1.0  0.48759  0.24503  0.83163  1.0000
  C   C2809     1.0  0.47986  0.26001  0.84167  1.0000
  C   C2810     1.0  0.49124  0.26525  0.85142  1.0000
  H   H2233     1.0  0.53299  0.23294  0.84108  1.0000
  H   H2234     1.0  0.51287  0.22360  0.82397  1.0000
  H   H2235     1.0  0.46526  0.26790  0.84158  1.0000
  H   H2236     1.0  0.48519  0.27701  0.85896  1.0000
  C   C2811     1.0  0.40019  0.17774  0.94702  1.0000
  H   H2237     1.0  0.56489  0.21827  0.75055  1.0000
  H   H2238     1.0  0.45801  0.13670  0.97179  1.0000
  H   H2239     1.0  0.39066  0.47376  0.81323  1.0000
  H   H2240     1.0  0.55976  0.08859  0.74286  1.0000
  H   H2241     1.0  0.52525  0.19510  0.73299  1.0000
  C   C2812     1.0  0.53142  0.22599  0.77803  1.0000
  C   C2813     1.0  0.53069  0.16933  0.77535  1.0000
  H   H2242     1.0  0.57217  0.31342  0.90687  1.0000
  C   C2814     1.0  0.57719  0.10262  0.69470  1.0000
  H   H2243     1.0  0.55673  0.20621  0.78678  1.0000
  H   H2244     1.0  0.54365  0.26128  0.80238  1.0000
  H   H2245     1.0  0.51002  0.23272  0.73281  1.0000
  C   C2815     1.0  0.40020  0.16438  0.90479  1.0000
  H   H2246     1.0  0.40111  0.36152  0.80764  1.0000
  C   C2816     1.0  0.39899  0.37698  0.80204  1.0000
  H   H2247     1.0  0.40740  0.12163  0.78311  1.0000
  H   H2248     1.0  0.44248  0.06774  0.80463  1.0000
  H   H2249     1.0  0.58141  0.07679  0.61346  1.0000
  S   S372      1.0  0.38946  0.16288  0.72352  1.0000
  H   H2250     1.0  0.44911  0.23886  0.75458  1.0000
  C   C2817     1.0  0.46372  0.23311  0.75676  1.0000
  H   H2251     1.0  0.53387  0.13852  0.78204  1.0000
  C   C2818     1.0  0.56403  0.10117  0.71246  1.0000
  H   H2252     1.0  0.39121  0.16734  0.91832  1.0000
  H   H2253     1.0  0.41204  0.04200  0.74989  1.0000
  C   C2819     1.0  0.42967  0.07893  0.80678  1.0000
  H   H2254     1.0  0.57309  0.33453  0.84660  1.0000
  C   C2820     1.0  0.57934  0.08452  0.62482  1.0000
  S   S373      1.0  0.39439  0.23516  0.88799  1.0000
  C   C2821     1.0  0.58441  0.13611  0.66560  1.0000
  H   H2255     1.0  0.39031  0.43179  0.77999  1.0000
  H   H2256     1.0  0.52765  0.13605  0.81739  1.0000
  C   C2822     1.0  0.54041  0.25158  0.79532  1.0000
  H   H2257     1.0  0.41873  0.06454  0.83550  1.0000
  C   C2823     1.0  0.54303  0.20723  0.74413  1.0000
  C   C2824     1.0  0.40384  0.07754  0.71089  1.0000
  C   C2825     1.0  0.58339  0.14764  0.67851  1.0000
  H   H2258     1.0  0.53604  0.10086  0.68708  1.0000
  C   C2826     1.0  0.55213  0.40667  0.84287  1.0000
  C   C2827     1.0  0.53876  0.19963  0.73036  1.0000
  H   H2259     1.0  0.56244  0.31303  0.87710  1.0000
  H   H2260     1.0  0.40008  0.23116  0.94389  1.0000
  C   C2828     1.0  0.48583  0.21516  0.77772  1.0000
  C   C2829     1.0  0.41279  0.38457  0.78701  1.0000
  C   C2830     1.0  0.55218  0.19723  0.71327  1.0000
  C   C2831     1.0  0.57432  0.21010  0.72322  1.0000
  H   H2261     1.0  0.58056  0.20018  0.69672  1.0000
  S   S374      1.0  0.57241  0.25355  0.88111  1.0000
  C   C2832     1.0  0.41615  0.07714  0.82419  1.0000
  H   H2262     1.0  0.40914  0.09014  0.70196  1.0000
  C   C2833     1.0  0.53121  0.11636  0.68366  1.0000
  C   C2834     1.0  0.55212  0.23328  0.79509  1.0000
  H   H2263     1.0  0.40505  0.11061  0.90736  1.0000
  H   H2264     1.0  0.48956  0.15022  0.68366  1.0000
  C   C2835     1.0  0.45696  0.11796  0.93435  1.0000
  C   C2836     1.0  0.52689  0.15004  0.80777  1.0000
  H   H2265     1.0  0.52088  0.16558  0.83054  1.0000
  C   C2837     1.0  0.50160  0.21816  0.76248  1.0000
  H   H2266     1.0  0.56236  0.17081  0.83050  1.0000
  H   H2267     1.0  0.42020  0.41014  0.76727  1.0000
  C   C2838     1.0  0.40816  0.09843  0.86469  1.0000
  H   H2268     1.0  0.39615  0.11093  0.66089  1.0000
  C   C2839     1.0  0.52312  0.16665  0.81517  1.0000
  C   C2840     1.0  0.39417  0.18075  0.82946  1.0000
  C   C2841     1.0  0.56405  0.38830  0.84421  1.0000
  C   C2842     1.0  0.39370  0.15838  0.81062  1.0000
  C   C2843     1.0  0.41385  0.15380  0.80661  1.0000
  C   C2844     1.0  0.42436  0.16261  0.81407  1.0000
  C   C2845     1.0  0.41431  0.17644  0.82522  1.0000
  P   P94       1.0  0.45043  0.15635  0.80837  1.0000
  C   C2846     1.0  0.46161  0.16321  0.82419  1.0000
  C   C2847     1.0  0.45667  0.13051  0.81057  1.0000
  C   C2848     1.0  0.45162  0.11843  0.82854  1.0000
  C   C2849     1.0  0.45723  0.09840  0.83067  1.0000
  C   C2850     1.0  0.46715  0.09031  0.81471  1.0000
  C   C2851     1.0  0.47125  0.10222  0.79660  1.0000
  C   C2852     1.0  0.46615  0.12225  0.79449  1.0000
  C   C2853     1.0  0.45915  0.18274  0.82438  1.0000
  C   C2854     1.0  0.46754  0.18827  0.83660  1.0000
  C   C2855     1.0  0.47895  0.17449  0.84829  1.0000
  C   C2856     1.0  0.48218  0.15507  0.84764  1.0000
  C   C2857     1.0  0.47374  0.14944  0.83550  1.0000
  C   C2858     1.0  0.45969  0.16840  0.78426  1.0000
  C   C2859     1.0  0.44734  0.17921  0.77174  1.0000
  C   C2860     1.0  0.45502  0.18788  0.75292  1.0000
  C   C2861     1.0  0.47490  0.18607  0.74657  1.0000
  C   C2862     1.0  0.48722  0.17547  0.75898  1.0000
  C   C2863     1.0  0.47968  0.16671  0.77778  1.0000
  C   C2864     1.0  0.53058  0.15140  0.78786  1.0000
  C   C2865     1.0  0.39232  0.15800  0.89273  1.0000
  H   H2269     1.0  0.42385  0.07110  0.72968  1.0000
  H   H2270     1.0  0.42128  0.14365  0.79737  1.0000
  H   H2271     1.0  0.42172  0.18402  0.83077  1.0000
  H   H2272     1.0  0.44374  0.12453  0.84096  1.0000
  H   H2273     1.0  0.45388  0.08911  0.84465  1.0000
  H   H2274     1.0  0.47139  0.07481  0.81626  1.0000
  H   H2275     1.0  0.47824  0.09594  0.78408  1.0000
  H   H2276     1.0  0.46948  0.13114  0.78027  1.0000
  H   H2277     1.0  0.45077  0.19376  0.81506  1.0000
  H   H2278     1.0  0.46531  0.20333  0.83688  1.0000
  H   H2279     1.0  0.48560  0.17898  0.85752  1.0000
  H   H2280     1.0  0.49155  0.14442  0.85627  1.0000
  H   H2281     1.0  0.47716  0.13441  0.83478  1.0000
  H   H2282     1.0  0.43185  0.18093  0.77626  1.0000
  H   H2283     1.0  0.44559  0.19585  0.74311  1.0000
  H   H2284     1.0  0.48076  0.19267  0.73193  1.0000
  H   H2285     1.0  0.50262  0.17368  0.75382  1.0000
  H   H2286     1.0  0.48946  0.15835  0.78714  1.0000
  H   H2287     1.0  0.51304  0.17173  0.67151  1.0000
  C   C2866     1.0  0.40344  0.15399  0.87513  1.0000
  C   C2867     1.0  0.57676  0.32316  0.89354  1.0000
  H   H2288     1.0  0.54788  0.15814  0.66725  1.0000
  H   H2289     1.0  0.47672  0.24501  0.72772  1.0000
  H   H2290     1.0  0.42821  0.10641  0.87663  1.0000
  C   C2868     1.0  0.41379  0.10395  0.87895  1.0000
  P   P95       1.0  0.52589  0.20955  0.76664  1.0000
  C   C2869     1.0  0.58336  0.38591  0.83430  1.0000
  H   H2291     1.0  0.45487  0.22045  0.78668  1.0000
  C   C2870     1.0  0.52677  0.18614  0.78265  1.0000
  H   H2292     1.0  0.39720  0.14917  0.86582  1.0000
  H   H2293     1.0  0.39317  0.25709  0.91805  1.0000
  H   H2294     1.0  0.55012  0.43697  0.83060  1.0000
  C   C2871     1.0  0.55937  0.42274  0.83158  1.0000
  H   H2295     1.0  0.39382  0.26835  0.94706  1.0000
  C   C2872     1.0  0.40079  0.10634  0.89625  1.0000
  C   C2873     1.0  0.54758  0.22044  0.78665  1.0000
  C   C2874     1.0  0.47930  0.23654  0.74163  1.0000
  C   C2875     1.0  0.41218  0.06676  0.72647  1.0000
  C   C2876     1.0  0.57851  0.42045  0.82150  1.0000
  H   H2296     1.0  0.38802  0.19163  0.75913  1.0000
  H   H2297     1.0  0.54932  0.10915  0.71359  1.0000
  H   H2298     1.0  0.44512  0.13362  0.90963  1.0000
  H   H2299     1.0  0.42194  0.21436  0.91921  1.0000
  H   H2300     1.0  0.53726  0.40843  0.85060  1.0000
  P   P96       1.0  0.57009  0.11781  0.67296  1.0000
  C   C2877     1.0  0.52278  0.18465  0.80270  1.0000
  H   H2301     1.0  0.54897  0.19074  0.70309  1.0000
  C   C2878     1.0  0.42665  0.09512  0.79207  1.0000
  C   C2879     1.0  0.51144  0.12423  0.68610  1.0000
  C   C2880     1.0  0.40997  0.10935  0.79468  1.0000
  C   C2881     1.0  0.58163  0.08464  0.65717  1.0000
  C   C2882     1.0  0.58079  0.19143  0.82156  1.0000
  H   H2302     1.0  0.56741  0.11186  0.60831  1.0000
  C   C2883     1.0  0.50491  0.14416  0.68154  1.0000
  C   C2884     1.0  0.40969  0.40436  0.77926  1.0000
  C   C2885     1.0  0.42255  0.15622  0.86963  1.0000
  C   C2886     1.0  0.43041  0.16281  0.88150  1.0000
  C   C2887     1.0  0.41927  0.16706  0.89917  1.0000
  C   C2888     1.0  0.58434  0.07470  0.64247  1.0000
  P   P97       1.0  0.43038  0.17372  0.91512  1.0000
  C   C2889     1.0  0.44232  0.15213  0.92935  1.0000
  C   C2890     1.0  0.44763  0.18820  0.90071  1.0000
  C   C2891     1.0  0.46575  0.18542  0.90525  1.0000
  C   C2892     1.0  0.47862  0.19727  0.89446  1.0000
  C   C2893     1.0  0.47348  0.21200  0.87915  1.0000
  C   C2894     1.0  0.45555  0.21480  0.87449  1.0000
  C   C2895     1.0  0.44269  0.20290  0.88513  1.0000
  C   C2896     1.0  0.44614  0.15278  0.94695  1.0000
  C   C2897     1.0  0.56996  0.20244  0.70972  1.0000
  C   C2898     1.0  0.46698  0.22258  0.77483  1.0000
  H   H2303     1.0  0.38920  0.44151  0.81035  1.0000
  C   C2899     1.0  0.44786  0.13459  0.92309  1.0000
  C   C2900     1.0  0.41277  0.18715  0.93178  1.0000
  C   C2901     1.0  0.53795  0.14846  0.67251  1.0000
  C   C2902     1.0  0.56994  0.08964  0.72918  1.0000
  H   H2304     1.0  0.48801  0.20746  0.79198  1.0000
  H   H2305     1.0  0.41831  0.09684  0.85135  1.0000
  C   C2903     1.0  0.41248  0.20660  0.93069  1.0000
  H   H2306     1.0  0.51463  0.27100  0.78796  1.0000
  C   C2904     1.0  0.54462  0.12842  0.67707  1.0000
  H   H2307     1.0  0.43124  0.15297  0.85610  1.0000
  H   H2308     1.0  0.44525  0.16443  0.87699  1.0000
  C   C2905     1.0  0.56876  0.11425  0.63658  1.0000
  H   H2309     1.0  0.46997  0.17430  0.91721  1.0000
  H   H2310     1.0  0.49253  0.19525  0.89808  1.0000
  H   H2311     1.0  0.48336  0.22136  0.87098  1.0000
  H   H2312     1.0  0.45158  0.22636  0.86267  1.0000
  H   H2313     1.0  0.42875  0.20542  0.88144  1.0000
  H   H2314     1.0  0.44207  0.16615  0.95204  1.0000
  S   S375      1.0  0.39749  0.31455  0.82170  1.0000
  C   C2906     1.0  0.39921  0.09134  0.82680  1.0000
  H   H2315     1.0  0.58760  0.37953  0.79808  1.0000
  H   H2316     1.0  0.58729  0.36529  0.77127  1.0000
  H   H2317     1.0  0.53537  0.80170  0.18460  1.0000
  H   H2318     1.0  0.46893  0.60439  0.15246  1.0000
  S   S376      1.0  0.55564  0.74582  0.33836  1.0000
  H   H2319     1.0  0.40613  0.66960  0.00442  1.0000
  C   C2907     1.0  0.40788  0.67241  0.26875  1.0000
  C   C2908     1.0  0.41078  0.81053  0.36580  1.0000
  H   H2320     1.0  0.41759  0.51839  0.26909  1.0000
  H   H2321     1.0  0.44118  0.75852  0.37535  1.0000
  H   H2322     1.0  0.45360  0.70382  0.24438  1.0000
  H   H2323     1.0  0.41482  0.83453  0.32068  1.0000
  C   C2909     1.0  0.39727  0.80390  0.29517  1.0000
  C   C2910     1.0  0.43838  0.60568  0.16164  1.0000
  S   S377      1.0  0.56311  0.65647  0.23636  1.0000
  Fe  Fe185     1.0  0.39566  0.63314  0.20777  1.0000
  Fe  Fe186     1.0  0.55634  0.63207  0.22820  1.0000
  S   S378      1.0  0.52512  0.63037  0.23912  1.0000
  Fe  Fe187     1.0  0.45987  0.73307  0.31473  1.0000
  S   S379      1.0  0.44278  0.71122  0.31579  1.0000
  S   S380      1.0  0.49259  0.72284  0.30787  1.0000
  Fe  Fe188     1.0  0.42391  0.76527  0.31620  1.0000
  Fe  Fe189     1.0  0.42076  0.72493  0.33850  1.0000
  Fe  Fe190     1.0  0.42778  0.73400  0.29469  1.0000
  S   S381      1.0  0.41892  0.73079  0.26878  1.0000
  S   S382      1.0  0.43876  0.74514  0.33943  1.0000
  S   S383      1.0  0.44633  0.75493  0.29169  1.0000
  Fe  Fe191     1.0  0.43739  0.63698  0.20161  1.0000
  S   S384      1.0  0.41828  0.62049  0.22572  1.0000
  S   S385      1.0  0.46857  0.62451  0.18996  1.0000
  C   C2911     1.0  0.44756  0.57721  0.19367  1.0000
  H   H2324     1.0  0.54964  0.73248  0.13331  1.0000
  C   C2912     1.0  0.53386  0.79076  0.19772  1.0000
  Fe  Fe192     1.0  0.40835  0.64824  0.23648  1.0000
  H   H2325     1.0  0.40265  0.82519  0.36358  1.0000
  H   H2326     1.0  0.57131  0.66881  0.46545  1.0000
  H   H2327     1.0  0.40379  0.70036  0.08296  1.0000
  S   S386      1.0  0.42901  0.66383  0.21351  1.0000
  S   S387      1.0  0.41565  0.64737  0.18261  1.0000
  C   C2913     1.0  0.57305  0.77858  0.38364  1.0000
  S   S388      1.0  0.57528  0.63679  0.19869  1.0000
  C   C2914     1.0  0.47352  0.66636  0.28664  1.0000
  C   C2915     1.0  0.43247  0.83349  0.29245  1.0000
  C   C2916     1.0  0.40078  0.67655  0.04984  1.0000
  C   C2917     1.0  0.39910  0.67366  0.01814  1.0000
  C   C2918     1.0  0.46253  0.65309  0.32838  1.0000
  H   H2328     1.0  0.58295  0.79448  0.22377  1.0000
  H   H2329     1.0  0.55153  0.63730  0.30452  1.0000
  H   H2330     1.0  0.42685  0.54634  0.19892  1.0000
  H   H2331     1.0  0.53958  0.67736  0.13358  1.0000
  H   H2332     1.0  0.55607  0.72089  0.38009  1.0000
  H   H2333     1.0  0.44711  0.83592  0.26271  1.0000
  C   C2919     1.0  0.58068  0.69503  0.11492  1.0000
  C   C2920     1.0  0.42485  0.54059  0.21429  1.0000
  S   S389      1.0  0.57878  0.60984  0.24204  1.0000
  H   H2334     1.0  0.47405  0.58127  0.32624  1.0000
  H   H2335     1.0  0.50739  0.59851  0.26951  1.0000
  H   H2336     1.0  0.43085  0.89532  0.26791  1.0000
  C   C2921     1.0  0.56567  0.70742  0.37758  1.0000
  H   H2337     1.0  0.50206  0.63126  0.27517  1.0000
  C   C2922     1.0  0.43566  0.54463  0.22546  1.0000
  H   H2338     1.0  0.46314  0.64605  0.27699  1.0000
  C   C2923     1.0  0.41384  0.70850  0.26953  1.0000
  C   C2924     1.0  0.41508  0.69338  0.28564  1.0000
  C   C2925     1.0  0.41204  0.67533  0.28527  1.0000
  H   H2339     1.0  0.39209  0.66927  0.42905  1.0000
  C   C2926     1.0  0.55270  0.71556  0.43043  1.0000
  H   H2340     1.0  0.48434  0.53471  0.23404  1.0000
  H   H2341     1.0  0.41856  0.69561  0.29822  1.0000
  C   C2927     1.0  0.45761  0.59848  0.16322  1.0000
  Fe  Fe193     1.0  0.40533  0.67270  0.19691  1.0000
  H   H2342     1.0  0.40228  0.68583  0.24038  1.0000
  C   C2928     1.0  0.51000  0.62876  0.22485  1.0000
  C   C2929     1.0  0.49005  0.63353  0.23159  1.0000
  C   C2930     1.0  0.47730  0.63211  0.22101  1.0000
  C   C2931     1.0  0.48445  0.62558  0.20374  1.0000
  C   C2932     1.0  0.50445  0.62023  0.19723  1.0000
  C   C2933     1.0  0.51726  0.62206  0.20766  1.0000
  H   H2343     1.0  0.48443  0.63847  0.24499  1.0000
  H   H2344     1.0  0.46194  0.63587  0.22634  1.0000
  H   H2345     1.0  0.51001  0.61507  0.18391  1.0000
  H   H2346     1.0  0.53267  0.61815  0.20254  1.0000
  H   H2347     1.0  0.45187  0.66957  0.24958  1.0000
  C   C2934     1.0  0.40793  0.86831  0.27990  1.0000
  C   C2935     1.0  0.56616  0.68192  0.45571  1.0000
  H   H2348     1.0  0.57330  0.67827  0.26123  1.0000
  C   C2936     1.0  0.40519  0.85929  0.29950  1.0000
  C   C2937     1.0  0.57144  0.70490  0.42535  1.0000
  C   C2938     1.0  0.46510  0.66065  0.27440  1.0000
  C   C2939     1.0  0.53830  0.73974  0.32935  1.0000
  C   C2940     1.0  0.54371  0.72796  0.31580  1.0000
  C   C2941     1.0  0.52953  0.72308  0.30927  1.0000
  C   C2942     1.0  0.50981  0.72994  0.31615  1.0000
  C   C2943     1.0  0.50438  0.74180  0.32962  1.0000
  C   C2944     1.0  0.51858  0.74660  0.33624  1.0000
  H   H2349     1.0  0.55882  0.72244  0.31055  1.0000
  H   H2350     1.0  0.53386  0.71379  0.29895  1.0000
  H   H2351     1.0  0.48926  0.74710  0.33508  1.0000
  H   H2352     1.0  0.51427  0.75565  0.34677  1.0000
  H   H2353     1.0  0.48737  0.57239  0.21611  1.0000
  C   C2945     1.0  0.47717  0.61086  0.31832  1.0000
  C   C2946     1.0  0.49538  0.52338  0.18301  1.0000
  C   C2947     1.0  0.41267  0.77639  0.37877  1.0000
  C   C2948     1.0  0.40151  0.79510  0.37507  1.0000
  H   H2354     1.0  0.48777  0.67886  0.32391  1.0000
  C   C2949     1.0  0.46371  0.59253  0.25472  1.0000
  H   H2355     1.0  0.46938  0.54405  0.17870  1.0000
  C   C2950     1.0  0.49101  0.58772  0.29753  1.0000
  H   H2356     1.0  0.42829  0.57554  0.24665  1.0000
  C   C2951     1.0  0.58184  0.69995  0.38614  1.0000
  C   C2952     1.0  0.46728  0.69919  0.26833  1.0000
  H   H2357     1.0  0.52646  0.71791  0.45206  1.0000
  C   C2953     1.0  0.42345  0.86003  0.26674  1.0000
  C   C2954     1.0  0.45960  0.69329  0.25583  1.0000
  C   C2955     1.0  0.54765  0.69282  0.46085  1.0000
  C   C2956     1.0  0.47579  0.57610  0.22796  1.0000
  H   H2358     1.0  0.58231  0.78576  0.28612  1.0000
  C   C2957     1.0  0.51663  0.78420  0.20494  1.0000
  H   H2359     1.0  0.44005  0.66769  0.31235  1.0000
  C   C2958     1.0  0.43558  0.84261  0.27300  1.0000
  H   H2360     1.0  0.46867  0.61406  0.33196  1.0000
  C   C2959     1.0  0.42845  0.92556  0.26517  1.0000
  C   C2960     1.0  0.39318  0.71546  0.38403  1.0000
  H   H2361     1.0  0.49263  0.59022  0.23780  1.0000
  H   H2362     1.0  0.38858  0.66375  0.34586  1.0000
  S   S390      1.0  0.40565  0.64948  0.26753  1.0000
  C   C2961     1.0  0.41741  0.84192  0.30571  1.0000
  H   H2363     1.0  0.49334  0.57332  0.29502  1.0000
  H   H2364     1.0  0.43368  0.59396  0.26785  1.0000
  C   C2962     1.0  0.41965  0.52462  0.25380  1.0000
  S   S391      1.0  0.39663  0.70297  0.18077  1.0000
  H   H2365     1.0  0.39696  0.78918  0.25493  1.0000
  C   C2963     1.0  0.44954  0.58896  0.99615  1.0000
  H   H2366     1.0  0.58226  0.73875  0.36485  1.0000
  P   P98       1.0  0.48118  0.64940  0.30737  1.0000
  H   H2367     1.0  0.40587  0.76437  0.38645  1.0000
  H   H2368     1.0  0.40934  0.67463  0.06044  1.0000
  Fe  Fe194     1.0  0.58418  0.65925  0.20819  1.0000
  C   C2964     1.0  0.40176  0.66834  0.12582  1.0000
  C   C2965     1.0  0.44262  0.57789  0.24512  1.0000
  C   C2966     1.0  0.44561  0.58837  0.25715  1.0000
  S   S392      1.0  0.58554  0.68881  0.18962  1.0000
  C   C2967     1.0  0.47881  0.58631  0.24019  1.0000
  C   C2968     1.0  0.57976  0.74717  0.37568  1.0000
  H   H2369     1.0  0.45644  0.64728  0.37713  1.0000
  C   C2969     1.0  0.46220  0.58435  0.17919  1.0000
  H   H2370     1.0  0.54893  0.66484  0.31941  1.0000
  C   C2970     1.0  0.48459  0.67468  0.19088  1.0000
  C   C2971     1.0  0.50149  0.66692  0.17906  1.0000
  C   C2972     1.0  0.51859  0.67279  0.17733  1.0000
  C   C2973     1.0  0.51858  0.68725  0.18653  1.0000
  C   C2974     1.0  0.50143  0.69577  0.19774  1.0000
  C   C2975     1.0  0.48465  0.68867  0.20062  1.0000
  P   P99       1.0  0.50145  0.71438  0.20971  1.0000
  C   C2976     1.0  0.50954  0.70328  0.23208  1.0000
  C   C2977     1.0  0.51815  0.72902  0.19437  1.0000
  C   C2978     1.0  0.53787  0.72325  0.19481  1.0000
  C   C2979     1.0  0.55087  0.73438  0.18279  1.0000
  C   C2980     1.0  0.54436  0.75136  0.17029  1.0000
  C   C2981     1.0  0.52479  0.75717  0.16968  1.0000
  C   C2982     1.0  0.51172  0.74604  0.18163  1.0000
  C   C2983     1.0  0.51533  0.71439  0.24161  1.0000
  C   C2984     1.0  0.52169  0.70608  0.25887  1.0000
  C   C2985     1.0  0.52293  0.68642  0.26641  1.0000
  C   C2986     1.0  0.51745  0.67514  0.25691  1.0000
  C   C2987     1.0  0.51067  0.68351  0.23986  1.0000
  C   C2988     1.0  0.47776  0.72992  0.21376  1.0000
  C   C2989     1.0  0.47145  0.73888  0.22970  1.0000
  C   C2990     1.0  0.45293  0.75030  0.23310  1.0000
  C   C2991     1.0  0.44058  0.75302  0.22058  1.0000
  C   C2992     1.0  0.44692  0.74475  0.20431  1.0000
  C   C2993     1.0  0.46550  0.73345  0.20077  1.0000
  H   H2371     1.0  0.47152  0.66950  0.19282  1.0000
  H   H2372     1.0  0.50139  0.65587  0.17178  1.0000
  H   H2373     1.0  0.53194  0.66588  0.16916  1.0000
  H   H2374     1.0  0.53203  0.69147  0.18507  1.0000
  H   H2375     1.0  0.47157  0.69389  0.21032  1.0000
  H   H2376     1.0  0.54331  0.70998  0.20420  1.0000
  H   H2377     1.0  0.56608  0.72965  0.18304  1.0000
  H   H2378     1.0  0.55452  0.75992  0.16100  1.0000
  H   H2379     1.0  0.51974  0.77029  0.15990  1.0000
  H   H2380     1.0  0.49667  0.75077  0.18081  1.0000
  H   H2381     1.0  0.51485  0.72949  0.23568  1.0000
  H   H2382     1.0  0.52579  0.71480  0.26639  1.0000
  H   H2383     1.0  0.52821  0.67995  0.27957  1.0000
  H   H2384     1.0  0.51856  0.65985  0.26270  1.0000
  H   H2385     1.0  0.50644  0.67442  0.23287  1.0000
  H   H2386     1.0  0.48047  0.73680  0.23986  1.0000
  H   H2387     1.0  0.44781  0.75653  0.24586  1.0000
  H   H2388     1.0  0.42599  0.76134  0.22368  1.0000
  H   H2389     1.0  0.43728  0.74686  0.19462  1.0000
  H   H2390     1.0  0.47014  0.72730  0.18800  1.0000
  C   C2994     1.0  0.42993  0.66751  0.34249  1.0000
  C   C2995     1.0  0.43445  0.66187  0.36076  1.0000
  C   C2996     1.0  0.45288  0.65146  0.36298  1.0000
  C   C2997     1.0  0.56192  0.69778  0.36525  1.0000
  C   C2998     1.0  0.47448  0.68578  0.28346  1.0000
  C   C2999     1.0  0.42106  0.90919  0.26733  1.0000
  C   C3000     1.0  0.43332  0.53612  0.24520  1.0000
  H   H2391     1.0  0.41858  0.72558  0.38276  1.0000
  H   H2392     1.0  0.42589  0.86680  0.25157  1.0000
  C   C3001     1.0  0.40978  0.67106  0.03222  1.0000
  H   H2393     1.0  0.41594  0.67626  0.34063  1.0000
  H   H2394     1.0  0.42003  0.68845  0.11066  1.0000
  H   H2395     1.0  0.51695  0.68552  0.32899  1.0000
  H   H2396     1.0  0.46720  0.71426  0.26668  1.0000
  C   C3002     1.0  0.46691  0.64710  0.34685  1.0000
  C   C3003     1.0  0.57547  0.76726  0.37022  1.0000
  H   H2397     1.0  0.42510  0.66495  0.02941  1.0000
  H   H2398     1.0  0.54714  0.72842  0.42063  1.0000
  C   C3004     1.0  0.51812  0.67335  0.32267  1.0000
  H   H2399     1.0  0.48038  0.69084  0.29282  1.0000
  C   C3005     1.0  0.54245  0.70554  0.13450  1.0000
  H   H2400     1.0  0.56225  0.78872  0.20154  1.0000
  H   H2401     1.0  0.44206  0.53832  0.25395  1.0000
  C   C3006     1.0  0.39815  0.72779  0.40967  1.0000
  H   H2402     1.0  0.58311  0.72354  0.11604  1.0000
  H   H2403     1.0  0.47713  0.57946  0.18051  1.0000
  C   C3007     1.0  0.40822  0.68235  0.11026  1.0000
  H   H2404     1.0  0.42186  0.95642  0.26259  1.0000
  P   P100      1.0  0.56684  0.75952  0.23743  1.0000
  C   C3008     1.0  0.51469  0.77009  0.22183  1.0000
  H   H2405     1.0  0.57747  0.68533  0.08142  1.0000
  H   H2406     1.0  0.44140  0.81963  0.29721  1.0000
  P   P101      1.0  0.45373  0.55899  0.21422  1.0000
  H   H2407     1.0  0.52772  0.70955  0.14212  1.0000
  C   C3009     1.0  0.56824  0.68205  0.12023  1.0000
  C   C3010     1.0  0.43270  0.77305  0.37259  1.0000
  C   C3011     1.0  0.44176  0.78835  0.36265  1.0000
  C   C3012     1.0  0.43081  0.80711  0.35936  1.0000
  H   H2408     1.0  0.40722  0.73338  0.41545  1.0000
  H   H2409     1.0  0.41338  0.66354  0.29755  1.0000
  C   C3013     1.0  0.48501  0.62512  0.30389  1.0000
  C   C3014     1.0  0.48016  0.59222  0.31510  1.0000
  H   H2410     1.0  0.40227  0.52668  0.21447  1.0000
  C   C3015     1.0  0.56740  0.72306  0.23246  1.0000
  C   C3016     1.0  0.40169  0.79230  0.28160  1.0000
  H   H2411     1.0  0.44758  0.58415  0.01168  1.0000
  H   H2412     1.0  0.49837  0.51999  0.16887  1.0000
  H   H2413     1.0  0.58105  0.68317  0.04770  1.0000
  H   H2414     1.0  0.57336  0.66775  0.11705  1.0000
  C   C3017     1.0  0.42373  0.59890  0.17615  1.0000
  C   C3018     1.0  0.41617  0.94371  0.26430  1.0000
  C   C3019     1.0  0.42825  0.58498  0.19228  1.0000
  H   H2415     1.0  0.57330  0.77857  0.41294  1.0000
  C   C3020     1.0  0.56925  0.70311  0.23818  1.0000
  H   H2416     1.0  0.45726  0.78566  0.35757  1.0000
  H   H2417     1.0  0.43788  0.81898  0.35183  1.0000
  C   C3021     1.0  0.40904  0.70571  0.25334  1.0000
  H   H2418     1.0  0.39754  0.51271  0.24939  1.0000
  C   C3022     1.0  0.55479  0.71847  0.12949  1.0000
  C   C3023     1.0  0.53611  0.66173  0.31726  1.0000
  H   H2419     1.0  0.54981  0.70406  0.35815  1.0000
  H   H2420     1.0  0.52263  0.63049  0.29901  1.0000
  C   C3024     1.0  0.43492  0.60238  0.98803  1.0000
  C   C3025     1.0  0.49891  0.60184  0.28318  1.0000
  C   C3026     1.0  0.40849  0.52124  0.24270  1.0000
  C   C3027     1.0  0.57479  0.76980  0.40261  1.0000
  H   H2421     1.0  0.48130  0.63949  0.34869  1.0000
  C   C3028     1.0  0.54915  0.68738  0.12976  1.0000
  H   H2422     1.0  0.47797  0.57120  0.99051  1.0000
  C   C3029     1.0  0.40603  0.68775  0.25296  1.0000
  C   C3030     1.0  0.57252  0.70443  0.26974  1.0000
  C   C3031     1.0  0.57077  0.72440  0.26402  1.0000
  H   H2423     1.0  0.52046  0.50330  0.19137  1.0000
  C   C3032     1.0  0.54912  0.78334  0.20746  1.0000
  C   C3033     1.0  0.45781  0.57134  0.23067  1.0000
  C   C3034     1.0  0.50377  0.51813  0.21405  1.0000
  C   C3035     1.0  0.56106  0.76971  0.25877  1.0000
  C   C3036     1.0  0.54273  0.77029  0.27096  1.0000
  C   C3037     1.0  0.53873  0.77649  0.28833  1.0000
  C   C3038     1.0  0.55294  0.78217  0.29374  1.0000
  C   C3039     1.0  0.57115  0.78171  0.28174  1.0000
  C   C3040     1.0  0.57532  0.77525  0.26448  1.0000
  C   C3041     1.0  0.52999  0.76253  0.23152  1.0000
  C   C3042     1.0  0.47513  0.54170  0.20683  1.0000
  C   C3043     1.0  0.54090  0.70958  0.44818  1.0000
  C   C3044     1.0  0.47902  0.53711  0.18859  1.0000
  H   H2424     1.0  0.51330  0.51069  0.22396  1.0000
  S   S393      1.0  0.40456  0.74597  0.31730  1.0000
  H   H2425     1.0  0.46584  0.60122  0.26359  1.0000
  S   S394      1.0  0.40824  0.79617  0.31541  1.0000
  C   C3045     1.0  0.40457  0.72342  0.39118  1.0000
  S   S395      1.0  0.40147  0.70781  0.36197  1.0000
  H   H2426     1.0  0.43479  0.61695  0.14951  1.0000
  H   H2427     1.0  0.50475  0.79005  0.19747  1.0000
  H   H2428     1.0  0.42160  0.60793  0.99726  1.0000
  C   C3046     1.0  0.41117  0.52913  0.22295  1.0000
  C   C3047     1.0  0.40127  0.91089  0.26869  1.0000
  P   P102      1.0  0.58648  0.71232  0.40228  1.0000
  H   H2429     1.0  0.53163  0.76535  0.26760  1.0000
  H   H2430     1.0  0.52477  0.77630  0.29793  1.0000
  H   H2431     1.0  0.55000  0.78640  0.30749  1.0000
  C   C3048     1.0  0.39309  0.79816  0.26550  1.0000
  H   H2432     1.0  0.57002  0.79414  0.37927  1.0000
  H   H2433     1.0  0.52829  0.75147  0.24449  1.0000
  H   H2434     1.0  0.50128  0.76508  0.22746  1.0000
  H   H2435     1.0  0.41184  0.77877  0.28332  1.0000
  H   H2436     1.0  0.40794  0.71739  0.24089  1.0000
  H   H2437     1.0  0.56564  0.73000  0.21791  1.0000
  H   H2438     1.0  0.57142  0.73234  0.27426  1.0000
  C   C3049     1.0  0.50780  0.51395  0.19570  1.0000
  H   H2439     1.0  0.39343  0.86540  0.30995  1.0000
  C   C3050     1.0  0.48741  0.53185  0.21967  1.0000
  C   C3051     1.0  0.57182  0.69377  0.25681  1.0000
  C   C3052     1.0  0.53754  0.64626  0.30884  1.0000
  C   C3053     1.0  0.50156  0.66955  0.31966  1.0000
  H   H2440     1.0  0.42377  0.66602  0.37309  1.0000
  C   C3054     1.0  0.49593  0.62041  0.28639  1.0000
  H   H2441     1.0  0.44373  0.92418  0.26411  1.0000
  C   C3055     1.0  0.45855  0.67401  0.25883  1.0000
  C   C3056     1.0  0.56824  0.73386  0.24531  1.0000
  H   H2442     1.0  0.58317  0.65354  0.30933  1.0000
  C   C3057     1.0  0.52100  0.64245  0.30571  1.0000
  C   C3058     1.0  0.57381  0.71331  0.11965  1.0000
  C   C3059     1.0  0.54727  0.76923  0.22456  1.0000
  C   C3060     1.0  0.44379  0.66289  0.32640  1.0000
  C   C3061     1.0  0.50283  0.65411  0.31107  1.0000
  H   H2443     1.0  0.57410  0.77401  0.35550  1.0000
  H   H2444     1.0  0.56878  0.69491  0.22808  1.0000
  H   H2445     1.0  0.41662  0.58051  0.20366  1.0000
  H   H2446     1.0  0.53847  0.68819  0.47460  1.0000
  P   P103      1.0  0.39134  0.88997  0.27156  1.0000
  C   C3062     1.0  0.57394  0.68033  0.36181  1.0000
  C   C3063     1.0  0.39897  0.68905  0.09460  1.0000
  C   C3064     1.0  0.58094  0.73823  0.39484  1.0000
  H   H2447     1.0  0.57455  0.69720  0.28418  1.0000
  C   C3065     1.0  0.57871  0.74971  0.40821  1.0000
  C   C3066     1.0  0.46665  0.58167  0.98424  1.0000
  C   C3067     1.0  0.39650  0.94552  0.26559  1.0000
  H   H2448     1.0  0.39170  0.85788  0.25410  1.0000
  H   H2449     1.0  0.40880  0.60480  0.17511  1.0000
  Fe  Fe195     1.0  0.58684  0.63468  0.24829  1.0000
  C   C3068     1.0  0.57799  0.68785  0.43796  1.0000
  H   H2450     1.0  0.57119  0.67307  0.35199  1.0000
  H   H2451     1.0  0.38890  0.59134  0.23245  1.0000
  H   H2452     1.0  0.58022  0.74315  0.42291  1.0000
  H   H2453     1.0  0.40847  0.66367  0.13827  1.0000
  C   C3069     1.0  0.38910  0.92920  0.26777  1.0000
  Fe  Fe196     1.0  0.58771  0.73904  0.32526  1.0000
  H   H2454     1.0  0.38817  0.77348  0.35604  1.0000
  C   C3070     1.0  0.44447  0.59929  0.90252  1.0000
  P   P104      1.0  0.45793  0.60910  0.93003  1.0000
  H   H2455     1.0  0.42141  0.93373  0.74135  1.0000
  C   C3071     1.0  0.48049  0.64474  0.80619  1.0000
  C   C3072     1.0  0.43743  0.60859  0.96800  1.0000
  H   H2456     1.0  0.57945  0.84718  0.51536  1.0000
  S   S396      1.0  0.54483  0.79738  0.74935  1.0000
  C   C3073     1.0  0.56435  0.70828  0.76520  1.0000
  C   C3074     1.0  0.49120  0.68225  0.81375  1.0000
  C   C3075     1.0  0.39749  0.84919  0.76986  1.0000
  Fe  Fe197     1.0  0.55240  0.65087  0.87609  1.0000
  H   H2457     1.0  0.45273  0.76414  0.85963  1.0000
  S   S397      1.0  0.51969  0.66009  0.88235  1.0000
  C   C3076     1.0  0.55232  0.64177  0.80282  1.0000
  H   H2458     1.0  0.57532  0.69967  0.75607  1.0000
  C   C3077     1.0  0.49614  0.74732  0.79438  1.0000
  P   P105      1.0  0.51742  0.74521  0.80358  1.0000
  C   C3078     1.0  0.53293  0.72646  0.83618  1.0000
  C   C3079     1.0  0.54636  0.78676  0.80076  1.0000
  C   C3080     1.0  0.48271  0.73558  0.80371  1.0000
  Fe  Fe198     1.0  0.41510  0.65982  0.82142  1.0000
  S   S398      1.0  0.42182  0.62789  0.83254  1.0000
  S   S399      1.0  0.41921  0.67316  0.78982  1.0000
  Fe  Fe199     1.0  0.40373  0.66884  0.86132  1.0000
  S   S400      1.0  0.40953  0.63765  0.87596  1.0000
  H   H2459     1.0  0.44117  0.54752  0.93126  1.0000
  Fe  Fe200     1.0  0.43632  0.63510  0.85264  1.0000
  S   S401      1.0  0.46669  0.61966  0.85613  1.0000
  S   S402      1.0  0.40805  0.76326  0.77804  1.0000
  C   C3081     1.0  0.48231  0.81281  0.86004  1.0000
  S   S403      1.0  0.43154  0.66654  0.83968  1.0000
  H   H2460     1.0  0.48357  0.72938  0.87193  1.0000
  Fe  Fe201     1.0  0.45500  0.78774  0.71895  1.0000
  S   S404      1.0  0.44165  0.79652  0.74726  1.0000
  S   S405      1.0  0.48719  0.77638  0.71041  1.0000
  Fe  Fe202     1.0  0.41581  0.79622  0.70725  1.0000
  C   C3082     1.0  0.53207  0.71876  0.85585  1.0000
  H   H2461     1.0  0.43453  0.59199  0.88072  1.0000
  Fe  Fe203     1.0  0.42381  0.82154  0.73066  1.0000
  H   H2462     1.0  0.45137  0.75156  0.77317  1.0000
  Fe  Fe204     1.0  0.41908  0.78043  0.74886  1.0000
  H   H2463     1.0  0.40315  0.73365  0.81190  1.0000
  S   S406      1.0  0.43847  0.81378  0.70193  1.0000
  S   S407      1.0  0.43375  0.76932  0.72182  1.0000
  C   C3083     1.0  0.43900  0.77914  0.83550  1.0000
  S   S408      1.0  0.56937  0.62699  0.86082  1.0000
  C   C3084     1.0  0.44365  0.63317  0.92436  1.0000
  C   C3085     1.0  0.41635  0.91519  0.72557  1.0000
  H   H2464     1.0  0.46113  0.71927  0.74620  1.0000
  C   C3086     1.0  0.42237  0.81442  0.84863  1.0000
  C   C3087     1.0  0.44063  0.66794  0.91589  1.0000
  C   C3088     1.0  0.39096  0.85464  0.70532  1.0000
  C   C3089     1.0  0.41633  0.87373  0.76098  1.0000
  H   H2465     1.0  0.42742  0.88064  0.75104  1.0000
  H   H2466     1.0  0.41088  0.89212  0.78120  1.0000
  C   C3090     1.0  0.41699  0.69807  0.78642  1.0000
  C   C3091     1.0  0.41089  0.70693  0.80229  1.0000
  C   C3092     1.0  0.40856  0.72691  0.79956  1.0000
  C   C3093     1.0  0.41237  0.73815  0.78094  1.0000
  C   C3094     1.0  0.41861  0.72928  0.76505  1.0000
  C   C3095     1.0  0.42088  0.70924  0.76779  1.0000
  H   H2467     1.0  0.40748  0.69849  0.81669  1.0000
  H   H2468     1.0  0.39043  0.80648  0.77846  1.0000
  H   H2469     1.0  0.42131  0.73784  0.75064  1.0000
  H   H2470     1.0  0.42553  0.70241  0.75547  1.0000
  H   H2471     1.0  0.56336  0.73430  0.74326  1.0000
  H   H2472     1.0  0.52287  0.64666  0.81798  1.0000
  H   H2473     1.0  0.53728  0.70422  0.81056  1.0000
  C   C3096     1.0  0.38906  0.76448  0.87106  1.0000
  C   C3097     1.0  0.47119  0.68768  0.82003  1.0000
  C   C3098     1.0  0.47935  0.63988  0.76993  1.0000
  C   C3099     1.0  0.56521  0.64560  0.78528  1.0000
  H   H2474     1.0  0.48495  0.72477  0.81644  1.0000
  C   C3100     1.0  0.44896  0.81526  0.80983  1.0000
  C   C3101     1.0  0.44000  0.74542  0.85091  1.0000
  C   C3102     1.0  0.51593  0.73464  0.82904  1.0000
  H   H2475     1.0  0.48724  0.62293  0.94028  1.0000
  C   C3103     1.0  0.50530  0.64932  0.87398  1.0000
  C   C3104     1.0  0.51340  0.63552  0.86252  1.0000
  C   C3105     1.0  0.50142  0.62678  0.85681  1.0000
  C   C3106     1.0  0.48127  0.63208  0.86212  1.0000
  C   C3107     1.0  0.47315  0.64645  0.87288  1.0000
  C   C3108     1.0  0.48515  0.65488  0.87891  1.0000
  H   H2476     1.0  0.52887  0.63121  0.85846  1.0000
  H   H2477     1.0  0.50780  0.61570  0.84845  1.0000
  H   H2478     1.0  0.45765  0.65072  0.87695  1.0000
  H   H2479     1.0  0.47883  0.66582  0.88741  1.0000
  C   C3109     1.0  0.42274  0.76005  0.82502  1.0000
  C   C3110     1.0  0.42135  0.67035  0.91497  1.0000
  H   H2480     1.0  0.45341  0.82575  0.85621  1.0000
  C   C3111     1.0  0.49816  0.73620  0.84220  1.0000
  C   C3112     1.0  0.55842  0.65743  0.76913  1.0000
  H   H2481     1.0  0.53922  0.75429  0.76420  1.0000
  H   H2482     1.0  0.40922  0.83057  0.82429  1.0000
  C   C3113     1.0  0.51387  0.61483  0.92086  1.0000
  C   C3114     1.0  0.49377  0.75973  0.77666  1.0000
  C   C3115     1.0  0.49733  0.72855  0.86190  1.0000
  C   C3116     1.0  0.50343  0.78297  0.72038  1.0000
  C   C3117     1.0  0.49730  0.79771  0.73077  1.0000
  C   C3118     1.0  0.51022  0.80207  0.73941  1.0000
  C   C3119     1.0  0.52949  0.79204  0.73735  1.0000
  C   C3120     1.0  0.53579  0.77761  0.72654  1.0000
  C   C3121     1.0  0.52274  0.77302  0.71818  1.0000
  H   H2483     1.0  0.48263  0.80581  0.73199  1.0000
  H   H2484     1.0  0.50532  0.81335  0.74761  1.0000
  H   H2485     1.0  0.55064  0.76991  0.72475  1.0000
  H   H2486     1.0  0.52763  0.76174  0.70998  1.0000
  H   H2487     1.0  0.46730  0.69151  0.77270  1.0000
  C   C3122     1.0  0.54292  0.71109  0.79602  1.0000
  H   H2488     1.0  0.58041  0.74949  0.82009  1.0000
  H   H2489     1.0  0.51968  0.59098  0.88510  1.0000
  C   C3123     1.0  0.45824  0.83530  0.77163  1.0000
  C   C3124     1.0  0.48334  0.60823  0.91994  1.0000
  H   H2490     1.0  0.46477  0.62186  0.81763  1.0000
  H   H2491     1.0  0.46813  0.80738  0.76434  1.0000
  C   C3125     1.0  0.45715  0.80519  0.79481  1.0000
  C   C3126     1.0  0.47053  0.62859  0.78664  1.0000
  H   H2492     1.0  0.40444  0.85919  0.70299  1.0000
  C   C3127     1.0  0.52593  0.66299  0.78851  1.0000
  Fe  Fe205     1.0  0.39444  0.63346  0.85455  1.0000
  C   C3128     1.0  0.46183  0.81520  0.77584  1.0000
  H   H2493     1.0  0.48288  0.82340  0.86768  1.0000
  C   C3129     1.0  0.44838  0.57427  0.93097  1.0000
  C   C3130     1.0  0.47595  0.69512  0.84855  1.0000
  H   H2494     1.0  0.46307  0.61808  0.78563  1.0000
  H   H2495     1.0  0.45602  0.72839  0.80356  1.0000
  C   C3131     1.0  0.47133  0.63086  0.80471  1.0000
  C   C3132     1.0  0.45465  0.60145  0.95593  1.0000
  H   H2496     1.0  0.53656  0.81758  0.79565  1.0000
  C   C3133     1.0  0.49411  0.61594  0.92822  1.0000
  H   H2497     1.0  0.53383  0.67489  0.75794  1.0000
  H   H2498     1.0  0.52165  0.70552  0.77010  1.0000
  H   H2499     1.0  0.55277  0.75604  0.80398  1.0000
  H   H2500     1.0  0.46136  0.84302  0.75679  1.0000
  C   C3134     1.0  0.48120  0.78608  0.83954  1.0000
  H   H2501     1.0  0.49556  0.78553  0.79569  1.0000
  S   S409      1.0  0.39973  0.80633  0.73469  1.0000
  H   H2502     1.0  0.58067  0.72360  0.92963  1.0000
  C   C3135     1.0  0.41956  0.80992  0.86885  1.0000
  H   H2503     1.0  0.47623  0.77052  0.75528  1.0000
  S   S410      1.0  0.56998  0.67251  0.85794  1.0000
  H   H2504     1.0  0.40709  0.89720  0.71231  1.0000
  C   C3136     1.0  0.49273  0.59918  0.90434  1.0000
  C   C3137     1.0  0.48876  0.65359  0.77133  1.0000
  C   C3138     1.0  0.41157  0.85828  0.75676  1.0000
  C   C3139     1.0  0.55769  0.72780  0.75801  1.0000
  C   C3140     1.0  0.54184  0.76908  0.80195  1.0000
  C   C3141     1.0  0.40706  0.88012  0.77813  1.0000
  C   C3142     1.0  0.55708  0.69997  0.78427  1.0000
  H   H2505     1.0  0.39906  0.76236  0.88035  1.0000
  H   H2506     1.0  0.39148  0.73416  0.87338  1.0000
  H   H2507     1.0  0.57764  0.87545  0.52881  1.0000
  C   C3143     1.0  0.49588  0.69025  0.84212  1.0000
  H   H2508     1.0  0.53838  0.60502  0.89961  1.0000
  C   C3144     1.0  0.53275  0.80385  0.79737  1.0000
  H   H2509     1.0  0.55761  0.63249  0.81531  1.0000
  H   H2510     1.0  0.44709  0.68039  0.91259  1.0000
  H   H2511     1.0  0.41391  0.75910  0.81573  1.0000
  H   H2512     1.0  0.42500  0.73039  0.83976  1.0000
  C   C3145     1.0  0.44940  0.59311  0.92070  1.0000
  H   H2513     1.0  0.48489  0.74319  0.83736  1.0000
  P   P106      1.0  0.50069  0.67454  0.79105  1.0000
  H   H2514     1.0  0.43150  0.91052  0.71953  1.0000
  H   H2515     1.0  0.47877  0.63809  0.75591  1.0000
  H   H2516     1.0  0.58435  0.67157  0.92527  1.0000
  H   H2517     1.0  0.44815  0.69772  0.84245  1.0000
  H   H2518     1.0  0.49564  0.66214  0.75824  1.0000
  C   C3146     1.0  0.50862  0.70808  0.76475  1.0000
  H   H2519     1.0  0.39902  0.84381  0.67911  1.0000
  H   H2520     1.0  0.44553  0.61363  0.89422  1.0000
  H   H2521     1.0  0.44025  0.84356  0.81698  1.0000
  C   C3147     1.0  0.53882  0.66599  0.77067  1.0000
  C   C3148     1.0  0.44609  0.83545  0.80562  1.0000
  H   H2522     1.0  0.43025  0.79941  0.87596  1.0000
  S   S411      1.0  0.42281  0.85144  0.73455  1.0000
  H   H2523     1.0  0.51368  0.71320  0.88386  1.0000
  H   H2524     1.0  0.48486  0.59342  0.89734  1.0000
  C   C3149     1.0  0.42415  0.63578  0.92370  1.0000
  C   C3150     1.0  0.46480  0.80038  0.84368  1.0000
  C   C3151     1.0  0.50496  0.72383  0.74971  1.0000
  H   H2525     1.0  0.50450  0.76806  0.76842  1.0000
  H   H2526     1.0  0.48115  0.77622  0.83093  1.0000
  S   S412      1.0  0.39428  0.69368  0.87660  1.0000
  H   H2527     1.0  0.51511  0.73329  0.74347  1.0000
  C   C3152     1.0  0.47764  0.76130  0.76917  1.0000
  C   C3153     1.0  0.51427  0.71958  0.86868  1.0000
  H   H2528     1.0  0.46146  0.68682  0.81154  1.0000
  H   H2529     1.0  0.56255  0.68492  0.79004  1.0000
  H   H2530     1.0  0.52205  0.62129  0.92687  1.0000
  C   C3154     1.0  0.39132  0.83647  0.85101  1.0000
  H   H2531     1.0  0.51060  0.77385  0.84261  1.0000
  H   H2532     1.0  0.51894  0.68052  0.82011  1.0000
  C   C3155     1.0  0.46643  0.73737  0.79631  1.0000
  H   H2533     1.0  0.46002  0.78961  0.79764  1.0000
  H   H2534     1.0  0.41281  0.68465  0.91092  1.0000
  H   H2535     1.0  0.48091  0.64628  0.82035  1.0000
  C   C3156     1.0  0.49559  0.69569  0.77257  1.0000
  C   C3157     1.0  0.50981  0.78557  0.79701  1.0000
  C   C3158     1.0  0.46557  0.81400  0.85365  1.0000
  C   C3159     1.0  0.46361  0.69403  0.83741  1.0000
  H   H2536     1.0  0.44444  0.73300  0.86174  1.0000
  H   H2537     1.0  0.54523  0.71203  0.86117  1.0000
  H   H2538     1.0  0.56061  0.78729  0.80190  1.0000
  H   H2539     1.0  0.47012  0.69935  0.86233  1.0000
  H   H2540     1.0  0.40064  0.81544  0.89561  1.0000
  C   C3160     1.0  0.51257  0.59772  0.89731  1.0000
  S   S413      1.0  0.56973  0.64246  0.89941  1.0000
  C   C3161     1.0  0.49845  0.79820  0.85626  1.0000
  C   C3162     1.0  0.38877  0.83231  0.87108  1.0000
  Fe  Fe206     1.0  0.57726  0.78641  0.74415  1.0000
  H   H2541     1.0  0.54695  0.72577  0.82656  1.0000
  H   H2542     1.0  0.50406  0.81654  0.79242  1.0000
  H   H2543     1.0  0.50552  0.69075  0.85088  1.0000
  C   C3163     1.0  0.43822  0.58703  0.89484  1.0000
  H   H2544     1.0  0.48523  0.73965  0.73108  1.0000
  C   C3164     1.0  0.44477  0.76305  0.84957  1.0000
  C   C3165     1.0  0.38885  0.78166  0.68024  1.0000
  C   C3166     1.0  0.47448  0.71598  0.75126  1.0000
  C   C3167     1.0  0.41310  0.65428  0.91899  1.0000
  C   C3168     1.0  0.54393  0.73909  0.76992  1.0000
  C   C3169     1.0  0.40283  0.81892  0.88002  1.0000
  H   H2545     1.0  0.43204  0.55896  0.89924  1.0000
  H   H2546     1.0  0.51150  0.79742  0.86101  1.0000
  C   C3170     1.0  0.45173  0.64944  0.92064  1.0000
  C   C3171     1.0  0.43692  0.56842  0.90525  1.0000
  C   C3172     1.0  0.49791  0.78487  0.84597  1.0000
  H   H2547     1.0  0.46668  0.64797  0.92092  1.0000
  P   P107      1.0  0.44371  0.80233  0.83444  1.0000
  C   C3173     1.0  0.44204  0.56202  0.92329  1.0000
  C   C3174     1.0  0.53636  0.73079  0.78899  1.0000
  H   H2548     1.0  0.41745  0.62353  0.92662  1.0000
  C   C3175     1.0  0.45052  0.84542  0.78655  1.0000
  C   C3176     1.0  0.52347  0.76833  0.80022  1.0000
  C   C3177     1.0  0.42754  0.77762  0.82357  1.0000
  C   C3178     1.0  0.52311  0.60566  0.90546  1.0000
  H   H2549     1.0  0.39389  0.83742  0.76637  1.0000
  C   C3179     1.0  0.46378  0.75041  0.77914  1.0000
  C   C3180     1.0  0.40790  0.82739  0.83979  1.0000
  S   S414      1.0  0.40083  0.79870  0.68276  1.0000
  C   C3181     1.0  0.48897  0.65644  0.78948  1.0000
  C   C3182     1.0  0.53270  0.65007  0.80433  1.0000
  C   C3183     1.0  0.48804  0.72756  0.74278  1.0000
  H   H2550     1.0  0.42214  0.79003  0.81319  1.0000
  C   C3184     1.0  0.41066  0.92819  0.73793  1.0000
  C   C3185     1.0  0.42904  0.74391  0.83857  1.0000
  C   C3186     1.0  0.47812  0.70021  0.76623  1.0000
  C   C3187     1.0  0.51448  0.80326  0.79548  1.0000
  C   C3188     1.0  0.50349  0.68408  0.82471  1.0000
  H   H2551     1.0  0.44778  0.86101  0.78328  1.0000
  H   H2552     1.0  0.42587  0.61888  0.96202  1.0000
  C   C3189     1.0  0.40257  0.90773  0.72145  1.0000
  H   H2553     1.0  0.48246  0.58183  0.95519  1.0000
  H   H2554     1.0  0.39256  0.76200  0.70705  1.0000
  H   H2555     1.0  0.56840  0.66010  0.75545  1.0000
  H   H2556     1.0  0.45245  0.56897  0.94485  1.0000
  H   H2557     1.0  0.39819  0.65616  0.91813  1.0000
  C   C3190     1.0  0.39280  0.87121  0.79120  1.0000
  H   H2558     1.0  0.58047  0.63939  0.78429  1.0000
  C   C3191     1.0  0.39117  0.93376  0.74618  1.0000
  C   C3192     1.0  0.46919  0.58781  0.96421  1.0000
  H   H2559     1.0  0.58587  0.89317  0.96440  1.0000
  H   H2560     1.0  0.58451  0.85851  0.97482  1.0000
  C   C3193     1.0  0.38799  0.85565  0.78707  1.0000
  C   C3194     1.0  0.74013  0.19743  0.05925  1.0000
  C   C3195     1.0  0.68942  0.26156  0.01016  1.0000
  H   H2561     1.0  0.69918  0.18336  0.04496  1.0000
  H   H2562     1.0  0.74813  0.16727  0.07161  1.0000
  C   C3196     1.0  0.71249  0.20682  0.04391  1.0000
  C   C3197     1.0  0.72714  0.21173  0.04960  1.0000
  H   H2563     1.0  0.74263  0.29870  0.99812  1.0000
  C   C3198     1.0  0.75300  0.43319  0.37404  1.0000
  H   H2564     1.0  0.60524  0.24853  0.17621  1.0000
  S   S415      1.0  0.69208  0.11575  0.00714  1.0000
  H   H2565     1.0  0.72512  0.07569  0.25832  1.0000
  C   C3199     1.0  0.74813  0.00577  0.31014  1.0000
  H   H2566     1.0  0.74641  0.27725  0.29441  1.0000
  C   C3200     1.0  0.72538  0.03499  0.31646  1.0000
  S   S416      1.0  0.71742  0.17254  0.38854  1.0000
  H   H2567     1.0  0.77511  0.16628  0.28219  1.0000
  Fe  Fe207     1.0  0.74226  0.00180  0.24790  1.0000
  S   S417      1.0  0.71718  0.99661  0.27200  1.0000
  S   S418      1.0  0.77228  0.99176  0.25411  1.0000
  Fe  Fe208     1.0  0.71634  0.02210  0.21889  1.0000
  S   S419      1.0  0.68899  0.01899  0.24089  1.0000
  S   S420      1.0  0.71972  0.03675  0.18746  1.0000
  Fe  Fe209     1.0  0.70342  0.02702  0.26045  1.0000
  S   S421      1.0  0.69460  0.04926  0.27890  1.0000
  Fe  Fe210     1.0  0.70528  0.98868  0.25041  1.0000
  C   C3201     1.0  0.69490  0.13541  0.26142  1.0000
  S   S422      1.0  0.72924  0.03261  0.23756  1.0000
  S   S423      1.0  0.73170  0.99137  0.22720  1.0000
  S   S424      1.0  0.60619  0.08345  0.30533  1.0000
  Fe  Fe211     1.0  0.67673  0.14081  0.14140  1.0000
  S   S425      1.0  0.65605  0.16377  0.12560  1.0000
  S   S426      1.0  0.66574  0.11876  0.16698  1.0000
  Fe  Fe212     1.0  0.71092  0.15797  0.11947  1.0000
  S   S427      1.0  0.69359  0.18224  0.10144  1.0000
  S   S428      1.0  0.74287  0.15571  0.11562  1.0000
  Fe  Fe213     1.0  0.67192  0.18457  0.12885  1.0000
  S   S429      1.0  0.65802  0.21476  0.13321  1.0000
  Fe  Fe214     1.0  0.67887  0.16004  0.09895  1.0000
  S   S430      1.0  0.66805  0.16644  0.07125  1.0000
  S   S431      1.0  0.69035  0.16221  0.14720  1.0000
  S   S432      1.0  0.69840  0.13519  0.11443  1.0000
  C   C3202     1.0  0.77359  0.26959  0.09402  1.0000
  C   C3203     1.0  0.64354  0.37743  0.24190  1.0000
  C   C3204     1.0  0.68301  0.07675  0.35002  1.0000
  P   P108      1.0  0.71641  0.04732  0.35138  1.0000
  Fe  Fe215     1.0  0.73186  0.33727  0.21707  1.0000
  S   S433      1.0  0.72447  0.31175  0.23940  1.0000
  S   S434      1.0  0.75799  0.33551  0.19317  1.0000
  Fe  Fe216     1.0  0.69860  0.36521  0.23532  1.0000
  S   S435      1.0  0.68787  0.34173  0.25920  1.0000
  S   S436      1.0  0.68422  0.39652  0.23533  1.0000
  Fe  Fe217     1.0  0.71900  0.33059  0.26062  1.0000
  S   S437      1.0  0.73043  0.31944  0.28804  1.0000
  Fe  Fe218     1.0  0.69394  0.32473  0.23595  1.0000
  S   S438      1.0  0.67835  0.30132  0.23722  1.0000
  S   S439      1.0  0.72934  0.35505  0.23854  1.0000
  S   S440      1.0  0.70180  0.34925  0.21180  1.0000
  C   C3205     1.0  0.73787  0.44879  0.34661  1.0000
  S   S441      1.0  0.76742  0.17979  0.18114  1.0000
  H   H2568     1.0  0.74625  0.41688  0.21044  1.0000
  Fe  Fe219     1.0  0.77985  0.37857  0.32510  1.0000
  C   C3206     1.0  0.69302  0.43033  0.23646  1.0000
  C   C3207     1.0  0.70538  0.44321  0.23300  1.0000
  H   H2569     1.0  0.67815  0.43411  0.24372  1.0000
  H   H2570     1.0  0.72172  0.15856  0.06245  1.0000
  C   C3208     1.0  0.76055  0.31722  0.18081  1.0000
  C   C3209     1.0  0.76443  0.32156  0.16065  1.0000
  C   C3210     1.0  0.76271  0.09423  0.44363  1.0000
  C   C3211     1.0  0.66380  0.08411  0.34827  1.0000
  C   C3212     1.0  0.76250  0.28377  0.18034  1.0000
  C   C3213     1.0  0.75951  0.29831  0.19071  1.0000
  H   H2571     1.0  0.68446  0.34035  0.98648  1.0000
  C   C3214     1.0  0.72439  0.42416  0.37181  1.0000
  C   C3215     1.0  0.69952  0.24517  0.47107  1.0000
  H   H2572     1.0  0.75694  0.29483  0.20628  1.0000
  C   C3216     1.0  0.69231  0.05816  0.34689  1.0000
  C   C3217     1.0  0.76486  0.45454  0.26337  1.0000
  C   C3218     1.0  0.75246  0.33353  0.30390  1.0000
  C   C3219     1.0  0.73732  0.33793  0.29411  1.0000
  C   C3220     1.0  0.72805  0.35712  0.28884  1.0000
  C   C3221     1.0  0.73393  0.37187  0.29332  1.0000
  H   H2573     1.0  0.74375  0.25763  0.98720  1.0000
  C   C3222     1.0  0.69082  0.20480  0.00884  1.0000
  H   H2574     1.0  0.71632  0.36065  0.28129  1.0000
  H   H2575     1.0  0.72670  0.38667  0.28914  1.0000
  C   C3223     1.0  0.69989  0.41253  0.23074  1.0000
  C   C3224     1.0  0.64621  0.29031  0.23552  1.0000
  C   C3225     1.0  0.65747  0.30439  0.22820  1.0000
  C   C3226     1.0  0.65162  0.32053  0.21439  1.0000
  H   H2576     1.0  0.76871  0.05559  0.16323  1.0000
  H   H2577     1.0  0.65068  0.27775  0.24614  1.0000
  H   H2578     1.0  0.66042  0.33125  0.20842  1.0000
  H   H2579     1.0  0.68711  0.31726  0.31324  1.0000
  C   C3227     1.0  0.75041  0.16048  0.13455  1.0000
  C   C3228     1.0  0.76797  0.16627  0.13076  1.0000
  C   C3229     1.0  0.77343  0.17202  0.14506  1.0000
  C   C3230     1.0  0.76155  0.17145  0.16341  1.0000
  C   C3231     1.0  0.74458  0.16455  0.16757  1.0000
  C   C3232     1.0  0.73899  0.15911  0.15317  1.0000
  H   H2580     1.0  0.77716  0.16673  0.11657  1.0000
  H   H2581     1.0  0.68855  0.18974  0.98835  1.0000
  H   H2582     1.0  0.73548  0.16404  0.18174  1.0000
  H   H2583     1.0  0.72586  0.15392  0.15648  1.0000
  C   C3233     1.0  0.64154  0.21620  0.15506  1.0000
  C   C3234     1.0  0.64042  0.19989  0.16986  1.0000
  C   C3235     1.0  0.62677  0.20122  0.18707  1.0000
  C   C3236     1.0  0.61399  0.21870  0.18934  1.0000
  C   C3237     1.0  0.68485  0.15464  0.26055  1.0000
  S   S442      1.0  0.66721  0.16956  0.38710  1.0000
  H   H2584     1.0  0.65011  0.18628  0.16810  1.0000
  H   H2585     1.0  0.62615  0.18866  0.19865  1.0000
  C   C3238     1.0  0.70728  0.44667  0.28659  1.0000
  C   C3239     1.0  0.65755  0.13377  0.39509  1.0000
  H   H2586     1.0  0.72841  0.22660  0.04684  1.0000
  H   H2587     1.0  0.68408  0.01148  0.41312  1.0000
  H   H2588     1.0  0.59629  0.09032  0.26925  1.0000
  C   C3240     1.0  0.69367  0.12214  0.27899  1.0000
  C   C3241     1.0  0.73835  0.17823  0.06366  1.0000
  C   C3242     1.0  0.70424  0.05926  0.18185  1.0000
  C   C3243     1.0  0.68781  0.06556  0.19518  1.0000
  C   C3244     1.0  0.67582  0.08366  0.19026  1.0000
  C   C3245     1.0  0.68056  0.09581  0.17229  1.0000
  C   C3246     1.0  0.69694  0.08950  0.15899  1.0000
  C   C3247     1.0  0.70852  0.07113  0.16365  1.0000
  H   H2589     1.0  0.68430  0.05645  0.20921  1.0000
  H   H2590     1.0  0.66304  0.08837  0.20053  1.0000
  H   H2591     1.0  0.70054  0.09860  0.14499  1.0000
  H   H2592     1.0  0.72086  0.06609  0.15315  1.0000
  C   C3248     1.0  0.67001  0.05927  0.28475  1.0000
  C   C3249     1.0  0.66434  0.07576  0.29265  1.0000
  C   C3250     1.0  0.64476  0.08353  0.29852  1.0000
  C   C3251     1.0  0.63077  0.07474  0.29673  1.0000
  C   C3252     1.0  0.63644  0.05852  0.28830  1.0000
  C   C3253     1.0  0.65609  0.05080  0.28223  1.0000
  H   H2593     1.0  0.67509  0.08233  0.29461  1.0000
  H   H2594     1.0  0.64058  0.09612  0.30469  1.0000
  H   H2595     1.0  0.62565  0.05170  0.28680  1.0000
  H   H2596     1.0  0.66046  0.03801  0.27617  1.0000
  C   C3254     1.0  0.59835  0.16773  0.19809  1.0000
  C   C3255     1.0  0.75270  0.09178  0.34633  1.0000
  C   C3256     1.0  0.72459  0.45890  0.31001  1.0000
  H   H2597     1.0  0.63730  0.31224  0.99657  1.0000
  C   C3257     1.0  0.78380  0.47272  0.23621  1.0000
  H   H2598     1.0  0.73537  0.16098  0.97970  1.0000
  H   H2599     1.0  0.70526  0.16724  0.47398  1.0000
  H   H2600     1.0  0.62307  0.16731  0.45158  1.0000
  C   C3258     1.0  0.64998  0.31670  0.98701  1.0000
  C   C3259     1.0  0.64338  0.15841  0.37080  1.0000
  C   C3260     1.0  0.63272  0.14585  0.36892  1.0000
  H   H2601     1.0  0.72296  0.47936  0.15842  1.0000
  H   H2602     1.0  0.64182  0.17289  0.36220  1.0000
  H   H2603     1.0  0.62305  0.15067  0.35892  1.0000
  C   C3261     1.0  0.76513  0.10598  0.38750  1.0000
  C   C3262     1.0  0.75163  0.09520  0.39909  1.0000
  C   C3263     1.0  0.75524  0.07528  0.39996  1.0000
  C   C3264     1.0  0.76654  0.30727  0.15038  1.0000
  C   C3265     1.0  0.78031  0.20711  0.09430  1.0000
  C   C3266     1.0  0.78715  0.31097  0.26579  1.0000
  H   H2604     1.0  0.73818  0.10223  0.40689  1.0000
  C   C3267     1.0  0.59791  0.15199  0.21362  1.0000
  C   C3268     1.0  0.60994  0.19604  0.11400  1.0000
  H   H2605     1.0  0.62795  0.11730  0.19048  1.0000
  C   C3269     1.0  0.73634  0.13363  0.03174  1.0000
  C   C3270     1.0  0.74907  0.22269  0.42735  1.0000
  C   C3271     1.0  0.75515  0.22480  0.44315  1.0000
  H   H2606     1.0  0.75514  0.22949  0.41306  1.0000
  H   H2607     1.0  0.76588  0.23325  0.44092  1.0000
  C   C3272     1.0  0.67549  0.15192  0.05378  1.0000
  C   C3273     1.0  0.67154  0.16018  0.03536  1.0000
  C   C3274     1.0  0.67689  0.14933  0.02090  1.0000
  C   C3275     1.0  0.68574  0.12986  0.02494  1.0000
  C   C3276     1.0  0.68946  0.12144  0.04350  1.0000
  C   C3277     1.0  0.68458  0.13250  0.05784  1.0000
  H   H2608     1.0  0.66414  0.17505  0.03237  1.0000
  H   H2609     1.0  0.67364  0.15589  0.00680  1.0000
  H   H2610     1.0  0.69626  0.10637  0.04674  1.0000
  H   H2611     1.0  0.68750  0.12592  0.07207  1.0000
  C   C3278     1.0  0.76559  0.28838  0.16017  1.0000
  H   H2612     1.0  0.75524  0.99581  0.30060  1.0000
  S   S443      1.0  0.77733  0.35150  0.39601  1.0000
  C   C3279     1.0  0.72373  0.08009  0.24339  1.0000
  H   H2613     1.0  0.74552  0.09225  0.11524  1.0000
  H   H2614     1.0  0.66421  0.15154  0.30842  1.0000
  H   H2615     1.0  0.75429  0.08379  0.44448  1.0000
  C   C3280     1.0  0.68197  0.04721  0.34183  1.0000
  H   H2616     1.0  0.68616  0.23035  0.45804  1.0000
  C   C3281     1.0  0.64132  0.21983  0.23447  1.0000
  C   C3282     1.0  0.77483  0.05903  0.19778  1.0000
  H   H2617     1.0  0.73828  0.99636  0.18099  1.0000
  H   H2618     1.0  0.76894  0.31085  0.13481  1.0000
  C   C3283     1.0  0.70287  0.46603  0.28790  1.0000
  S   S444      1.0  0.76020  0.13113  0.38412  1.0000
  H   H2619     1.0  0.71659  0.19453  0.45085  1.0000
  C   C3284     1.0  0.62350  0.11925  0.24483  1.0000
  C   C3285     1.0  0.76046  0.46741  0.30968  1.0000
  C   C3286     1.0  0.76385  0.15054  0.32372  1.0000
  C   C3287     1.0  0.76515  0.13728  0.31241  1.0000
  H   H2620     1.0  0.76031  0.13228  0.46276  1.0000
  P   P109      1.0  0.74694  0.14091  0.29853  1.0000
  C   C3288     1.0  0.74475  0.11816  0.29511  1.0000
  C   C3289     1.0  0.72412  0.15210  0.31164  1.0000
  C   C3290     1.0  0.71895  0.14589  0.33175  1.0000
  C   C3291     1.0  0.70134  0.15442  0.34205  1.0000
  C   C3292     1.0  0.68874  0.16915  0.33240  1.0000
  C   C3293     1.0  0.69372  0.17535  0.31239  1.0000
  C   C3294     1.0  0.71136  0.16685  0.30203  1.0000
  C   C3295     1.0  0.75850  0.10933  0.28108  1.0000
  C   C3296     1.0  0.75688  0.09205  0.27775  1.0000
  C   C3297     1.0  0.74153  0.08332  0.28838  1.0000
  C   C3298     1.0  0.72757  0.09214  0.30217  1.0000
  C   C3299     1.0  0.72918  0.10947  0.30562  1.0000
  C   C3300     1.0  0.75401  0.15512  0.27470  1.0000
  H   H2621     1.0  0.71175  0.43970  0.34752  1.0000
  H   H2622     1.0  0.78399  0.31325  0.23694  1.0000
  C   C3301     1.0  0.77616  0.26319  0.29562  1.0000
  C   C3302     1.0  0.75306  0.16346  0.24056  1.0000
  C   C3303     1.0  0.74606  0.15441  0.25945  1.0000
  C   C3304     1.0  0.77514  0.04105  0.26702  1.0000
  H   H2623     1.0  0.76540  0.33610  0.15298  1.0000
  S   S445      1.0  0.60043  0.31282  0.20920  1.0000
  H   H2624     1.0  0.75187  0.16276  0.32453  1.0000
  C   C3305     1.0  0.76261  0.47499  0.17305  1.0000
  H   H2625     1.0  0.72851  0.13445  0.33951  1.0000
  H   H2626     1.0  0.69745  0.14970  0.35759  1.0000
  H   H2627     1.0  0.67515  0.17576  0.34054  1.0000
  H   H2628     1.0  0.68385  0.18674  0.30498  1.0000
  H   H2629     1.0  0.71503  0.17179  0.28660  1.0000
  H   H2630     1.0  0.77066  0.11567  0.27277  1.0000
  H   H2631     1.0  0.76796  0.08520  0.26728  1.0000
  H   H2632     1.0  0.74074  0.06949  0.28628  1.0000
  H   H2633     1.0  0.71576  0.08526  0.31052  1.0000
  H   H2634     1.0  0.71834  0.11579  0.31660  1.0000
  H   H2635     1.0  0.60609  0.26589  0.29480  1.0000
  H   H2636     1.0  0.60034  0.12665  0.26861  1.0000
  H   H2637     1.0  0.76429  0.43143  0.38173  1.0000
  H   H2638     1.0  0.74716  0.16270  0.22872  1.0000
  H   H2639     1.0  0.73478  0.14646  0.26208  1.0000
  C   C3306     1.0  0.68858  0.15799  0.21894  1.0000
  C   C3307     1.0  0.77118  0.12563  0.02650  1.0000
  H   H2640     1.0  0.72439  0.39444  0.21624  1.0000
  C   C3308     1.0  0.68956  0.29587  0.29705  1.0000
  H   H2641     1.0  0.59271  0.24839  0.13711  1.0000
  H   H2642     1.0  0.76245  0.03315  0.24778  1.0000
  H   H2643     1.0  0.76039  0.22976  0.10690  1.0000
  H   H2644     1.0  0.66593  0.17503  0.27755  1.0000
  S   S446      1.0  0.70615  0.13297  0.41738  1.0000
  H   H2645     1.0  0.65651  0.09825  0.35120  1.0000
  C   C3309     1.0  0.77507  0.45073  0.30988  1.0000
  H   H2646     1.0  0.69023  0.08564  0.35409  1.0000
  C   C3310     1.0  0.72039  0.43342  0.29685  1.0000
  H   H2647     1.0  0.74306  0.03618  0.37776  1.0000
  C   C3311     1.0  0.74815  0.09010  0.12960  1.0000
  C   C3312     1.0  0.72740  0.20289  0.44864  1.0000
  C   C3313     1.0  0.71255  0.19132  0.21383  1.0000
  P   P110      1.0  0.69403  0.22548  0.03416  1.0000
  C   C3314     1.0  0.61212  0.20113  0.13026  1.0000
  H   H2648     1.0  0.69288  0.24254  0.42007  1.0000
  H   H2649     1.0  0.63486  0.33298  0.24744  1.0000
  C   C3315     1.0  0.75234  0.44674  0.35671  1.0000
  H   H2650     1.0  0.64366  0.36046  0.22196  1.0000
  H   H2651     1.0  0.70633  0.19990  0.00690  1.0000
  C   C3316     1.0  0.61448  0.32224  0.32926  1.0000
  S   S447      1.0  0.68827  0.17519  0.43043  1.0000
  C   C3317     1.0  0.71908  0.40785  0.22119  1.0000
  C   C3318     1.0  0.59363  0.17748  0.44788  1.0000
  H   H2652     1.0  0.72420  0.13215  0.00855  1.0000
  C   C3319     1.0  0.59869  0.28652  0.00381  1.0000
  H   H2653     1.0  0.78290  0.45542  0.18922  1.0000
  C   C3320     1.0  0.65560  0.15255  0.38407  1.0000
  H   H2654     1.0  0.68546  0.28940  0.99116  1.0000
  C   C3321     1.0  0.74942  0.17699  0.99058  1.0000
  S   S448      1.0  0.77901  0.24723  0.00248  1.0000
  H   H2655     1.0  0.70319  0.13029  0.24860  1.0000
  C   C3322     1.0  0.72353  0.43783  0.35461  1.0000
  H   H2656     1.0  0.64472  0.04045  0.21278  1.0000
  C   C3323     1.0  0.61551  0.12527  0.26238  1.0000
  C   C3324     1.0  0.77236  0.06624  0.38926  1.0000
  C   C3325     1.0  0.60245  0.31982  0.26992  1.0000
  H   H2657     1.0  0.73938  0.42894  0.31610  1.0000
  C   C3326     1.0  0.77604  0.43734  0.25839  1.0000
  H   H2658     1.0  0.71124  0.00650  0.42942  1.0000
  H   H2659     1.0  0.76280  0.06050  0.13069  1.0000
  P   P111      1.0  0.77315  0.25904  0.32163  1.0000
  P   P112      1.0  0.62772  0.32585  0.28955  1.0000
  C   C3327     1.0  0.75867  0.34834  0.30793  1.0000
  C   C3328     1.0  0.64085  0.37817  0.26127  1.0000
  C   C3329     1.0  0.67826  0.23368  0.05503  1.0000
  C   C3330     1.0  0.60800  0.13346  0.21103  1.0000
  H   H2660     1.0  0.75964  0.31872  0.30805  1.0000
  S   S449      1.0  0.78611  0.22006  0.13876  1.0000
  C   C3331     1.0  0.73921  0.42174  0.38145  1.0000
  C   C3332     1.0  0.67320  0.15664  0.21158  1.0000
  C   C3333     1.0  0.67648  0.14532  0.19794  1.0000
  C   C3334     1.0  0.69509  0.13545  0.19138  1.0000
  C   C3335     1.0  0.71049  0.13700  0.19835  1.0000
  H   H2661     1.0  0.74156  0.30250  0.06938  1.0000
  H   H2662     1.0  0.65864  0.16418  0.21625  1.0000
  H   H2663     1.0  0.66459  0.14430  0.19228  1.0000
  H   H2664     1.0  0.69757  0.12680  0.18069  1.0000
  H   H2665     1.0  0.72497  0.12963  0.19300  1.0000
  H   H2666     1.0  0.66374  0.29977  0.39777  1.0000
  C   C3336     1.0  0.76772  0.17363  0.23677  1.0000
  H   H2667     1.0  0.62992  0.24643  0.14601  1.0000
  Fe  Fe220     1.0  0.78732  0.20058  0.16763  1.0000
  C   C3337     1.0  0.70349  0.09037  0.21982  1.0000
  C   C3338     1.0  0.70541  0.08581  0.23901  1.0000
  C   C3339     1.0  0.71986  0.08910  0.20494  1.0000
  C   C3340     1.0  0.75790  0.07226  0.13830  1.0000
  H   H2668     1.0  0.68927  0.09449  0.21650  1.0000
  H   H2669     1.0  0.69271  0.08603  0.25052  1.0000
  H   H2670     1.0  0.71793  0.09206  0.19026  1.0000
  H   H2671     1.0  0.76323  0.16477  0.45744  1.0000
  H   H2672     1.0  0.59419  0.24296  0.27710  1.0000
  H   H2673     1.0  0.73172  0.02511  0.28982  1.0000
  C   C3341     1.0  0.77773  0.14783  0.33463  1.0000
  C   C3342     1.0  0.74669  0.21668  0.46183  1.0000
  Fe  Fe221     1.0  0.73307  0.14429  0.40284  1.0000
  C   C3343     1.0  0.62483  0.21216  0.24278  1.0000
  H   H2674     1.0  0.58999  0.15432  0.22773  1.0000
  C   C3344     1.0  0.71186  0.47225  0.29916  1.0000
  H   H2675     1.0  0.70456  0.25447  0.45760  1.0000
  C   C3345     1.0  0.74796  0.26135  0.33377  1.0000
  C   C3346     1.0  0.66013  0.32664  0.99351  1.0000
  C   C3347     1.0  0.61932  0.14683  0.17721  1.0000
  C   C3348     1.0  0.74256  0.34544  0.37149  1.0000
  S   S450      1.0  0.76681  0.27128  0.14685  1.0000
  H   H2676     1.0  0.77206  0.13781  0.20870  1.0000
  Fe  Fe222     1.0  0.60186  0.12090  0.35661  1.0000
  C   C3349     1.0  0.73522  0.27933  0.33115  1.0000
  C   C3350     1.0  0.71600  0.28148  0.34103  1.0000
  C   C3351     1.0  0.70936  0.26576  0.35390  1.0000
  C   C3352     1.0  0.72188  0.24782  0.35670  1.0000
  C   C3353     1.0  0.74104  0.24557  0.34662  1.0000
  C   C3354     1.0  0.62462  0.06719  0.20580  1.0000
  C   C3355     1.0  0.76059  0.27214  0.28641  1.0000
  S   S451      1.0  0.59644  0.21958  0.21059  1.0000
  C   C3356     1.0  0.62644  0.19236  0.24933  1.0000
  C   C3357     1.0  0.69694  0.01688  0.40532  1.0000
  C   C3358     1.0  0.61989  0.09045  0.22576  1.0000
  Fe  Fe223     1.0  0.59761  0.14913  0.31911  1.0000
  C   C3359     1.0  0.78271  0.09668  0.37782  1.0000
  C   C3360     1.0  0.63550  0.36275  0.27578  1.0000
  H   H2677     1.0  0.65490  0.29266  0.27579  1.0000
  C   C3361     1.0  0.60450  0.15625  0.41884  1.0000
  C   C3362     1.0  0.76877  0.47217  0.25236  1.0000
  H   H2678     1.0  0.74024  0.29181  0.32163  1.0000
  H   H2679     1.0  0.70635  0.29541  0.33877  1.0000
  H   H2680     1.0  0.69453  0.26745  0.36178  1.0000
  H   H2681     1.0  0.71681  0.23565  0.36693  1.0000
  H   H2682     1.0  0.75035  0.23154  0.34936  1.0000
  H   H2683     1.0  0.75562  0.32477  0.07896  1.0000
  S   S452      1.0  0.75629  0.38651  0.30815  1.0000
  C   C3363     1.0  0.75855  0.07915  0.33360  1.0000
  C   C3364     1.0  0.70271  0.21987  0.14941  1.0000
  C   C3365     1.0  0.72236  0.21193  0.14751  1.0000
  C   C3366     1.0  0.73384  0.21957  0.15478  1.0000
  C   C3367     1.0  0.72578  0.23518  0.16392  1.0000
  C   C3368     1.0  0.70596  0.24317  0.16611  1.0000
  C   C3369     1.0  0.69457  0.23563  0.15832  1.0000
  P   P113      1.0  0.69569  0.26354  0.17782  1.0000
  C   C3370     1.0  0.70241  0.25824  0.20102  1.0000
  C   C3371     1.0  0.70561  0.28423  0.16401  1.0000
  C   C3372     1.0  0.70328  0.29992  0.17264  1.0000
  C   C3373     1.0  0.71159  0.31568  0.16250  1.0000
  C   C3374     1.0  0.72222  0.31593  0.14367  1.0000
  C   C3375     1.0  0.72464  0.30037  0.13503  1.0000
  C   C3376     1.0  0.71639  0.28454  0.14514  1.0000
  C   C3377     1.0  0.68898  0.25462  0.21839  1.0000
  C   C3378     1.0  0.69394  0.25275  0.23605  1.0000
  C   C3379     1.0  0.71219  0.25479  0.23655  1.0000
  C   C3380     1.0  0.72567  0.25826  0.21939  1.0000
  C   C3381     1.0  0.72086  0.25984  0.20173  1.0000
  C   C3382     1.0  0.66973  0.26933  0.18070  1.0000
  C   C3383     1.0  0.65900  0.25489  0.18943  1.0000
  C   C3384     1.0  0.63901  0.25918  0.19129  1.0000
  C   C3385     1.0  0.62959  0.27786  0.18441  1.0000
  C   C3386     1.0  0.64007  0.29232  0.17579  1.0000
  C   C3387     1.0  0.66005  0.28813  0.17396  1.0000
  H   H2684     1.0  0.69385  0.21397  0.14364  1.0000
  H   H2685     1.0  0.72873  0.19996  0.14026  1.0000
  H   H2686     1.0  0.74902  0.21323  0.15341  1.0000
  H   H2687     1.0  0.73515  0.24104  0.16904  1.0000
  H   H2688     1.0  0.67948  0.24189  0.15871  1.0000
  H   H2689     1.0  0.69532  0.29982  0.18736  1.0000
  H   H2690     1.0  0.71025  0.32746  0.16943  1.0000
  H   H2691     1.0  0.72918  0.32787  0.13607  1.0000
  H   H2692     1.0  0.73376  0.30011  0.12086  1.0000
  H   H2693     1.0  0.71910  0.27235  0.13845  1.0000
  H   H2694     1.0  0.67441  0.25413  0.21848  1.0000
  H   H2695     1.0  0.68326  0.25076  0.24930  1.0000
  H   H2696     1.0  0.71569  0.25424  0.25016  1.0000
  H   H2697     1.0  0.73967  0.26031  0.21968  1.0000
  H   H2698     1.0  0.73127  0.26323  0.18854  1.0000
  H   H2699     1.0  0.66615  0.24026  0.19462  1.0000
  H   H2700     1.0  0.63077  0.24805  0.19811  1.0000
  H   H2701     1.0  0.61410  0.28132  0.18606  1.0000
  H   H2702     1.0  0.63255  0.30693  0.17104  1.0000
  H   H2703     1.0  0.66772  0.29969  0.16737  1.0000
  C   C3388     1.0  0.76889  0.24835  0.37822  1.0000
  C   C3389     1.0  0.77623  0.12837  0.19851  1.0000
  H   H2704     1.0  0.71245  0.07651  0.37355  1.0000
  H   H2705     1.0  0.65521  0.32976  0.00784  1.0000
  C   C3390     1.0  0.75306  0.27549  0.39363  1.0000
  C   C3391     1.0  0.75222  0.26161  0.38403  1.0000
  P   P114      1.0  0.73177  0.29261  0.40148  1.0000
  C   C3392     1.0  0.71008  0.28402  0.40426  1.0000
  C   C3393     1.0  0.73186  0.29496  0.42533  1.0000
  C   C3394     1.0  0.73943  0.27884  0.43838  1.0000
  C   C3395     1.0  0.73936  0.28034  0.45700  1.0000
  H   H2706     1.0  0.76316  0.45552  0.35116  1.0000
  C   C3396     1.0  0.72376  0.31399  0.44999  1.0000
  C   C3397     1.0  0.72355  0.31244  0.43143  1.0000
  C   C3398     1.0  0.69330  0.29676  0.39943  1.0000
  C   C3399     1.0  0.67661  0.28990  0.40161  1.0000
  C   C3400     1.0  0.67647  0.27035  0.40890  1.0000
  C   C3401     1.0  0.69291  0.25772  0.41433  1.0000
  C   C3402     1.0  0.70952  0.26458  0.41232  1.0000
  C   C3403     1.0  0.73296  0.31454  0.38345  1.0000
  C   C3404     1.0  0.74177  0.32851  0.38553  1.0000
  C   C3405     1.0  0.71471  0.03399  0.37599  1.0000
  C   C3406     1.0  0.73526  0.34826  0.35496  1.0000
  C   C3407     1.0  0.72735  0.33401  0.35231  1.0000
  C   C3408     1.0  0.72632  0.31714  0.36644  1.0000
  H   H2707     1.0  0.76799  0.23721  0.37158  1.0000
  H   H2708     1.0  0.76148  0.10174  0.34581  1.0000
  H   H2709     1.0  0.61666  0.21154  0.28311  1.0000
  H   H2710     1.0  0.61161  0.19662  0.35138  1.0000
  H   H2711     1.0  0.73874  0.26078  0.38124  1.0000
  H   H2712     1.0  0.74541  0.26510  0.43419  1.0000
  H   H2713     1.0  0.61368  0.18652  0.25625  1.0000
  H   H2714     1.0  0.75108  0.28186  0.25944  1.0000
  C   C3409     1.0  0.59185  0.20086  0.10915  1.0000
  H   H2715     1.0  0.71705  0.32491  0.42187  1.0000
  H   H2716     1.0  0.69302  0.31201  0.39414  1.0000
  C   C3410     1.0  0.76634  0.12166  0.45388  1.0000
  H   H2717     1.0  0.72197  0.25463  0.41692  1.0000
  C   C3411     1.0  0.69814  0.02681  0.38612  1.0000
  H   H2718     1.0  0.71512  0.04768  0.31142  1.0000
  H   H2719     1.0  0.73609  0.36136  0.34405  1.0000
  H   H2720     1.0  0.72217  0.33606  0.33920  1.0000
  H   H2721     1.0  0.72044  0.30611  0.36405  1.0000
  H   H2722     1.0  0.63406  0.36334  0.29068  1.0000
  H   H2723     1.0  0.59678  0.27572  0.01700  1.0000
  C   C3412     1.0  0.64111  0.05907  0.23233  1.0000
  C   C3413     1.0  0.63223  0.07701  0.23703  1.0000
  H   H2724     1.0  0.74029  0.11468  0.16511  1.0000
  S   S453      1.0  0.61055  0.17360  0.29984  1.0000
  C   C3414     1.0  0.64707  0.12678  0.26532  1.0000
  C   C3415     1.0  0.65515  0.12124  0.24763  1.0000
  C   C3416     1.0  0.64336  0.11772  0.23726  1.0000
  H   H2725     1.0  0.74656  0.39017  0.24652  1.0000
  H   H2726     1.0  0.65087  0.04895  0.24090  1.0000
  H   H2727     1.0  0.63512  0.08029  0.24944  1.0000
  H   H2728     1.0  0.75315  0.45425  0.27578  1.0000
  H   H2729     1.0  0.65600  0.12932  0.27358  1.0000
  H   H2730     1.0  0.67051  0.11961  0.24198  1.0000
  H   H2731     1.0  0.64976  0.11345  0.22352  1.0000
  C   C3417     1.0  0.67802  0.25155  0.05878  1.0000
  C   C3418     1.0  0.66599  0.25740  0.07534  1.0000
  C   C3419     1.0  0.65446  0.24529  0.08840  1.0000
  C   C3420     1.0  0.72235  0.24344  0.00769  1.0000
  C   C3421     1.0  0.72857  0.25870  0.99363  1.0000
  H   H2732     1.0  0.63994  0.23527  0.22979  1.0000
  C   C3422     1.0  0.74760  0.06570  0.33496  1.0000
  H   H2733     1.0  0.68733  0.26079  0.04919  1.0000
  H   H2734     1.0  0.66601  0.27106  0.07836  1.0000
  H   H2735     1.0  0.64559  0.24948  0.10157  1.0000
  H   H2736     1.0  0.73287  0.23046  0.01148  1.0000
  H   H2737     1.0  0.78324  0.19852  0.10801  1.0000
  C   C3423     1.0  0.70562  0.19227  0.24774  1.0000
  H   H2738     1.0  0.75141  0.20120  0.06364  1.0000
  C   C3424     1.0  0.59630  0.21110  0.14163  1.0000
  H   H2739     1.0  0.63543  0.22259  0.01443  1.0000
  C   C3425     1.0  0.59702  0.19461  0.35772  1.0000
  C   C3426     1.0  0.77460  0.23035  0.05869  1.0000
  C   C3427     1.0  0.76517  0.23706  0.07570  1.0000
  C   C3428     1.0  0.76771  0.22505  0.09355  1.0000
  P   P115      1.0  0.74945  0.26056  0.07500  1.0000
  C   C3429     1.0  0.74713  0.27207  0.05054  1.0000
  C   C3430     1.0  0.72619  0.25719  0.08965  1.0000
  C   C3431     1.0  0.71945  0.24077  0.09023  1.0000
  C   C3432     1.0  0.70130  0.23821  0.10118  1.0000
  C   C3433     1.0  0.68974  0.25200  0.11161  1.0000
  C   C3434     1.0  0.69634  0.26835  0.11116  1.0000
  C   C3435     1.0  0.71448  0.27100  0.10016  1.0000
  C   C3436     1.0  0.72957  0.27548  0.04470  1.0000
  C   C3437     1.0  0.72787  0.28530  0.02594  1.0000
  C   C3438     1.0  0.74372  0.29152  0.01284  1.0000
  H   H2740     1.0  0.78416  0.12388  0.03174  1.0000
  C   C3439     1.0  0.76293  0.27855  0.03737  1.0000
  C   C3440     1.0  0.75907  0.27663  0.08321  1.0000
  C   C3441     1.0  0.68530  0.46394  0.19130  1.0000
  C   C3442     1.0  0.75327  0.13128  0.03822  1.0000
  C   C3443     1.0  0.61557  0.08511  0.21056  1.0000
  C   C3444     1.0  0.76056  0.30936  0.08323  1.0000
  C   C3445     1.0  0.75260  0.29667  0.07789  1.0000
  H   H2741     1.0  0.77302  0.23916  0.04470  1.0000
  H   H2742     1.0  0.74533  0.26780  0.46692  1.0000
  H   H2743     1.0  0.72823  0.22986  0.08232  1.0000
  H   H2744     1.0  0.69620  0.22543  0.10171  1.0000
  H   H2745     1.0  0.67577  0.24980  0.12026  1.0000
  H   H2746     1.0  0.68747  0.27889  0.11949  1.0000
  H   H2747     1.0  0.71935  0.28372  0.10002  1.0000
  H   H2748     1.0  0.71718  0.27071  0.05456  1.0000
  H   H2749     1.0  0.71432  0.28796  0.02150  1.0000
  H   H2750     1.0  0.74030  0.21751  0.22230  1.0000
  C   C3446     1.0  0.70275  0.24500  0.01642  1.0000
  C   C3447     1.0  0.73514  0.21185  0.43002  1.0000
  S   S454      1.0  0.72679  0.21062  0.41006  1.0000
  H   H2751     1.0  0.64542  0.16486  0.25307  1.0000
  C   C3448     1.0  0.76157  0.38676  0.24757  1.0000
  C   C3449     1.0  0.76312  0.27470  0.26641  1.0000
  H   H2752     1.0  0.59732  0.27997  0.13802  1.0000
  C   C3450     1.0  0.73141  0.42066  0.21778  1.0000
  C   C3451     1.0  0.61903  0.13109  0.19276  1.0000
  S   S455      1.0  0.61938  0.12236  0.32669  1.0000
  H   H2753     1.0  0.60549  0.09490  0.20219  1.0000
  C   C3452     1.0  0.65950  0.20757  0.23240  1.0000
  C   C3453     1.0  0.64451  0.18012  0.24760  1.0000
  C   C3454     1.0  0.61795  0.15651  0.42917  1.0000
  H   H2754     1.0  0.65509  0.04637  0.33556  1.0000
  H   H2755     1.0  0.60422  0.17811  0.38434  1.0000
  C   C3455     1.0  0.70728  0.14820  0.21206  1.0000
  C   C3456     1.0  0.66119  0.18757  0.23907  1.0000
  C   C3457     1.0  0.63277  0.34649  0.27094  1.0000
  H   H2756     1.0  0.67210  0.21377  0.22577  1.0000
  H   H2757     1.0  0.62176  0.06335  0.19367  1.0000
  C   C3458     1.0  0.76103  0.06949  0.15695  1.0000
  C   C3459     1.0  0.59323  0.28933  0.27452  1.0000
  H   H2758     1.0  0.71782  0.32765  0.45446  1.0000
  Fe  Fe224     1.0  0.71685  0.18285  0.41483  1.0000
  C   C3460     1.0  0.73577  0.09110  0.36032  1.0000
  C   C3461     1.0  0.78101  0.12170  0.31162  1.0000
  C   C3462     1.0  0.69570  0.27667  0.99597  1.0000
  C   C3463     1.0  0.72879  0.02108  0.40448  1.0000
  C   C3464     1.0  0.63394  0.12739  0.38060  1.0000
  C   C3465     1.0  0.73833  0.08370  0.20920  1.0000
  H   H2759     1.0  0.76219  0.26910  0.18788  1.0000
  H   H2760     1.0  0.71942  0.14915  0.21733  1.0000
  H   H2761     1.0  0.72416  0.41846  0.29556  1.0000
  C   C3466     1.0  0.78209  0.21947  0.32321  1.0000
  C   C3467     1.0  0.74014  0.07907  0.22857  1.0000
  C   C3468     1.0  0.75445  0.08463  0.16701  1.0000
  C   C3469     1.0  0.76782  0.04221  0.20083  1.0000
  C   C3470     1.0  0.71080  0.18748  0.04842  1.0000
  C   C3471     1.0  0.65493  0.22735  0.08490  1.0000
  C   C3472     1.0  0.74168  0.10522  0.13946  1.0000
  P   P116      1.0  0.68444  0.17145  0.23759  1.0000
  H   H2762     1.0  0.70987  0.18718  0.20178  1.0000
  C   C3473     1.0  0.64110  0.36121  0.23699  1.0000
  C   C3474     1.0  0.59422  0.19576  0.29736  1.0000
  C   C3475     1.0  0.61254  0.16713  0.44366  1.0000
  H   H2763     1.0  0.77228  0.30995  0.27208  1.0000
  H   H2764     1.0  0.75532  0.11126  0.21374  1.0000
  C   C3476     1.0  0.76676  0.11334  0.20122  1.0000
  C   C3477     1.0  0.66684  0.22152  0.06834  1.0000
  H   H2765     1.0  0.64652  0.21767  0.09535  1.0000
  H   H2766     1.0  0.67415  0.26269  0.01617  1.0000
  S   S456      1.0  0.73464  0.15531  0.42801  1.0000
  C   C3478     1.0  0.63597  0.34572  0.25145  1.0000
  H   H2767     1.0  0.66359  0.26498  0.41056  1.0000
  C   C3479     1.0  0.59188  0.30875  0.26557  1.0000
  P   P117      1.0  0.75980  0.08218  0.19037  1.0000
  S   S457      1.0  0.76643  0.19867  0.00381  1.0000
  C   C3480     1.0  0.71223  0.01406  0.41451  1.0000
  C   C3481     1.0  0.74497  0.10259  0.15797  1.0000
  H   H2768     1.0  0.73421  0.11906  0.13269  1.0000
  H   H2769     1.0  0.62023  0.28183  0.23559  1.0000
  H   H2770     1.0  0.70005  0.45682  0.23761  1.0000
  C   C3482     1.0  0.75254  0.00232  0.32831  1.0000
  C   C3483     1.0  0.68039  0.28896  0.28656  1.0000
  H   H2771     1.0  0.77146  0.22238  0.31438  1.0000
  H   H2772     1.0  0.63880  0.07876  0.34199  1.0000
  C   C3484     1.0  0.73039  0.06511  0.34883  1.0000
  H   H2773     1.0  0.65340  0.33232  0.31065  1.0000
  Fe  Fe225     1.0  0.69033  0.16228  0.40492  1.0000
  H   H2774     1.0  0.71499  0.45046  0.18253  1.0000
  C   C3485     1.0  0.77368  0.28682  0.34173  1.0000
  H   H2775     1.0  0.63264  0.14855  0.42588  1.0000
  H   H2776     1.0  0.70070  0.10717  0.27932  1.0000
  C   C3486     1.0  0.72364  0.17329  0.05832  1.0000
  H   H2777     1.0  0.66739  0.20736  0.06605  1.0000
  H   H2778     1.0  0.68148  0.11757  0.30952  1.0000
  H   H2779     1.0  0.75424  0.07425  0.23224  1.0000
  C   C3487     1.0  0.62888  0.29262  0.22959  1.0000
  H   H2780     1.0  0.65335  0.20097  0.99176  1.0000
  H   H2781     1.0  0.73417  0.20672  0.19569  1.0000
  H   H2782     1.0  0.59554  0.35838  0.29529  1.0000
  C   C3488     1.0  0.73731  0.13025  0.01362  1.0000
  C   C3489     1.0  0.72468  0.43826  0.22385  1.0000
  C   C3490     1.0  0.71915  0.20381  0.24402  1.0000
  H   H2783     1.0  0.74198  0.10790  0.46531  1.0000
  C   C3491     1.0  0.76863  0.16555  0.27079  1.0000
  C   C3492     1.0  0.66133  0.29749  0.28492  1.0000
  Fe  Fe226     1.0  0.70633  0.14651  0.44175  1.0000
  C   C3493     1.0  0.74933  0.36758  0.30277  1.0000
  C   C3494     1.0  0.62725  0.12927  0.27241  1.0000
  C   C3495     1.0  0.60130  0.21243  0.28800  1.0000
  H   H2784     1.0  0.77252  0.20314  0.37882  1.0000
  C   C3496     1.0  0.63412  0.32296  0.20863  1.0000
  C   C3497     1.0  0.64658  0.12131  0.39350  1.0000
  C   C3498     1.0  0.70265  0.18546  0.23278  1.0000
  C   C3499     1.0  0.68277  0.12797  0.29595  1.0000
  H   H2785     1.0  0.72161  0.20886  0.25562  1.0000
  C   C3500     1.0  0.78652  0.24915  0.38154  1.0000
  C   C3501     1.0  0.67407  0.16041  0.27773  1.0000
  H   H2786     1.0  0.77166  0.07959  0.32268  1.0000
  C   C3502     1.0  0.72611  0.20276  0.21021  1.0000
  C   C3503     1.0  0.67304  0.14711  0.29532  1.0000
  H   H2787     1.0  0.66695  0.12907  0.40534  1.0000
  C   C3504     1.0  0.62904  0.23380  0.15746  1.0000
  C   C3505     1.0  0.68079  0.21661  0.02201  1.0000
  H   H2788     1.0  0.65279  0.23293  0.03334  1.0000
  H   H2789     1.0  0.75142  0.46674  0.17939  1.0000
  S   S458      1.0  0.61890  0.11222  0.38034  1.0000
  H   H2790     1.0  0.64761  0.10704  0.40257  1.0000
  C   C3506     1.0  0.66077  0.22332  0.02372  1.0000
  C   C3507     1.0  0.67659  0.33264  0.98150  1.0000
  C   C3508     1.0  0.61511  0.23502  0.17453  1.0000
  H   H2791     1.0  0.70459  0.28982  0.29760  1.0000
  C   C3509     1.0  0.62260  0.30908  0.21633  1.0000
  H   H2792     1.0  0.68831  0.27766  0.27880  1.0000
  C   C3510     1.0  0.67964  0.31130  0.30597  1.0000
  C   C3511     1.0  0.72955  0.20886  0.22526  1.0000
  H   H2793     1.0  0.69733  0.18888  0.26222  1.0000
  H   H2794     1.0  0.62945  0.33565  0.19821  1.0000
  C   C3512     1.0  0.77228  0.12250  0.00811  1.0000
  H   H2795     1.0  0.62809  0.14489  0.16320  1.0000
  H   H2796     1.0  0.70081  0.44198  0.27734  1.0000
  H   H2797     1.0  0.75385  0.04302  0.19790  1.0000
  H   H2798     1.0  0.77292  0.42382  0.26742  1.0000
  C   C3513     1.0  0.72898  0.43945  0.30855  1.0000
  Fe  Fe227     1.0  0.59883  0.10714  0.32188  1.0000
  H   H2799     1.0  0.78530  0.08421  0.42096  1.0000
  H   H2800     1.0  0.75537  0.12252  0.98775  1.0000
  C   C3514     1.0  0.66056  0.31982  0.30440  1.0000
  H   H2801     1.0  0.77250  0.43714  0.31914  1.0000
  C   C3515     1.0  0.65123  0.31293  0.29391  1.0000
  S   S459      1.0  0.77579  0.04200  0.38825  1.0000
  C   C3516     1.0  0.60901  0.16512  0.17988  1.0000
  H   H2802     1.0  0.68170  0.45108  0.20136  1.0000
  H   H2803     1.0  0.74913  0.35631  0.37327  1.0000
  H   H2804     1.0  0.60897  0.14791  0.40766  1.0000
  C   C3517     1.0  0.73006  0.03092  0.38530  1.0000
  H   H2805     1.0  0.74004  0.41103  0.39469  1.0000
  C   C3518     1.0  0.73476  0.02222  0.30412  1.0000
  C   C3519     1.0  0.61244  0.33338  0.31093  1.0000
  H   H2806     1.0  0.76668  0.37735  0.20835  1.0000
  H   H2807     1.0  0.64811  0.38920  0.23068  1.0000
  H   H2808     1.0  0.75898  0.28620  0.34881  1.0000
  P   P118      1.0  0.73674  0.46643  0.32442  1.0000
  H   H2809     1.0  0.77670  0.27587  0.04151  1.0000
  C   C3520     1.0  0.59273  0.18393  0.37649  1.0000
  C   C3521     1.0  0.76121  0.28820  0.01859  1.0000
  H   H2810     1.0  0.73142  0.10067  0.37041  1.0000
  C   C3522     1.0  0.77096  0.27672  0.39618  1.0000
  C   C3523     1.0  0.78164  0.28232  0.09917  1.0000
  C   C3524     1.0  0.75580  0.10780  0.45537  1.0000
  H   H2811     1.0  0.68610  0.02892  0.37934  1.0000
  C   C3525     1.0  0.72490  0.07755  0.36186  1.0000
  C   C3526     1.0  0.71527  0.27534  0.98783  1.0000
  H   H2812     1.0  0.61071  0.22147  0.24439  1.0000
  C   C3527     1.0  0.65373  0.07310  0.34323  1.0000
  H   H2813     1.0  0.69287  0.47634  0.27971  1.0000
  H   H2814     1.0  0.72243  0.13813  0.04068  1.0000
  C   C3528     1.0  0.77109  0.02792  0.25861  1.0000
  H   H2815     1.0  0.62226  0.18822  0.10525  1.0000
  H   H2816     1.0  0.74665  0.01193  0.35480  1.0000
  C   C3529     1.0  0.61601  0.29191  0.29199  1.0000
  C   C3530     1.0  0.77851  0.00825  0.26388  1.0000
  C   C3531     1.0  0.77466  0.16150  0.46538  1.0000
  S   S460      1.0  0.78571  0.22426  0.18233  1.0000
  P   P119      1.0  0.60867  0.11374  0.23171  1.0000
  C   C3532     1.0  0.72904  0.03117  0.33512  1.0000
  H   H2817     1.0  0.64356  0.39046  0.26493  1.0000
  H   H2818     1.0  0.60072  0.33496  0.26320  1.0000
  C   C3533     1.0  0.73294  0.20559  0.46454  1.0000
  H   H2819     1.0  0.75252  0.13394  0.05227  1.0000
  C   C3534     1.0  0.63752  0.05425  0.21658  1.0000
  H   H2820     1.0  0.71359  0.41541  0.37765  1.0000
  H   H2821     1.0  0.75270  0.05589  0.32508  1.0000
  C   C3535     1.0  0.66287  0.05475  0.33980  1.0000
  H   H2822     1.0  0.76344  0.98991  0.33266  1.0000
  H   H2823     1.0  0.77269  0.01144  0.21110  1.0000
  C   C3536     1.0  0.77194  0.10148  0.18765  1.0000
  H   H2824     1.0  0.77067  0.34485  0.31498  1.0000
  C   C3537     1.0  0.75516  0.12473  0.00182  1.0000
  C   C3538     1.0  0.60525  0.28092  0.28776  1.0000
  H   H2825     1.0  0.62539  0.30910  0.33075  1.0000
  C   C3539     1.0  0.74298  0.01490  0.34081  1.0000
  H   H2826     1.0  0.74448  0.06706  0.40829  1.0000
  H   H2827     1.0  0.74823  0.32637  0.39784  1.0000
  H   H2828     1.0  0.68855  0.03274  0.33958  1.0000
  H   H2829     1.0  0.74068  0.01907  0.41151  1.0000
  H   H2830     1.0  0.73986  0.17571  0.00462  1.0000
  H   H2831     1.0  0.62098  0.13404  0.28588  1.0000
  C   C3540     1.0  0.70405  0.46356  0.18056  1.0000
  H   H2832     1.0  0.59015  0.19662  0.09669  1.0000
  C   C3541     1.0  0.78538  0.19453  0.40386  1.0000
  C   C3542     1.0  0.77009  0.36793  0.25516  1.0000
  C   C3543     1.0  0.77787  0.19125  0.38960  1.0000
  C   C3544     1.0  0.76415  0.18721  0.98647  1.0000
  H   H2833     1.0  0.62610  0.19731  0.13412  1.0000
  C   C3545     1.0  0.59769  0.34992  0.30935  1.0000
  C   C3546     1.0  0.65088  0.21768  0.01288  1.0000
  H   H2834     1.0  0.60980  0.17735  0.16798  1.0000
  C   C3547     1.0  0.61506  0.31135  0.28275  1.0000
  H   H2835     1.0  0.77208  0.28779  0.40291  1.0000
  C   C3548     1.0  0.73174  0.29797  0.46272  1.0000
  C   C3549     1.0  0.68085  0.19920  0.99810  1.0000
  C   C3550     1.0  0.66093  0.20556  0.00009  1.0000
  S   S461      1.0  0.74094  0.45342  0.22005  1.0000
  H   H2836     1.0  0.76543  0.41579  0.23590  1.0000
  H   H2837     1.0  0.76181  0.35672  0.25969  1.0000
  H   H2838     1.0  0.77056  0.16998  0.37882  1.0000
  C   C3551     1.0  0.61702  0.28652  0.99201  1.0000
  C   C3552     1.0  0.77539  0.17481  0.25188  1.0000
  H   H2839     1.0  0.76936  0.05613  0.26258  1.0000
  H   H2840     1.0  0.62920  0.27572  0.99630  1.0000
  H   H2841     1.0  0.59216  0.16623  0.25485  1.0000
  H   H2842     1.0  0.62497  0.28525  0.30254  1.0000
  H   H2843     1.0  0.77364  0.29266  0.00832  1.0000
  S   S462      1.0  0.59239  0.26028  0.23707  1.0000
  H   H2844     1.0  0.78136  0.31192  0.09801  1.0000
  H   H2845     1.0  0.78629  0.08381  0.02559  1.0000
  H   H2846     1.0  0.77908  0.25436  0.09832  1.0000
  C   C3553     1.0  0.77510  0.30217  0.09386  1.0000
  C   C3554     1.0  0.77849  0.02429  0.20822  1.0000
  H   H2847     1.0  0.59825  0.21468  0.15435  1.0000
  C   C3555     1.0  0.78047  0.46858  0.17850  1.0000
  C   C3556     1.0  0.77672  0.17259  0.38960  1.0000
  S   S463      1.0  0.70203  0.12915  0.47246  1.0000
  H   H2848     1.0  0.77332  0.32343  0.43172  1.0000
  H   H2849     1.0  0.78622  0.20897  0.40400  1.0000
  C   C3557     1.0  0.78664  0.21209  0.05955  1.0000
  H   H2850     1.0  0.77896  0.99980  0.40707  1.0000
  H   H2851     1.0  0.77605  0.15743  0.34421  1.0000
  H   H2852     1.0  0.77485  0.30684  0.35818  1.0000
  C   C3558     1.0  0.78403  0.12195  0.44072  1.0000
  S   S464      1.0  0.77761  0.39395  0.34867  1.0000
  C   C3559     1.0  0.78029  0.37021  0.20075  1.0000
  H   H2853     1.0  0.78303  0.27039  0.23984  1.0000
  C   C3560     1.0  0.78019  0.09447  0.43039  1.0000
  Fe  Fe228     1.0  0.78611  0.21980  0.99186  1.0000
  H   H2854     1.0  0.76487  0.01384  0.16714  1.0000
  C   C3561     1.0  0.76804  0.99866  0.17378  1.0000
  C   C3562     1.0  0.77228  0.40123  0.24172  1.0000
  C   C3563     1.0  0.68916  0.23159  0.47132  1.0000
  C   C3564     1.0  0.75301  0.98878  0.18156  1.0000
  C   C3565     1.0  0.78114  0.26824  0.25537  1.0000
  H   H2855     1.0  0.78682  0.17690  0.14187  1.0000
  Fe  Fe229     1.0  0.78737  0.24308  0.15298  1.0000
  H   H2856     1.0  0.78255  0.11126  0.30302  1.0000
  H   H2857     1.0  0.78177  0.14291  0.40373  1.0000
  C   C3566     1.0  0.78287  0.15722  0.40395  1.0000
  C   C3567     1.0  0.78631  0.03466  0.28118  1.0000
  C   C3568     1.0  0.78445  0.31676  0.42115  1.0000
  H   H2858     1.0  0.78684  0.18267  0.24881  1.0000
  Fe  Fe230     1.0  0.78184  0.22757  0.47602  1.0000
  H   H2859     1.0  0.77315  0.18058  0.22205  1.0000
  C   C3569     1.0  0.78658  0.10502  0.17133  1.0000
  H   H2860     1.0  0.77923  0.39103  0.17415  1.0000
  H   H2861     1.0  0.59100  0.18209  0.20027  1.0000
  H   H2862     1.0  0.58947  0.18567  0.45917  1.0000
  C   C3570     1.0  0.78760  0.26358  0.39011  1.0000
  C   C3571     1.0  0.78635  0.07684  0.37875  1.0000
  C   C3572     1.0  0.78267  0.29854  0.34726  1.0000
  C   C3573     1.0  0.78378  0.27595  0.32763  1.0000
  H   H2863     1.0  0.60391  0.31929  0.35995  1.0000
  C   C3574     1.0  0.60228  0.32791  0.34582  1.0000
  H   H2864     1.0  0.78791  0.18878  0.32519  1.0000
  C   C3575     1.0  0.78624  0.23465  0.32872  1.0000
  H   H2865     1.0  0.78410  0.34709  0.22476  1.0000
  C   C3576     1.0  0.78694  0.98906  0.17498  1.0000
  S   S465      1.0  0.78724  0.25719  0.47109  1.0000
  C   C3577     1.0  0.70859  0.47995  0.16718  1.0000
  C   C3578     1.0  0.58859  0.23021  0.28462  1.0000
  C   C3579     1.0  0.74684  0.16865  0.97647  1.0000
  H   H2866     1.0  0.65663  0.48067  0.19714  1.0000
  H   H2867     1.0  0.78703  0.44921  0.38483  1.0000
  H   H2868     1.0  0.72011  0.28724  0.97706  1.0000
  C   C3580     1.0  0.78737  0.37789  0.18146  1.0000
  C   C3581     1.0  0.66075  0.36700  0.83430  1.0000
  C   C3582     1.0  0.75736  0.13339  0.71720  1.0000
  Fe  Fe231     1.0  0.73716  0.32890  0.85423  1.0000
  S   S466      1.0  0.71570  0.34496  0.83571  1.0000
  S   S467      1.0  0.76931  0.32521  0.84622  1.0000
  Fe  Fe232     1.0  0.70645  0.31725  0.88854  1.0000
  S   S468      1.0  0.68215  0.33294  0.87341  1.0000
  S   S469      1.0  0.70360  0.29575  0.91652  1.0000
  Fe  Fe233     1.0  0.70058  0.32002  0.84844  1.0000
  S   S470      1.0  0.69137  0.30252  0.83220  1.0000
  Fe  Fe234     1.0  0.69921  0.35657  0.86224  1.0000
  S   S471      1.0  0.68644  0.38868  0.85734  1.0000
  S   S472      1.0  0.72389  0.30314  0.86432  1.0000
  S   S473      1.0  0.72176  0.34190  0.87988  1.0000
  H   H2869     1.0  0.74898  0.20293  0.57044  1.0000
  H   H2870     1.0  0.68611  0.06860  0.74221  1.0000
  C   C3583     1.0  0.73594  0.25545  0.84684  1.0000
  C   C3584     1.0  0.68521  0.25087  0.95830  1.0000
  C   C3585     1.0  0.67271  0.05172  0.71976  1.0000
  C   C3586     1.0  0.63366  0.10598  0.94968  1.0000
  C   C3587     1.0  0.65784  0.35379  0.82522  1.0000
  S   S474      1.0  0.71150  0.15734  0.92322  1.0000
  Fe  Fe235     1.0  0.60749  0.15053  0.73281  1.0000
  C   C3588     1.0  0.75004  0.98937  0.73896  1.0000
  S   S475      1.0  0.62561  0.17221  0.71603  1.0000
  H   H2871     1.0  0.70486  0.20794  0.79558  1.0000
  H   H2872     1.0  0.63171  0.07655  0.95274  1.0000
  C   C3589     1.0  0.62313  0.36403  0.83521  1.0000
  S   S476      1.0  0.61482  0.13061  0.75983  1.0000
  S   S477      1.0  0.75569  0.16062  0.94007  1.0000
  Fe  Fe236     1.0  0.68310  0.02998  0.87996  1.0000
  S   S478      1.0  0.68578  0.04763  0.84980  1.0000
  S   S479      1.0  0.67577  0.04337  0.90633  1.0000
  S   S480      1.0  0.68978  0.00729  0.83524  1.0000
  Fe  Fe237     1.0  0.70923  0.02260  0.84197  1.0000
  S   S481      1.0  0.73938  0.02319  0.82499  1.0000
  Fe  Fe238     1.0  0.66607  0.03059  0.84609  1.0000
  S   S482      1.0  0.63821  0.04522  0.83619  1.0000
  S   S483      1.0  0.66192  0.01424  0.87684  1.0000
  Fe  Fe239     1.0  0.71301  0.12216  0.60813  1.0000
  S   S484      1.0  0.71292  0.14325  0.62546  1.0000
  S   S485      1.0  0.71963  0.09098  0.62299  1.0000
  Fe  Fe240     1.0  0.70550  0.15290  0.57232  1.0000
  S   S486      1.0  0.70549  0.17608  0.58714  1.0000
  S   S487      1.0  0.70138  0.16669  0.54168  1.0000
  Fe  Fe241     1.0  0.73078  0.15663  0.59815  1.0000
  S   S488      1.0  0.75845  0.16518  0.59635  1.0000
  Fe  Fe242     1.0  0.68739  0.16062  0.61298  1.0000
  S   S489      1.0  0.66171  0.18051  0.62688  1.0000
  S   S490      1.0  0.73262  0.13449  0.58137  1.0000
  S   S491      1.0  0.68565  0.13848  0.59772  1.0000
  C   C3590     1.0  0.72417  0.29160  0.51905  1.0000
  C   C3591     1.0  0.64498  0.37864  0.84396  1.0000
  S   S492      1.0  0.69932  0.44253  0.90641  1.0000
  C   C3592     1.0  0.71949  0.41092  0.81003  1.0000
  H   H2873     1.0  0.76257  0.09878  0.66836  1.0000
  C   C3593     1.0  0.63390  0.10986  0.91046  1.0000
  C   C3594     1.0  0.74125  0.43046  0.83367  1.0000
  H   H2874     1.0  0.68406  0.28026  0.95809  1.0000
  Fe  Fe243     1.0  0.68727  0.99218  0.86631  1.0000
  H   H2875     1.0  0.63580  0.33682  0.88242  1.0000
  H   H2876     1.0  0.59273  0.33578  0.90600  1.0000
  C   C3595     1.0  0.70626  0.23566  0.79927  1.0000
  C   C3596     1.0  0.78631  0.16667  0.49124  1.0000
  C   C3597     1.0  0.73364  0.42148  0.79942  1.0000
  C   C3598     1.0  0.65567  0.27537  0.95987  1.0000
  H   H2877     1.0  0.72483  0.38056  0.78014  1.0000
  Fe  Fe244     1.0  0.72775  0.15051  0.94681  1.0000
  C   C3599     1.0  0.74383  0.41060  0.84168  1.0000
  H   H2878     1.0  0.67405  0.27581  0.82312  1.0000
  H   H2879     1.0  0.76276  0.32044  0.78321  1.0000
  H   H2880     1.0  0.70581  0.38779  0.81175  1.0000
  C   C3600     1.0  0.72709  0.39214  0.78537  1.0000
  C   C3601     1.0  0.70231  0.15540  0.52279  1.0000
  C   C3602     1.0  0.70395  0.16646  0.50394  1.0000
  C   C3603     1.0  0.70419  0.15849  0.48840  1.0000
  C   C3604     1.0  0.70267  0.13931  0.49160  1.0000
  C   C3605     1.0  0.70143  0.12805  0.51041  1.0000
  C   C3606     1.0  0.70136  0.13603  0.52598  1.0000
  H   H2881     1.0  0.70500  0.18130  0.50139  1.0000
  H   H2882     1.0  0.64802  0.00402  0.82032  1.0000
  H   H2883     1.0  0.70033  0.11316  0.51298  1.0000
  H   H2884     1.0  0.70020  0.12733  0.54043  1.0000
  C   C3607     1.0  0.74197  0.08485  0.63020  1.0000
  H   H2885     1.0  0.73656  0.05824  0.64931  1.0000
  C   C3608     1.0  0.74247  0.02808  0.79989  1.0000
  C   C3609     1.0  0.72699  0.03708  0.79072  1.0000
  H   H2886     1.0  0.71251  0.04001  0.79921  1.0000
  C   C3610     1.0  0.63537  0.17344  0.69130  1.0000
  C   C3611     1.0  0.63697  0.19153  0.67965  1.0000
  C   C3612     1.0  0.64544  0.19330  0.66005  1.0000
  C   C3613     1.0  0.65323  0.17695  0.65200  1.0000
  C   C3614     1.0  0.65222  0.15865  0.66372  1.0000
  C   C3615     1.0  0.64287  0.15694  0.68334  1.0000
  H   H2887     1.0  0.63139  0.20430  0.68575  1.0000
  H   H2888     1.0  0.64601  0.20746  0.65106  1.0000
  H   H2889     1.0  0.65802  0.14599  0.65750  1.0000
  H   H2890     1.0  0.64172  0.14296  0.69238  1.0000
  C   C3616     1.0  0.62984  0.07052  0.77434  1.0000
  C   C3617     1.0  0.64629  0.05627  0.77762  1.0000
  C   C3618     1.0  0.64964  0.04888  0.79649  1.0000
  C   C3619     1.0  0.63597  0.05501  0.81211  1.0000
  C   C3620     1.0  0.61951  0.06908  0.80875  1.0000
  C   C3621     1.0  0.61666  0.07709  0.78993  1.0000
  H   H2891     1.0  0.65655  0.05112  0.76560  1.0000
  H   H2892     1.0  0.66242  0.03809  0.79899  1.0000
  H   H2893     1.0  0.60894  0.07390  0.82078  1.0000
  C   C3622     1.0  0.60479  0.33238  0.81668  1.0000
  C   C3623     1.0  0.71086  0.08168  0.89411  1.0000
  C   C3624     1.0  0.59046  0.40210  0.82277  1.0000
  C   C3625     1.0  0.75849  0.18244  0.60897  1.0000
  Fe  Fe245     1.0  0.59512  0.26209  0.85525  1.0000
  H   H2894     1.0  0.72278  0.08573  0.88289  1.0000
  C   C3626     1.0  0.68833  0.08602  0.92395  1.0000
  C   C3627     1.0  0.68032  0.07088  0.92306  1.0000
  C   C3628     1.0  0.68704  0.06158  0.90736  1.0000
  C   C3629     1.0  0.70244  0.06697  0.89292  1.0000
  H   H2895     1.0  0.68265  0.09342  0.93584  1.0000
  H   H2896     1.0  0.66878  0.06640  0.93452  1.0000
  C   C3630     1.0  0.65336  0.30852  0.85155  1.0000
  H   H2897     1.0  0.61607  0.19432  0.78114  1.0000
  H   H2898     1.0  0.59364  0.07112  0.74145  1.0000
  C   C3631     1.0  0.74676  0.06761  0.64336  1.0000
  H   H2899     1.0  0.77933  0.04972  0.81528  1.0000
  C   C3632     1.0  0.63993  0.21305  0.91567  1.0000
  H   H2900     1.0  0.61884  0.22655  0.89783  1.0000
  H   H2901     1.0  0.64731  0.22494  0.91100  1.0000
  C   C3633     1.0  0.68556  0.09821  0.84692  1.0000
  C   C3634     1.0  0.77438  0.17971  0.95453  1.0000
  C   C3635     1.0  0.59647  0.09289  0.69409  1.0000
  H   H2902     1.0  0.70062  0.24687  0.95744  1.0000
  C   C3636     1.0  0.59488  0.34772  0.87557  1.0000
  C   C3637     1.0  0.69086  0.40341  0.87073  1.0000
  C   C3638     1.0  0.69853  0.39550  0.88734  1.0000
  C   C3639     1.0  0.70108  0.40765  0.89811  1.0000
  C   C3640     1.0  0.69643  0.42779  0.89214  1.0000
  C   C3641     1.0  0.68889  0.43569  0.87547  1.0000
  C   C3642     1.0  0.68600  0.42354  0.86488  1.0000
  H   H2903     1.0  0.70212  0.38005  0.89214  1.0000
  H   H2904     1.0  0.70671  0.40144  0.91112  1.0000
  H   H2905     1.0  0.63848  0.28622  0.92719  1.0000
  H   H2906     1.0  0.67983  0.42978  0.85221  1.0000
  H   H2907     1.0  0.65664  0.31961  0.85661  1.0000
  C   C3643     1.0  0.72234  0.29436  0.92785  1.0000
  C   C3644     1.0  0.73148  0.27646  0.93711  1.0000
  C   C3645     1.0  0.74657  0.27522  0.94614  1.0000
  C   C3646     1.0  0.75192  0.29197  0.94666  1.0000
  C   C3647     1.0  0.74267  0.30989  0.93747  1.0000
  C   C3648     1.0  0.72807  0.31106  0.92786  1.0000
  H   H2908     1.0  0.72703  0.26360  0.93703  1.0000
  H   H2909     1.0  0.75370  0.26142  0.95315  1.0000
  H   H2910     1.0  0.74676  0.32289  0.93786  1.0000
  H   H2911     1.0  0.72089  0.32495  0.92093  1.0000
  H   H2912     1.0  0.64740  0.38876  0.85111  1.0000
  H   H2913     1.0  0.70858  0.24196  0.78397  1.0000
  H   H2914     1.0  0.68315  0.27415  0.53615  1.0000
  C   C3649     1.0  0.60237  0.08154  0.71088  1.0000
  C   C3650     1.0  0.76555  0.32241  0.81110  1.0000
  C   C3651     1.0  0.77242  0.32146  0.79165  1.0000
  H   H2915     1.0  0.67014  0.34444  0.81811  1.0000
  C   C3652     1.0  0.75893  0.44952  0.79625  1.0000
  H   H2916     1.0  0.75068  0.32189  0.81768  1.0000
  H   H2917     1.0  0.69559  0.33348  0.95355  1.0000
  H   H2918     1.0  0.64567  0.10329  0.70452  1.0000
  C   C3653     1.0  0.78206  0.09178  0.94648  1.0000
  H   H2919     1.0  0.70119  0.12329  0.87071  1.0000
  C   C3654     1.0  0.69803  0.10687  0.85167  1.0000
  C   C3655     1.0  0.78327  0.18895  0.69433  1.0000
  H   H2920     1.0  0.77692  0.30276  0.60797  1.0000
  C   C3656     1.0  0.74810  0.22511  0.92108  1.0000
  C   C3657     1.0  0.67265  0.31905  0.95637  1.0000
  S   S493      1.0  0.75242  0.22109  0.48186  1.0000
  C   C3658     1.0  0.63494  0.12557  0.91747  1.0000
  S   S494      1.0  0.66735  0.19547  0.93739  1.0000
  C   C3659     1.0  0.77028  0.14840  0.65489  1.0000
  S   S495      1.0  0.76265  0.22690  0.64039  1.0000
  C   C3660     1.0  0.74960  0.22702  0.93912  1.0000
  C   C3661     1.0  0.73724  0.21982  0.95589  1.0000
  C   C3662     1.0  0.72380  0.20996  0.95481  1.0000
  C   C3663     1.0  0.72234  0.20771  0.93695  1.0000
  C   C3664     1.0  0.73440  0.21531  0.92012  1.0000
  C   C3665     1.0  0.60602  0.10153  0.87415  1.0000
  H   H2921     1.0  0.66971  0.12410  0.70593  1.0000
  C   C3666     1.0  0.71300  0.47006  0.79046  1.0000
  H   H2922     1.0  0.66060  0.06119  0.72693  1.0000
  C   C3667     1.0  0.67866  0.09306  0.66428  1.0000
  H   H2923     1.0  0.69712  0.01228  0.75923  1.0000
  C   C3668     1.0  0.59847  0.35225  0.81588  1.0000
  H   H2924     1.0  0.63395  0.10438  0.96472  1.0000
  C   C3669     1.0  0.60832  0.15257  0.64249  1.0000
  C   C3670     1.0  0.59718  0.13849  0.64760  1.0000
  C   C3671     1.0  0.62409  0.06264  0.87877  1.0000
  H   H2925     1.0  0.76828  0.19143  0.90859  1.0000
  C   C3672     1.0  0.74257  0.00881  0.73239  1.0000
  C   C3673     1.0  0.63660  0.31041  0.90379  1.0000
  H   H2926     1.0  0.72427  0.06702  0.71151  1.0000
  H   H2927     1.0  0.76050  0.23374  0.94038  1.0000
  C   C3674     1.0  0.75157  0.20597  0.68878  1.0000
  C   C3675     1.0  0.67565  0.26990  0.95885  1.0000
  H   H2928     1.0  0.71223  0.19959  0.93622  1.0000
  H   H2929     1.0  0.73353  0.21291  0.90648  1.0000
  C   C3676     1.0  0.63014  0.14513  0.85599  1.0000
  H   H2930     1.0  0.63899  0.11695  0.64577  1.0000
  P   P120      1.0  0.63491  0.11236  0.88500  1.0000
  C   C3677     1.0  0.74498  0.08197  0.69109  1.0000
  H   H2931     1.0  0.71497  0.20354  0.96789  1.0000
  C   C3678     1.0  0.76044  0.23140  0.78816  1.0000
  C   C3679     1.0  0.68800  0.22000  0.50559  1.0000
  C   C3680     1.0  0.69818  0.23377  0.50552  1.0000
  S   S496      1.0  0.59963  0.12863  0.72173  1.0000
  P   P121      1.0  0.70282  0.23559  0.52793  1.0000
  C   C3681     1.0  0.71094  0.25761  0.52470  1.0000
  C   C3682     1.0  0.68030  0.23521  0.54530  1.0000
  C   C3683     1.0  0.66302  0.24648  0.54019  1.0000
  C   C3684     1.0  0.64539  0.24546  0.55313  1.0000
  C   C3685     1.0  0.64485  0.23295  0.57115  1.0000
  C   C3686     1.0  0.66193  0.22151  0.57624  1.0000
  C   C3687     1.0  0.67956  0.22268  0.56340  1.0000
  C   C3688     1.0  0.73042  0.25820  0.51671  1.0000
  C   C3689     1.0  0.73702  0.27509  0.51403  1.0000
  H   H2932     1.0  0.73286  0.98508  0.82558  1.0000
  H   H2933     1.0  0.77249  0.29194  0.58055  1.0000
  C   C3690     1.0  0.69816  0.27420  0.52989  1.0000
  C   C3691     1.0  0.72177  0.21632  0.53600  1.0000
  C   C3692     1.0  0.72901  0.21715  0.55164  1.0000
  H   H2934     1.0  0.74417  0.13120  0.49990  1.0000
  H   H2935     1.0  0.68378  0.20988  0.51880  1.0000
  H   H2936     1.0  0.66318  0.25582  0.52606  1.0000
  H   H2937     1.0  0.63210  0.25407  0.54906  1.0000
  H   H2938     1.0  0.63121  0.23185  0.58108  1.0000
  H   H2939     1.0  0.66153  0.21144  0.59004  1.0000
  H   H2940     1.0  0.69249  0.21347  0.56755  1.0000
  H   H2941     1.0  0.74053  0.24560  0.51244  1.0000
  C   C3693     1.0  0.66777  0.29791  0.83954  1.0000
  H   H2942     1.0  0.64602  0.07058  0.88772  1.0000
  H   H2943     1.0  0.73205  0.29923  0.47700  1.0000
  H   H2944     1.0  0.72306  0.22904  0.55901  1.0000
  C   C3694     1.0  0.63708  0.18132  0.93488  1.0000
  C   C3695     1.0  0.62076  0.18240  0.92770  1.0000
  C   C3696     1.0  0.71651  0.45882  0.80834  1.0000
  H   H2945     1.0  0.65456  0.13784  0.73487  1.0000
  C   C3697     1.0  0.71641  0.39617  0.80315  1.0000
  C   C3698     1.0  0.67306  0.03197  0.72397  1.0000
  C   C3699     1.0  0.68827  0.01959  0.71451  1.0000
  C   C3700     1.0  0.70308  0.02700  0.70071  1.0000
  C   C3701     1.0  0.65622  0.31278  0.96836  1.0000
  H   H2946     1.0  0.71421  0.05226  0.68551  1.0000
  H   H2947     1.0  0.73524  0.11925  0.65416  1.0000
  H   H2948     1.0  0.70217  0.11432  0.66857  1.0000
  H   H2949     1.0  0.66140  0.02637  0.73448  1.0000
  C   C3702     1.0  0.64554  0.26154  0.95987  1.0000
  H   H2950     1.0  0.71479  0.01745  0.69321  1.0000
  H   H2951     1.0  0.73636  0.27026  0.64659  1.0000
  C   C3703     1.0  0.59234  0.36413  0.79928  1.0000
  S   S497      1.0  0.62563  0.08015  0.75084  1.0000
  C   C3704     1.0  0.77625  0.43715  0.79001  1.0000
  H   H2952     1.0  0.63603  0.13572  0.94215  1.0000
  C   C3705     1.0  0.73382  0.25091  0.88117  1.0000
  H   H2953     1.0  0.72637  0.19929  0.47898  1.0000
  H   H2954     1.0  0.61421  0.38632  0.85205  1.0000
  H   H2955     1.0  0.68075  0.98452  0.81327  1.0000
  H   H2956     1.0  0.77276  0.21954  0.69213  1.0000
  P   P122      1.0  0.73781  0.43988  0.80919  1.0000
  C   C3706     1.0  0.72639  0.07862  0.69910  1.0000
  H   H2957     1.0  0.67598  0.20801  0.48866  1.0000
  C   C3707     1.0  0.76912  0.07447  0.58595  1.0000
  C   C3708     1.0  0.77508  0.47656  0.78369  1.0000
  C   C3709     1.0  0.77579  0.23974  0.78721  1.0000
  C   C3710     1.0  0.74373  0.41792  0.78118  1.0000
  C   C3711     1.0  0.78214  0.24128  0.58038  1.0000
  H   H2958     1.0  0.72948  0.26180  0.83431  1.0000
  H   H2959     1.0  0.77533  0.28177  0.85124  1.0000
  H   H2960     1.0  0.73868  0.22118  0.96980  1.0000
  H   H2961     1.0  0.61328  0.17058  0.93245  1.0000
  H   H2962     1.0  0.59790  0.32997  0.77336  1.0000
  C   C3712     1.0  0.68347  0.21897  0.48855  1.0000
  H   H2963     1.0  0.71862  0.05092  0.76352  1.0000
  H   H2964     1.0  0.75913  0.29182  0.64103  1.0000
  H   H2965     1.0  0.75712  0.07278  0.69696  1.0000
  H   H2966     1.0  0.60069  0.13943  0.90058  1.0000
  C   C3713     1.0  0.70416  0.21653  0.80581  1.0000
  C   C3714     1.0  0.70274  0.46172  0.82516  1.0000
  C   C3715     1.0  0.62102  0.16364  0.84810  1.0000
  S   S498      1.0  0.67826  0.13611  0.95417  1.0000
  H   H2967     1.0  0.71292  0.10542  0.84408  1.0000
  C   C3716     1.0  0.67991  0.98449  0.78398  1.0000
  C   C3717     1.0  0.65193  0.10289  0.68949  1.0000
  H   H2968     1.0  0.64199  0.34024  0.93790  1.0000
  C   C3718     1.0  0.67802  0.09511  0.72195  1.0000
  C   C3719     1.0  0.68592  0.47590  0.82420  1.0000
  H   H2969     1.0  0.60366  0.16739  0.77737  1.0000
  C   C3720     1.0  0.70281  0.04675  0.69653  1.0000
  C   C3721     1.0  0.61956  0.30034  0.97478  1.0000
  C   C3722     1.0  0.59625  0.19785  0.80793  1.0000
  C   C3723     1.0  0.71395  0.10510  0.67502  1.0000
  H   H2970     1.0  0.67753  0.31651  0.94185  1.0000
  C   C3724     1.0  0.71083  0.08976  0.69073  1.0000
  C   C3725     1.0  0.70526  0.24674  0.81251  1.0000
  H   H2971     1.0  0.60980  0.32303  0.82918  1.0000
  H   H2972     1.0  0.74452  0.40025  0.83327  1.0000
  C   C3726     1.0  0.60694  0.06897  0.87200  1.0000
  C   C3727     1.0  0.67917  0.08368  0.74038  1.0000
  C   C3728     1.0  0.77802  0.32363  0.82204  1.0000
  C   C3729     1.0  0.63490  0.12361  0.93695  1.0000
  H   H2973     1.0  0.73961  0.14644  0.52757  1.0000
  H   H2974     1.0  0.76078  0.16233  0.65191  1.0000
  S   S499      1.0  0.75396  0.05108  0.73517  1.0000
  C   C3730     1.0  0.76095  0.20942  0.62884  1.0000
  C   C3731     1.0  0.74377  0.20248  0.55806  1.0000
  C   C3732     1.0  0.59785  0.08840  0.86978  1.0000
  H   H2975     1.0  0.64066  0.00590  0.76362  1.0000
  H   H2976     1.0  0.77875  0.23104  0.85879  1.0000
  C   C3733     1.0  0.60660  0.14607  0.88597  1.0000
  H   H2977     1.0  0.78402  0.17379  0.50310  1.0000
  H   H2978     1.0  0.77305  0.01702  0.79602  1.0000
  H   H2979     1.0  0.60398  0.08809  0.78757  1.0000
  H   H2980     1.0  0.65469  0.11685  0.76756  1.0000
  C   C3734     1.0  0.60358  0.31431  0.96968  1.0000
  Fe  Fe246     1.0  0.59275  0.23042  0.83645  1.0000
  C   C3735     1.0  0.72522  0.25791  0.86509  1.0000
  C   C3736     1.0  0.68285  0.32881  0.96295  1.0000
  H   H2981     1.0  0.60395  0.35720  0.87546  1.0000
  H   H2982     1.0  0.76981  0.28210  0.81932  1.0000
  C   C3737     1.0  0.76454  0.03000  0.76879  1.0000
  C   C3738     1.0  0.62346  0.09530  0.88071  1.0000
  H   H2983     1.0  0.68240  0.22259  0.95736  1.0000
  C   C3739     1.0  0.78193  0.11134  0.94371  1.0000
  Fe  Fe247     1.0  0.68525  0.16568  0.94523  1.0000
  S   S500      1.0  0.71317  0.11155  0.90887  1.0000
  S   S501      1.0  0.76921  0.29110  0.95966  1.0000
  P   P123      1.0  0.75452  0.14847  0.69386  1.0000
  P   P124      1.0  0.64321  0.30017  0.95953  1.0000
  H   H2984     1.0  0.72029  0.99299  0.79578  1.0000
  H   H2985     1.0  0.59020  0.05933  0.64480  1.0000
  C   C3740     1.0  0.70406  0.24626  0.48810  1.0000
  C   C3741     1.0  0.78688  0.11819  0.95748  1.0000
  H   H2986     1.0  0.73976  0.45849  0.83906  1.0000
  C   C3742     1.0  0.78431  0.12117  0.67721  1.0000
  C   C3743     1.0  0.78495  0.21374  0.89598  1.0000
  H   H2987     1.0  0.62795  0.01496  0.79556  1.0000
  H   H2988     1.0  0.63022  0.26545  0.96009  1.0000
  H   H2989     1.0  0.67120  0.08264  0.77100  1.0000
  C   C3744     1.0  0.75653  0.28764  0.62894  1.0000
  C   C3745     1.0  0.76702  0.13154  0.53466  1.0000
  H   H2990     1.0  0.78465  0.19493  0.76498  1.0000
  C   C3746     1.0  0.68783  0.05918  0.70637  1.0000
  C   C3747     1.0  0.70928  0.11274  0.74385  1.0000
  C   C3748     1.0  0.71901  0.09532  0.75327  1.0000
  C   C3749     1.0  0.71817  0.09205  0.77308  1.0000
  C   C3750     1.0  0.70676  0.10578  0.78365  1.0000
  C   C3751     1.0  0.69595  0.12284  0.77450  1.0000
  C   C3752     1.0  0.69776  0.12644  0.75443  1.0000
  P   P125      1.0  0.67886  0.13919  0.78861  1.0000
  C   C3753     1.0  0.65832  0.12865  0.80214  1.0000
  C   C3754     1.0  0.69027  0.14459  0.80509  1.0000
  C   C3755     1.0  0.67894  0.15264  0.82079  1.0000
  C   C3756     1.0  0.68765  0.15677  0.83367  1.0000
  C   C3757     1.0  0.70773  0.15309  0.83083  1.0000
  C   C3758     1.0  0.71912  0.14560  0.81494  1.0000
  C   C3759     1.0  0.71045  0.14148  0.80201  1.0000
  C   C3760     1.0  0.64022  0.14055  0.80727  1.0000
  C   C3761     1.0  0.62425  0.13248  0.81729  1.0000
  C   C3762     1.0  0.62615  0.11253  0.82240  1.0000
  C   C3763     1.0  0.64410  0.10059  0.81774  1.0000
  C   C3764     1.0  0.66008  0.10854  0.80761  1.0000
  C   C3765     1.0  0.67075  0.16152  0.77264  1.0000
  C   C3766     1.0  0.65518  0.16350  0.76396  1.0000
  C   C3767     1.0  0.64883  0.18080  0.75176  1.0000
  C   C3768     1.0  0.65812  0.19613  0.74783  1.0000
  C   C3769     1.0  0.67386  0.19417  0.75608  1.0000
  C   C3770     1.0  0.68020  0.17692  0.76843  1.0000
  H   H2991     1.0  0.71008  0.11527  0.72845  1.0000
  H   H2992     1.0  0.72730  0.08443  0.74515  1.0000
  H   H2993     1.0  0.72607  0.07868  0.78030  1.0000
  H   H2994     1.0  0.70590  0.10279  0.79908  1.0000
  H   H2995     1.0  0.68962  0.13937  0.74697  1.0000
  H   H2996     1.0  0.66340  0.15576  0.82310  1.0000
  H   H2997     1.0  0.67880  0.16247  0.84607  1.0000
  H   H2998     1.0  0.71956  0.13590  0.78967  1.0000
  H   H2999     1.0  0.63827  0.15609  0.80345  1.0000
  H   H3000     1.0  0.61030  0.14167  0.82110  1.0000
  H   H3001     1.0  0.61369  0.10631  0.82987  1.0000
  H   H3002     1.0  0.64559  0.08509  0.82198  1.0000
  H   H3003     1.0  0.67359  0.09876  0.80407  1.0000
  H   H3004     1.0  0.64769  0.15186  0.76675  1.0000
  H   H3005     1.0  0.63645  0.18243  0.74557  1.0000
  H   H3006     1.0  0.65297  0.20957  0.73849  1.0000
  H   H3007     1.0  0.68097  0.20615  0.75305  1.0000
  H   H3008     1.0  0.69235  0.17573  0.77473  1.0000
  C   C3771     1.0  0.74522  0.40380  0.86101  1.0000
  C   C3772     1.0  0.64958  0.00125  0.77433  1.0000
  C   C3773     1.0  0.78239  0.20723  0.77146  1.0000
  H   H3009     1.0  0.61819  0.15445  0.62862  1.0000
  H   H3010     1.0  0.75768  0.17857  0.48617  1.0000
  C   C3774     1.0  0.78067  0.22506  0.55036  1.0000
  C   C3775     1.0  0.76112  0.02409  0.78889  1.0000
  Fe  Fe248     1.0  0.60505  0.10907  0.74988  1.0000
  H   H3011     1.0  0.60521  0.40056  0.81471  1.0000
  C   C3776     1.0  0.65521  0.24261  0.95894  1.0000
  H   H3012     1.0  0.59879  0.12947  0.63752  1.0000
  C   C3777     1.0  0.76407  0.28755  0.59481  1.0000
  C   C3778     1.0  0.76660  0.29377  0.61029  1.0000
  H   H3013     1.0  0.59830  0.18790  0.85316  1.0000
  H   H3014     1.0  0.67524  0.36815  0.83398  1.0000
  H   H3015     1.0  0.70489  0.45300  0.83902  1.0000
  C   C3779     1.0  0.77129  0.28816  0.89666  1.0000
  P   P126      1.0  0.76473  0.23359  0.89952  1.0000
  H   H3016     1.0  0.60518  0.32521  0.95656  1.0000
  C   C3780     1.0  0.61422  0.19863  0.91421  1.0000
  H   H3017     1.0  0.74138  0.21944  0.68579  1.0000
  C   C3781     1.0  0.67089  0.09162  0.75676  1.0000
  C   C3782     1.0  0.74937  0.04025  0.75970  1.0000
  H   H3018     1.0  0.72921  0.30476  0.51671  1.0000
  S   S502      1.0  0.70195  0.16111  0.96812  1.0000
  H   H3019     1.0  0.63596  0.13931  0.90788  1.0000
  C   C3783     1.0  0.77560  0.18875  0.60585  1.0000
  C   C3784     1.0  0.75538  0.12757  0.50818  1.0000
  Fe  Fe249     1.0  0.70619  0.12722  0.93365  1.0000
  H   H3020     1.0  0.64103  0.26901  0.83310  1.0000
  H   H3021     1.0  0.75579  0.10720  0.70984  1.0000
  C   C3785     1.0  0.66699  0.10116  0.65068  1.0000
  H   H3022     1.0  0.69343  0.08591  0.65961  1.0000
  H   H3023     1.0  0.71043  0.26599  0.86667  1.0000
  C   C3786     1.0  0.73260  0.10827  0.66702  1.0000
  C   C3787     1.0  0.64787  0.11035  0.65641  1.0000
  Fe  Fe250     1.0  0.70443  0.47302  0.89427  1.0000
  C   C3788     1.0  0.77150  0.16961  0.48147  1.0000
  C   C3789     1.0  0.67248  0.11810  0.87713  1.0000
  S   S503      1.0  0.60604  0.21631  0.81066  1.0000
  C   C3790     1.0  0.60700  0.16414  0.65538  1.0000
  C   C3791     1.0  0.65365  0.00010  0.80633  1.0000
  H   H3024     1.0  0.77778  0.08658  0.93600  1.0000
  H   H3025     1.0  0.70684  0.26163  0.80749  1.0000
  C   C3792     1.0  0.77683  0.20207  0.61577  1.0000
  C   C3793     1.0  0.78721  0.07904  0.96301  1.0000
  C   C3794     1.0  0.63869  0.34066  0.90960  1.0000
  S   S504      1.0  0.60586  0.28800  0.85640  1.0000
  C   C3795     1.0  0.64055  0.33170  0.92853  1.0000
  C   C3796     1.0  0.63235  0.09034  0.94294  1.0000
  C   C3797     1.0  0.59816  0.33622  0.78512  1.0000
  C   C3798     1.0  0.77296  0.25369  0.90235  1.0000
  H   H3026     1.0  0.75323  0.27584  0.88681  1.0000
  S   S505      1.0  0.78603  0.02781  0.69368  1.0000
  C   C3799     1.0  0.77469  0.08905  0.57053  1.0000
  H   H3027     1.0  0.74861  0.40025  0.76035  1.0000
  H   H3028     1.0  0.76212  0.08634  0.74071  1.0000
  C   C3800     1.0  0.74936  0.19009  0.87386  1.0000
  C   C3801     1.0  0.75180  0.17007  0.87745  1.0000
  C   C3802     1.0  0.73708  0.16184  0.87632  1.0000
  C   C3803     1.0  0.71976  0.17361  0.87206  1.0000
  C   C3804     1.0  0.71680  0.19373  0.86947  1.0000
  C   C3805     1.0  0.73196  0.20187  0.86983  1.0000
  P   P127      1.0  0.69438  0.20938  0.86450  1.0000
  C   C3806     1.0  0.69911  0.21982  0.83900  1.0000
  C   C3807     1.0  0.67529  0.19629  0.87050  1.0000
  C   C3808     1.0  0.66179  0.20060  0.85869  1.0000
  C   C3809     1.0  0.64713  0.19025  0.86344  1.0000
  C   C3810     1.0  0.64567  0.17583  0.88008  1.0000
  C   C3811     1.0  0.65894  0.17160  0.89198  1.0000
  C   C3812     1.0  0.67336  0.18217  0.88750  1.0000
  C   C3813     1.0  0.70171  0.23887  0.83229  1.0000
  C   C3814     1.0  0.70076  0.20860  0.82559  1.0000
  C   C3815     1.0  0.68614  0.22750  0.87908  1.0000
  C   C3816     1.0  0.69302  0.22500  0.89590  1.0000
  C   C3817     1.0  0.68754  0.23965  0.90639  1.0000
  C   C3818     1.0  0.67470  0.25663  0.90053  1.0000
  C   C3819     1.0  0.66686  0.25872  0.88447  1.0000
  C   C3820     1.0  0.67239  0.24413  0.87390  1.0000
  H   H3029     1.0  0.76083  0.19648  0.87451  1.0000
  H   H3030     1.0  0.76501  0.16091  0.88129  1.0000
  H   H3031     1.0  0.73884  0.14627  0.87939  1.0000
  H   H3032     1.0  0.70864  0.16680  0.87135  1.0000
  H   H3033     1.0  0.73014  0.21732  0.86736  1.0000
  H   H3034     1.0  0.66218  0.21222  0.84612  1.0000
  H   H3035     1.0  0.63651  0.19382  0.85453  1.0000
  H   H3036     1.0  0.63371  0.16861  0.88423  1.0000
  H   H3037     1.0  0.65755  0.16081  0.90520  1.0000
  H   H3038     1.0  0.68276  0.17951  0.89752  1.0000
  H   H3039     1.0  0.70073  0.24784  0.84225  1.0000
  H   H3040     1.0  0.69903  0.19383  0.83050  1.0000
  H   H3041     1.0  0.70238  0.21166  0.90112  1.0000
  H   H3042     1.0  0.69316  0.23781  0.91915  1.0000
  H   H3043     1.0  0.67070  0.26803  0.90858  1.0000
  H   H3044     1.0  0.65650  0.27164  0.88017  1.0000
  H   H3045     1.0  0.66604  0.24592  0.86160  1.0000
  C   C3821     1.0  0.76371  0.21519  0.78023  1.0000
  H   H3046     1.0  0.76469  0.30281  0.89073  1.0000
  C   C3822     1.0  0.76370  0.23820  0.86080  1.0000
  H   H3047     1.0  0.74599  0.23770  0.79482  1.0000
  C   C3823     1.0  0.76668  0.24853  0.57082  1.0000
  C   C3824     1.0  0.76591  0.24013  0.55596  1.0000
  P   P128      1.0  0.74756  0.26822  0.57744  1.0000
  C   C3825     1.0  0.72561  0.25923  0.58346  1.0000
  C   C3826     1.0  0.75105  0.27550  0.59780  1.0000
  C   C3827     1.0  0.74084  0.26956  0.61656  1.0000
  C   C3828     1.0  0.74366  0.27556  0.63205  1.0000
  C   C3829     1.0  0.75523  0.09692  0.62258  1.0000
  S   S506      1.0  0.72468  0.11974  0.95579  1.0000
  H   H3048     1.0  0.77797  0.05161  0.60904  1.0000
  C   C3830     1.0  0.70889  0.27034  0.57710  1.0000
  C   C3831     1.0  0.69211  0.26293  0.58203  1.0000
  C   C3832     1.0  0.69196  0.24440  0.59328  1.0000
  C   C3833     1.0  0.70866  0.23312  0.59933  1.0000
  C   C3834     1.0  0.72543  0.24048  0.59441  1.0000
  C   C3835     1.0  0.74770  0.28936  0.55819  1.0000
  C   C3836     1.0  0.76153  0.28903  0.54097  1.0000
  C   C3837     1.0  0.76336  0.30598  0.52721  1.0000
  C   C3838     1.0  0.75124  0.32346  0.53046  1.0000
  C   C3839     1.0  0.73728  0.32395  0.54751  1.0000
  C   C3840     1.0  0.73561  0.30700  0.56140  1.0000
  C   C3841     1.0  0.63677  0.33000  0.89722  1.0000
  H   H3049     1.0  0.76232  0.13585  0.76146  1.0000
  H   H3050     1.0  0.71105  0.41381  0.82389  1.0000
  H   H3051     1.0  0.73329  0.18907  0.68573  1.0000
  H   H3052     1.0  0.75408  0.24551  0.54844  1.0000
  H   H3053     1.0  0.73116  0.25983  0.61946  1.0000
  C   C3842     1.0  0.65988  0.10928  0.87259  1.0000
  H   H3054     1.0  0.63737  0.34171  0.81873  1.0000
  H   H3055     1.0  0.76834  0.04917  0.65894  1.0000
  H   H3056     1.0  0.70873  0.28465  0.56834  1.0000
  H   H3057     1.0  0.67918  0.27155  0.57722  1.0000
  H   H3058     1.0  0.67893  0.23871  0.59734  1.0000
  H   H3059     1.0  0.70864  0.21864  0.60785  1.0000
  H   H3060     1.0  0.73829  0.23156  0.59919  1.0000
  S   S507      1.0  0.59417  0.19919  0.90497  1.0000
  H   H3061     1.0  0.76502  0.98334  0.73357  1.0000
  H   H3062     1.0  0.75287  0.33662  0.51988  1.0000
  H   H3063     1.0  0.72812  0.33755  0.55020  1.0000
  H   H3064     1.0  0.72536  0.30772  0.57493  1.0000
  C   C3843     1.0  0.76481  0.27272  0.89443  1.0000
  H   H3065     1.0  0.64213  0.16873  0.94518  1.0000
  C   C3844     1.0  0.62384  0.21397  0.90819  1.0000
  H   H3066     1.0  0.62325  0.31406  0.86512  1.0000
  C   C3845     1.0  0.72919  0.15268  0.69333  1.0000
  C   C3846     1.0  0.72304  0.15203  0.67694  1.0000
  C   C3847     1.0  0.70338  0.15656  0.67658  1.0000
  C   C3848     1.0  0.68973  0.16194  0.69247  1.0000
  C   C3849     1.0  0.69566  0.16272  0.70880  1.0000
  C   C3850     1.0  0.71528  0.15800  0.70931  1.0000
  H   H3067     1.0  0.73321  0.14830  0.66428  1.0000
  H   H3068     1.0  0.69868  0.15625  0.66383  1.0000
  H   H3069     1.0  0.67457  0.16582  0.69201  1.0000
  H   H3070     1.0  0.68497  0.16731  0.72090  1.0000
  H   H3071     1.0  0.71962  0.15898  0.72198  1.0000
  H   H3072     1.0  0.63915  0.35580  0.90439  1.0000
  S   S508      1.0  0.70815  0.00623  0.87247  1.0000
  H   H3073     1.0  0.75398  0.42645  0.77218  1.0000
  C   C3851     1.0  0.67144  0.09449  0.68364  1.0000
  C   C3852     1.0  0.75172  0.18709  0.54864  1.0000
  C   C3853     1.0  0.62327  0.13641  0.87512  1.0000
  C   C3854     1.0  0.77226  0.11407  0.50353  1.0000
  H   H3074     1.0  0.71242  0.25660  0.48749  1.0000
  H   H3075     1.0  0.78430  0.18061  0.94079  1.0000
  S   S509      1.0  0.73328  0.47608  0.89650  1.0000
  H   H3076     1.0  0.76458  0.13821  0.54687  1.0000
  H   H3077     1.0  0.74617  0.38860  0.86735  1.0000
  H   H3078     1.0  0.61566  0.17501  0.65140  1.0000
  H   H3079     1.0  0.64244  0.13758  0.84715  1.0000
  P   P129      1.0  0.68704  0.08474  0.70079  1.0000
  C   C3855     1.0  0.71889  0.98575  0.75966  1.0000
  H   H3080     1.0  0.67297  0.10048  0.63565  1.0000
  C   C3856     1.0  0.62623  0.37718  0.84444  1.0000
  H   H3081     1.0  0.68855  0.00428  0.71776  1.0000
  H   H3082     1.0  0.75169  0.01774  0.72191  1.0000
  C   C3857     1.0  0.66996  0.11488  0.72006  1.0000
  C   C3858     1.0  0.78240  0.19464  0.90219  1.0000
  C   C3859     1.0  0.75312  0.24092  0.87914  1.0000
  H   H3083     1.0  0.62554  0.11842  0.68027  1.0000
  H   H3084     1.0  0.75103  0.17464  0.52538  1.0000
  H   H3085     1.0  0.76301  0.17562  0.55378  1.0000
  H   H3086     1.0  0.77139  0.27584  0.53829  1.0000
  C   C3860     1.0  0.70478  0.29115  0.52700  1.0000
  C   C3861     1.0  0.66167  0.11099  0.75480  1.0000
  H   H3087     1.0  0.75213  0.27535  0.50796  1.0000
  C   C3862     1.0  0.63913  0.35228  0.82566  1.0000
  C   C3863     1.0  0.67235  0.98922  0.80218  1.0000
  H   H3088     1.0  0.77449  0.30547  0.51419  1.0000
  H   H3089     1.0  0.59881  0.11654  0.87205  1.0000
  C   C3864     1.0  0.74478  0.41663  0.87230  1.0000
  C   C3865     1.0  0.74309  0.43626  0.86421  1.0000
  C   C3866     1.0  0.74136  0.44316  0.84498  1.0000
  C   C3867     1.0  0.74056  0.40317  0.77429  1.0000
  H   H3090     1.0  0.74528  0.41149  0.88745  1.0000
  H   H3091     1.0  0.74262  0.44621  0.87300  1.0000
  C   C3868     1.0  0.74808  0.09672  0.67503  1.0000
  H   H3092     1.0  0.72469  0.19991  0.51438  1.0000
  C   C3869     1.0  0.75917  0.17018  0.95831  1.0000
  C   C3870     1.0  0.77337  0.09152  0.62759  1.0000
  C   C3871     1.0  0.70355  0.09160  0.90936  1.0000
  H   H3093     1.0  0.70788  0.05977  0.88087  1.0000
  C   C3872     1.0  0.72985  0.20088  0.52656  1.0000
  C   C3873     1.0  0.60430  0.18926  0.79187  1.0000
  C   C3874     1.0  0.63450  0.30528  0.85645  1.0000
  C   C3875     1.0  0.66317  0.28375  0.83279  1.0000
  H   H3094     1.0  0.75176  0.11020  0.61241  1.0000
  C   C3876     1.0  0.73048  0.04325  0.77057  1.0000
  H   H3095     1.0  0.77310  0.25261  0.79292  1.0000
  C   C3877     1.0  0.75281  0.13625  0.52374  1.0000
  C   C3878     1.0  0.64672  0.19663  0.92881  1.0000
  C   C3879     1.0  0.74239  0.18956  0.62223  1.0000
  H   H3096     1.0  0.72912  0.18460  0.62482  1.0000
  H   H3097     1.0  0.69072  0.09011  0.83554  1.0000
  H   H3098     1.0  0.76337  0.24339  0.83061  1.0000
  H   H3099     1.0  0.68479  0.45116  0.87110  1.0000
  C   C3880     1.0  0.77063  0.13842  0.67397  1.0000
  H   H3100     1.0  0.71447  0.15592  0.84103  1.0000
  H   H3101     1.0  0.73124  0.20874  0.64237  1.0000
  C   C3881     1.0  0.77817  0.07436  0.64081  1.0000
  H   H3102     1.0  0.73469  0.14281  0.81275  1.0000
  P   P130      1.0  0.59883  0.36225  0.83586  1.0000
  C   C3882     1.0  0.75774  0.11359  0.72078  1.0000
  H   H3103     1.0  0.71803  0.03219  0.73509  1.0000
  H   H3104     1.0  0.76747  0.36842  0.89785  1.0000
  C   C3883     1.0  0.74365  0.20308  0.63221  1.0000
  H   H3105     1.0  0.76491  0.10063  0.76680  1.0000
  C   C3884     1.0  0.71168  0.00550  0.75341  1.0000
  S   S510      1.0  0.61195  0.23187  0.85530  1.0000
  C   C3885     1.0  0.74488  0.18642  0.53279  1.0000
  H   H3106     1.0  0.77905  0.02740  0.76046  1.0000
  C   C3886     1.0  0.76055  0.17125  0.69196  1.0000
  C   C3887     1.0  0.64031  0.11112  0.67582  1.0000
  C   C3888     1.0  0.76120  0.12962  0.75004  1.0000
  H   H3107     1.0  0.63518  0.30204  0.89429  1.0000
  H   H3108     1.0  0.75173  0.20892  0.78071  1.0000
  H   H3109     1.0  0.63121  0.04761  0.88028  1.0000
  C   C3889     1.0  0.63240  0.07571  0.88301  1.0000
  C   C3890     1.0  0.63002  0.29079  0.85019  1.0000
  C   C3891     1.0  0.64444  0.27994  0.83836  1.0000
  C   C3892     1.0  0.74711  0.18866  0.68863  1.0000
  C   C3893     1.0  0.63858  0.30140  0.92261  1.0000
  C   C3894     1.0  0.75868  0.14139  0.73216  1.0000
  H   H3110     1.0  0.63219  0.07966  0.91854  1.0000
  C   C3895     1.0  0.64080  0.31189  0.93510  1.0000
  C   C3896     1.0  0.67501  0.23725  0.95829  1.0000
  Fe  Fe251     1.0  0.58812  0.22328  0.87966  1.0000
  C   C3897     1.0  0.75505  0.24528  0.84475  1.0000
  C   C3898     1.0  0.64232  0.00623  0.79237  1.0000
  H   H3111     1.0  0.72559  0.25388  0.89505  1.0000
  C   C3899     1.0  0.63259  0.09220  0.92340  1.0000
  C   C3900     1.0  0.69142  0.11698  0.86663  1.0000
  H   H3112     1.0  0.76952  0.36401  0.80160  1.0000
  C   C3901     1.0  0.76267  0.10977  0.75306  1.0000
  H   H3113     1.0  0.69488  0.30396  0.53093  1.0000
  H   H3114     1.0  0.75772  0.15670  0.73013  1.0000
  H   H3115     1.0  0.64750  0.23207  0.95837  1.0000
  C   C3902     1.0  0.76114  0.10174  0.73836  1.0000
  C   C3903     1.0  0.72350  0.01692  0.73975  1.0000
  C   C3904     1.0  0.60451  0.32437  0.80147  1.0000
  H   H3116     1.0  0.75425  0.07280  0.58997  1.0000
  H   H3117     1.0  0.61732  0.07432  0.71048  1.0000
  C   C3905     1.0  0.76474  0.06249  0.64884  1.0000
  H   H3118     1.0  0.65710  0.09287  0.85312  1.0000
  C   C3906     1.0  0.66156  0.12274  0.73644  1.0000
  H   H3119     1.0  0.66789  0.12566  0.88891  1.0000
  H   H3120     1.0  0.72328  0.46776  0.77727  1.0000
  C   C3907     1.0  0.66652  0.09954  0.85721  1.0000
  H   H3121     1.0  0.62629  0.17055  0.83339  1.0000
  C   C3908     1.0  0.59723  0.17407  0.78969  1.0000
  H   H3122     1.0  0.60914  0.30892  0.80251  1.0000
  H   H3123     1.0  0.60096  0.05880  0.86814  1.0000
  C   C3909     1.0  0.75858  0.46926  0.79341  1.0000
  H   H3124     1.0  0.59414  0.17008  0.68369  1.0000
  H   H3125     1.0  0.76391  0.09828  0.56270  1.0000
  H   H3126     1.0  0.77415  0.10712  0.49165  1.0000
  C   C3910     1.0  0.78391  0.11785  0.53022  1.0000
  H   H3127     1.0  0.78607  0.11366  0.69152  1.0000
  H   H3128     1.0  0.67546  0.47811  0.83734  1.0000
  H   H3129     1.0  0.78017  0.21896  0.53861  1.0000
  C   C3911     1.0  0.78392  0.05799  0.78431  1.0000
  H   H3130     1.0  0.60694  0.09415  0.68062  1.0000
  C   C3912     1.0  0.78647  0.10918  0.51451  1.0000
  H   H3131     1.0  0.78055  0.44671  0.83066  1.0000
  H   H3132     1.0  0.77739  0.12137  0.93121  1.0000
  C   C3913     1.0  0.58983  0.34722  0.85852  1.0000
  Fe  Fe252     1.0  0.78383  0.04229  0.71782  1.0000
  C   C3914     1.0  0.76946  0.20606  0.69200  1.0000
  H   H3133     1.0  0.78549  0.41398  0.82507  1.0000
  H   H3134     1.0  0.77384  0.47741  0.88774  1.0000
  H   H3135     1.0  0.67379  0.98657  0.75612  1.0000
  C   C3915     1.0  0.77887  0.17159  0.69420  1.0000
  C   C3916     1.0  0.59216  0.35611  0.78399  1.0000
  H   H3136     1.0  0.77692  0.42184  0.79267  1.0000
  C   C3917     1.0  0.58843  0.33566  0.89299  1.0000
  H   H3137     1.0  0.78698  0.06392  0.96529  1.0000
  H   H3138     1.0  0.76995  0.06758  0.78441  1.0000
  C   C3918     1.0  0.78392  0.27574  0.82270  1.0000
  C   C3919     1.0  0.66830  0.99035  0.77015  1.0000
  C   C3920     1.0  0.77667  0.18846  0.96843  1.0000
  H   H3139     1.0  0.74569  0.47906  0.79887  1.0000
  C   C3921     1.0  0.78212  0.14037  0.63945  1.0000
  H   H3140     1.0  0.78609  0.13348  0.95543  1.0000
  C   C3922     1.0  0.78091  0.37151  0.80011  1.0000
  C   C3923     1.0  0.58906  0.07980  0.72839  1.0000
  H   H3141     1.0  0.78216  0.36240  0.82997  1.0000
  H   H3142     1.0  0.78301  0.24724  0.59207  1.0000
  H   H3143     1.0  0.78350  0.38159  0.76940  1.0000
  C   C3924     1.0  0.59472  0.16151  0.67347  1.0000
  H   H3144     1.0  0.78371  0.10065  0.62107  1.0000
  H   H3145     1.0  0.78444  0.38834  0.86936  1.0000
  Fe  Fe253     1.0  0.78584  0.26184  0.97151  1.0000
  Fe  Fe254     1.0  0.69728  0.13094  0.97568  1.0000
  C   C3925     1.0  0.78157  0.34166  0.88887  1.0000
  C   C3926     1.0  0.78576  0.28473  0.90705  1.0000
  C   C3927     1.0  0.77794  0.36164  0.88688  1.0000
  H   H3146     1.0  0.77384  0.33300  0.90129  1.0000
  H   H3147     1.0  0.78147  0.14783  0.62478  1.0000
  C   C3928     1.0  0.78759  0.37289  0.87065  1.0000
  C   C3929     1.0  0.59756  0.16462  0.87803  1.0000
  C   C3930     1.0  0.60494  0.17343  0.85921  1.0000
  C   C3931     1.0  0.78704  0.27552  0.84075  1.0000
  H   H3148     1.0  0.78671  0.99158  0.77678  1.0000
  C   C3932     1.0  0.78248  0.06252  0.59673  1.0000
  C   C3933     1.0  0.78761  0.25042  0.91264  1.0000
  H   H3149     1.0  0.58833  0.21365  0.72067  1.0000
  C   C3934     1.0  0.68790  0.85791  0.10864  1.0000
  C   C3935     1.0  0.61961  0.75437  0.20010  1.0000
  C   C3936     1.0  0.69864  0.94539  0.24408  1.0000
  S   S511      1.0  0.67068  0.70886  0.01814  1.0000
  H   H3150     1.0  0.74576  0.68849  0.18703  1.0000
  C   C3937     1.0  0.68986  0.83778  0.46478  1.0000
  C   C3938     1.0  0.64290  0.51267  0.12472  1.0000
  C   C3939     1.0  0.64846  0.57234  0.27948  1.0000
  H   H3151     1.0  0.66520  0.52262  0.13098  1.0000
  H   H3152     1.0  0.72870  0.91203  0.35254  1.0000
  C   C3940     1.0  0.66532  0.74638  0.39298  1.0000
  Fe  Fe255     1.0  0.67319  0.76065  0.43477  1.0000
  S   S512      1.0  0.69964  0.76684  0.41300  1.0000
  S   S513      1.0  0.64590  0.75998  0.42602  1.0000
  Fe  Fe256     1.0  0.70137  0.78598  0.43156  1.0000
  S   S514      1.0  0.70857  0.81542  0.42171  1.0000
  C   C3941     1.0  0.62615  0.70216  0.38830  1.0000
  H   H3153     1.0  0.69224  0.72975  0.19313  1.0000
  C   C3942     1.0  0.68638  0.63143  0.23803  1.0000
  H   H3154     1.0  0.68213  0.68182  0.29875  1.0000
  C   C3943     1.0  0.71460  0.69889  0.22805  1.0000
  H   H3155     1.0  0.74687  0.61075  0.41441  1.0000
  C   C3944     1.0  0.78310  0.78762  0.31966  1.0000
  Fe  Fe257     1.0  0.70505  0.83458  0.24341  1.0000
  S   S515      1.0  0.73028  0.81416  0.23039  1.0000
  S   S516      1.0  0.68779  0.82035  0.27084  1.0000
  Fe  Fe258     1.0  0.71830  0.86969  0.21634  1.0000
  S   S517      1.0  0.74498  0.85156  0.20163  1.0000
  S   S518      1.0  0.71539  0.90181  0.20446  1.0000
  Fe  Fe259     1.0  0.72524  0.83265  0.20198  1.0000
  S   S519      1.0  0.73113  0.81820  0.17666  1.0000
  Fe  Fe260     1.0  0.74741  0.83480  0.23139  1.0000
  S   S520      1.0  0.77356  0.82201  0.24457  1.0000
  S   S521      1.0  0.69818  0.85168  0.21485  1.0000
  S   S522      1.0  0.72251  0.85434  0.24611  1.0000
  Fe  Fe261     1.0  0.73993  0.51752  0.23376  1.0000
  S   S523      1.0  0.75074  0.50366  0.20818  1.0000
  S   S524      1.0  0.76328  0.52496  0.24348  1.0000
  Fe  Fe262     1.0  0.69865  0.51809  0.23399  1.0000
  S   S525      1.0  0.70602  0.50463  0.20803  1.0000
  S   S526      1.0  0.66859  0.52774  0.25001  1.0000
  C   C3945     1.0  0.77846  0.67991  0.44449  1.0000
  H   H3156     1.0  0.60154  0.67489  0.31494  1.0000
  Fe  Fe263     1.0  0.72672  0.52467  0.19610  1.0000
  S   S527      1.0  0.73466  0.53921  0.16495  1.0000
  S   S528      1.0  0.72071  0.49664  0.24928  1.0000
  S   S529      1.0  0.71716  0.53993  0.22080  1.0000
  S   S530      1.0  0.67342  0.78199  0.45188  1.0000
  C   C3946     1.0  0.73094  0.69010  0.21622  1.0000
  C   C3947     1.0  0.67542  0.75017  0.22611  1.0000
  S   S531      1.0  0.63573  0.73178  0.97976  1.0000
  H   H3157     1.0  0.74149  0.93839  0.35609  1.0000
  H   H3158     1.0  0.71118  0.96442  0.21914  1.0000
  C   C3948     1.0  0.71585  0.96331  0.32170  1.0000
  H   H3159     1.0  0.66798  0.80595  0.21265  1.0000
  Fe  Fe264     1.0  0.67700  0.72920  0.13893  1.0000
  S   S532      1.0  0.65781  0.75641  0.12661  1.0000
  S   S533      1.0  0.67097  0.70057  0.15643  1.0000
  Fe  Fe265     1.0  0.71295  0.74577  0.12328  1.0000
  S   S534      1.0  0.69730  0.77418  0.10895  1.0000
  S   S535      1.0  0.74316  0.73835  0.12811  1.0000
  Fe  Fe266     1.0  0.67520  0.77171  0.13655  1.0000
  S   S536      1.0  0.66375  0.79549  0.15337  1.0000
  Fe  Fe267     1.0  0.68151  0.75646  0.09981  1.0000
  S   S537      1.0  0.67464  0.76525  0.06967  1.0000
  S   S538      1.0  0.69188  0.74448  0.15132  1.0000
  S   S539      1.0  0.69952  0.72819  0.11169  1.0000
  C   C3949     1.0  0.60921  0.69224  0.17996  1.0000
  C   C3950     1.0  0.61274  0.71093  0.17293  1.0000
  C   C3951     1.0  0.63169  0.71375  0.16552  1.0000
  C   C3952     1.0  0.64706  0.69785  0.16496  1.0000
  C   C3953     1.0  0.64349  0.67922  0.17176  1.0000
  C   C3954     1.0  0.62463  0.67641  0.17925  1.0000
  C   C3955     1.0  0.60132  0.64982  0.28179  1.0000
  H   H3160     1.0  0.63440  0.72819  0.16037  1.0000
  H   H3161     1.0  0.65537  0.66693  0.17119  1.0000
  H   H3162     1.0  0.62203  0.66198  0.18426  1.0000
  C   C3956     1.0  0.75564  0.81545  0.12422  1.0000
  C   C3957     1.0  0.75740  0.72180  0.11417  1.0000
  C   C3958     1.0  0.61590  0.64536  0.15057  1.0000
  C   C3959     1.0  0.65564  0.54716  0.23559  1.0000
  C   C3960     1.0  0.63762  0.55712  0.24381  1.0000
  C   C3961     1.0  0.62685  0.57220  0.23230  1.0000
  C   C3962     1.0  0.63375  0.57687  0.21239  1.0000
  C   C3963     1.0  0.65168  0.56683  0.20418  1.0000
  C   C3964     1.0  0.66278  0.55221  0.21575  1.0000
  H   H3163     1.0  0.63184  0.55297  0.25904  1.0000
  H   H3164     1.0  0.61299  0.57978  0.23877  1.0000
  H   H3165     1.0  0.65700  0.57061  0.18886  1.0000
  H   H3166     1.0  0.67662  0.54453  0.20926  1.0000
  C   C3965     1.0  0.74565  0.55852  0.16257  1.0000
  C   C3966     1.0  0.70283  0.68342  0.43327  1.0000
  C   C3967     1.0  0.74885  0.68545  0.46817  1.0000
  C   C3968     1.0  0.71203  0.81258  0.17014  1.0000
  C   C3969     1.0  0.69274  0.82059  0.17701  1.0000
  C   C3970     1.0  0.67794  0.81553  0.17161  1.0000
  C   C3971     1.0  0.68235  0.80200  0.15985  1.0000
  C   C3972     1.0  0.70166  0.79411  0.15294  1.0000
  C   C3973     1.0  0.71639  0.79960  0.15785  1.0000
  H   H3167     1.0  0.68924  0.83070  0.18642  1.0000
  H   H3168     1.0  0.66303  0.82186  0.17681  1.0000
  H   H3169     1.0  0.70530  0.78382  0.14371  1.0000
  H   H3170     1.0  0.73125  0.79323  0.15258  1.0000
  C   C3974     1.0  0.75075  0.70395  0.43546  1.0000
  H   H3171     1.0  0.64149  0.66853  0.26153  1.0000
  P   P131      1.0  0.69293  0.61133  0.25704  1.0000
  H   H3172     1.0  0.72001  0.94070  0.19792  1.0000
  C   C3975     1.0  0.66153  0.78978  0.33978  1.0000
  C   C3976     1.0  0.66777  0.79149  0.28205  1.0000
  Fe  Fe268     1.0  0.72948  0.48465  0.22231  1.0000
  H   H3173     1.0  0.67612  0.78567  0.29321  1.0000
  C   C3977     1.0  0.65428  0.78165  0.22110  1.0000
  C   C3978     1.0  0.75719  0.53659  0.26304  1.0000
  C   C3979     1.0  0.73813  0.54173  0.27283  1.0000
  C   C3980     1.0  0.67584  0.49767  0.17624  1.0000
  H   H3174     1.0  0.72653  0.53871  0.26829  1.0000
  C   C3981     1.0  0.78308  0.77817  0.21132  1.0000
  C   C3982     1.0  0.69695  0.51392  0.33889  1.0000
  C   C3983     1.0  0.73682  0.50056  0.33430  1.0000
  H   H3175     1.0  0.76689  0.71737  0.18089  1.0000
  H   H3176     1.0  0.69622  0.48698  0.33306  1.0000
  C   C3984     1.0  0.75891  0.49248  0.16007  1.0000
  H   H3177     1.0  0.62250  0.50297  0.17991  1.0000
  H   H3178     1.0  0.63637  0.77615  0.18602  1.0000
  C   C3985     1.0  0.59321  0.68185  0.38346  1.0000
  H   H3179     1.0  0.67725  0.86674  0.46884  1.0000
  H   H3180     1.0  0.72825  0.56679  0.18873  1.0000
  S   S540      1.0  0.60879  0.63941  0.22083  1.0000
  H   H3181     1.0  0.72080  0.71366  0.17236  1.0000
  H   H3182     1.0  0.67838  0.74506  0.39784  1.0000
  C   C3986     1.0  0.72908  0.81621  0.40311  1.0000
  C   C3987     1.0  0.73591  0.80167  0.39249  1.0000
  C   C3988     1.0  0.75168  0.80288  0.37699  1.0000
  C   C3989     1.0  0.76100  0.81833  0.37239  1.0000
  C   C3990     1.0  0.75436  0.83280  0.38312  1.0000
  C   C3991     1.0  0.73839  0.83171  0.39852  1.0000
  H   H3183     1.0  0.72890  0.78965  0.39605  1.0000
  H   H3184     1.0  0.75650  0.79198  0.36834  1.0000
  H   H3185     1.0  0.76155  0.84477  0.37959  1.0000
  H   H3186     1.0  0.73327  0.84291  0.40683  1.0000
  C   C3992     1.0  0.75330  0.61665  0.42266  1.0000
  H   H3187     1.0  0.77397  0.60180  0.46200  1.0000
  H   H3188     1.0  0.77998  0.55192  0.28940  1.0000
  H   H3189     1.0  0.76455  0.55454  0.13540  1.0000
  H   H3190     1.0  0.65825  0.64626  0.20429  1.0000
  C   C3993     1.0  0.70910  0.91819  0.22009  1.0000
  C   C3994     1.0  0.69979  0.91331  0.23935  1.0000
  C   C3995     1.0  0.69429  0.92697  0.25119  1.0000
  H   H3191     1.0  0.69651  0.89913  0.24502  1.0000
  H   H3192     1.0  0.68690  0.92309  0.26596  1.0000
  H   H3193     1.0  0.65781  0.79727  0.41116  1.0000
  C   C3996     1.0  0.72537  0.67055  0.40664  1.0000
  H   H3194     1.0  0.61681  0.76109  0.40564  1.0000
  C   C3997     1.0  0.62816  0.50603  0.16451  1.0000
  C   C3998     1.0  0.70802  0.95022  0.22484  1.0000
  C   C3999     1.0  0.73977  0.56971  0.17663  1.0000
  C   C4000     1.0  0.67220  0.72495  0.03180  1.0000
  C   C4001     1.0  0.67807  0.71727  0.04951  1.0000
  C   C4002     1.0  0.67874  0.72941  0.06128  1.0000
  C   C4003     1.0  0.67395  0.74941  0.05528  1.0000
  C   C4004     1.0  0.66834  0.75712  0.03742  1.0000
  C   C4005     1.0  0.66741  0.74497  0.02574  1.0000
  H   H3195     1.0  0.68224  0.70184  0.05405  1.0000
  H   H3196     1.0  0.68304  0.72335  0.07495  1.0000
  H   H3197     1.0  0.66457  0.77258  0.03263  1.0000
  H   H3198     1.0  0.66286  0.75108  0.01214  1.0000
  C   C4006     1.0  0.77296  0.93470  0.30280  1.0000
  C   C4007     1.0  0.71705  0.59929  0.24753  1.0000
  C   C4008     1.0  0.73312  0.60297  0.25192  1.0000
  C   C4009     1.0  0.75173  0.59339  0.24484  1.0000
  C   C4010     1.0  0.75452  0.58044  0.23292  1.0000
  C   C4011     1.0  0.73870  0.57724  0.22790  1.0000
  C   C4012     1.0  0.72002  0.58672  0.23503  1.0000
  C   C4013     1.0  0.67764  0.66217  0.20750  1.0000
  C   C4014     1.0  0.69095  0.66255  0.21790  1.0000
  C   C4015     1.0  0.69530  0.64727  0.23315  1.0000
  H   H3199     1.0  0.69688  0.56896  0.26653  1.0000
  H   H3200     1.0  0.73137  0.61306  0.26098  1.0000
  H   H3201     1.0  0.76395  0.59580  0.24885  1.0000
  H   H3202     1.0  0.75294  0.49758  0.29595  1.0000
  H   H3203     1.0  0.74099  0.56709  0.21876  1.0000
  H   H3204     1.0  0.70793  0.58396  0.23106  1.0000
  H   H3205     1.0  0.67432  0.67399  0.19565  1.0000
  H   H3206     1.0  0.69793  0.67468  0.21405  1.0000
  H   H3207     1.0  0.70573  0.64770  0.24103  1.0000
  C   C4016     1.0  0.74926  0.65999  0.13980  1.0000
  C   C4017     1.0  0.73947  0.67229  0.15248  1.0000
  C   C4018     1.0  0.72020  0.67219  0.16133  1.0000
  C   C4019     1.0  0.71061  0.66013  0.15715  1.0000
  C   C4020     1.0  0.72011  0.64833  0.14379  1.0000
  C   C4021     1.0  0.73966  0.64799  0.13551  1.0000
  P   P132      1.0  0.70627  0.63594  0.13586  1.0000
  C   C4022     1.0  0.69233  0.65302  0.11941  1.0000
  C   C4023     1.0  0.72148  0.61788  0.12272  1.0000
  C   C4024     1.0  0.73283  0.62374  0.10458  1.0000
  C   C4025     1.0  0.74415  0.61020  0.09373  1.0000
  C   C4026     1.0  0.74361  0.59072  0.10052  1.0000
  C   C4027     1.0  0.73184  0.58480  0.11829  1.0000
  C   C4028     1.0  0.72112  0.59824  0.12954  1.0000
  C   C4029     1.0  0.68436  0.64639  0.10751  1.0000
  C   C4030     1.0  0.67382  0.65952  0.09448  1.0000
  C   C4031     1.0  0.67096  0.67929  0.09346  1.0000
  C   C4032     1.0  0.67893  0.68593  0.10517  1.0000
  C   C4033     1.0  0.68962  0.67293  0.11801  1.0000
  C   C4034     1.0  0.69083  0.62533  0.15722  1.0000
  C   C4035     1.0  0.69907  0.61304  0.17241  1.0000
  C   C4036     1.0  0.68747  0.60477  0.18921  1.0000
  C   C4037     1.0  0.66747  0.60925  0.19120  1.0000
  C   C4038     1.0  0.65909  0.62185  0.17634  1.0000
  C   C4039     1.0  0.67070  0.62985  0.15933  1.0000
  H   H3208     1.0  0.76426  0.65983  0.13311  1.0000
  H   H3209     1.0  0.74681  0.68200  0.15521  1.0000
  H   H3210     1.0  0.71236  0.68186  0.17093  1.0000
  H   H3211     1.0  0.69547  0.66079  0.16358  1.0000
  H   H3212     1.0  0.74767  0.63852  0.12578  1.0000
  H   H3213     1.0  0.73298  0.63883  0.09891  1.0000
  H   H3214     1.0  0.75328  0.61486  0.08001  1.0000
  H   H3215     1.0  0.75242  0.58023  0.09208  1.0000
  H   H3216     1.0  0.73148  0.56965  0.12366  1.0000
  H   H3217     1.0  0.71273  0.59315  0.14350  1.0000
  H   H3218     1.0  0.68643  0.63110  0.10821  1.0000
  H   H3219     1.0  0.66797  0.65441  0.08508  1.0000
  H   H3220     1.0  0.66268  0.68956  0.08357  1.0000
  H   H3221     1.0  0.67688  0.70123  0.10433  1.0000
  H   H3222     1.0  0.69570  0.67868  0.12668  1.0000
  H   H3223     1.0  0.71452  0.60990  0.17116  1.0000
  H   H3224     1.0  0.64354  0.62545  0.17818  1.0000
  H   H3225     1.0  0.66389  0.63977  0.14810  1.0000
  C   C4040     1.0  0.75781  0.91279  0.17130  1.0000
  C   C4041     1.0  0.76479  0.89301  0.17659  1.0000
  H   H3226     1.0  0.69980  0.84210  0.45148  1.0000
  C   C4042     1.0  0.76256  0.92563  0.17956  1.0000
  H   H3227     1.0  0.75497  0.73484  0.46554  1.0000
  C   C4043     1.0  0.76452  0.93484  0.22863  1.0000
  C   C4044     1.0  0.76484  0.94822  0.23912  1.0000
  C   C4045     1.0  0.75262  0.94887  0.25716  1.0000
  C   C4046     1.0  0.74017  0.93605  0.26493  1.0000
  C   C4047     1.0  0.74012  0.92244  0.25475  1.0000
  C   C4048     1.0  0.75212  0.92186  0.23662  1.0000
  C   C4049     1.0  0.66058  0.91975  0.33895  1.0000
  H   H3228     1.0  0.78310  0.80192  0.31074  1.0000
  H   H3229     1.0  0.62275  0.70240  0.37474  1.0000
  H   H3230     1.0  0.71132  0.59307  0.29013  1.0000
  H   H3231     1.0  0.74818  0.91815  0.16125  1.0000
  H   H3232     1.0  0.76070  0.88310  0.17050  1.0000
  H   H3233     1.0  0.75674  0.94079  0.17529  1.0000
  C   C4050     1.0  0.73215  0.94122  0.34598  1.0000
  C   C4051     1.0  0.64584  0.51429  0.21293  1.0000
  H   H3234     1.0  0.73033  0.93688  0.27866  1.0000
  H   H3235     1.0  0.73023  0.91275  0.26061  1.0000
  H   H3236     1.0  0.75130  0.91152  0.22885  1.0000
  H   H3237     1.0  0.72306  0.61343  0.35174  1.0000
  H   H3238     1.0  0.74840  0.78971  0.27901  1.0000
  S   S541      1.0  0.77289  0.58450  0.01837  1.0000
  C   C4052     1.0  0.69136  0.75904  0.22047  1.0000
  C   C4053     1.0  0.68869  0.77913  0.21549  1.0000
  C   C4054     1.0  0.67014  0.79039  0.21592  1.0000
  H   H3239     1.0  0.70087  0.78610  0.21158  1.0000
  H   H3240     1.0  0.64673  0.74553  0.09652  1.0000
  S   S542      1.0  0.77753  0.87367  0.32872  1.0000
  C   C4055     1.0  0.77335  0.79042  0.42616  1.0000
  C   C4056     1.0  0.70849  0.52540  0.34097  1.0000
  H   H3241     1.0  0.74937  0.77446  0.47142  1.0000
  C   C4057     1.0  0.62290  0.53594  0.19448  1.0000
  P   P133      1.0  0.70114  0.91101  0.33008  1.0000
  C   C4058     1.0  0.71547  0.89859  0.31127  1.0000
  C   C4059     1.0  0.69982  0.89394  0.35290  1.0000
  C   C4060     1.0  0.70716  0.87413  0.35361  1.0000
  C   C4061     1.0  0.70678  0.86119  0.37136  1.0000
  C   C4062     1.0  0.69894  0.86782  0.38853  1.0000
  C   C4063     1.0  0.69170  0.88748  0.38797  1.0000
  C   C4064     1.0  0.69223  0.90052  0.37024  1.0000
  C   C4065     1.0  0.70672  0.88935  0.30236  1.0000
  C   C4066     1.0  0.71791  0.87849  0.28878  1.0000
  C   C4067     1.0  0.73789  0.87662  0.28416  1.0000
  C   C4068     1.0  0.74669  0.88565  0.29309  1.0000
  C   C4069     1.0  0.73555  0.89663  0.30660  1.0000
  C   C4070     1.0  0.70537  0.49583  0.33428  1.0000
  H   H3242     1.0  0.62949  0.92675  0.34534  1.0000
  H   H3243     1.0  0.69676  0.68198  0.44857  1.0000
  C   C4071     1.0  0.77814  0.75644  0.14594  1.0000
  S   S543      1.0  0.74480  0.56465  0.31502  1.0000
  C   C4072     1.0  0.59309  0.78313  0.21731  1.0000
  C   C4073     1.0  0.63593  0.70429  0.42196  1.0000
  C   C4074     1.0  0.75595  0.72417  0.09502  1.0000
  C   C4075     1.0  0.77654  0.88600  0.19019  1.0000
  H   H3244     1.0  0.69852  0.76604  0.97748  1.0000
  H   H3245     1.0  0.71348  0.86854  0.34058  1.0000
  H   H3246     1.0  0.69781  0.76706  0.32771  1.0000
  H   H3247     1.0  0.69863  0.85768  0.40225  1.0000
  H   H3248     1.0  0.68590  0.89263  0.40131  1.0000
  H   H3249     1.0  0.68689  0.91577  0.37003  1.0000
  H   H3250     1.0  0.69129  0.89028  0.30604  1.0000
  H   H3251     1.0  0.71110  0.87143  0.28191  1.0000
  H   H3252     1.0  0.74653  0.86817  0.27366  1.0000
  H   H3253     1.0  0.76218  0.88412  0.28958  1.0000
  H   H3254     1.0  0.74267  0.90327  0.31356  1.0000
  C   C4076     1.0  0.68808  0.70934  0.29746  1.0000
  C   C4077     1.0  0.64516  0.79193  0.33243  1.0000
  C   C4078     1.0  0.62731  0.64992  0.11048  1.0000
  H   H3255     1.0  0.59219  0.67912  0.43404  1.0000
  H   H3256     1.0  0.68852  0.93233  0.29460  1.0000
  C   C4079     1.0  0.62785  0.70537  0.11618  1.0000
  C   C4080     1.0  0.67310  0.80365  0.33291  1.0000
  H   H3257     1.0  0.64055  0.69671  0.20627  1.0000
  H   H3258     1.0  0.67704  0.68989  0.26541  1.0000
  H   H3259     1.0  0.64419  0.75534  0.23113  1.0000
  C   C4081     1.0  0.65096  0.82239  0.31208  1.0000
  C   C4082     1.0  0.61761  0.65430  0.26816  1.0000
  H   H3260     1.0  0.64124  0.55455  0.14798  1.0000
  H   H3261     1.0  0.60090  0.72324  0.17340  1.0000
  C   C4083     1.0  0.63289  0.51761  0.23002  1.0000
  H   H3262     1.0  0.63796  0.56323  0.28507  1.0000
  H   H3263     1.0  0.63619  0.81361  0.24366  1.0000
  H   H3264     1.0  0.73732  0.52736  0.34078  1.0000
  H   H3265     1.0  0.76525  0.78913  0.11345  1.0000
  C   C4084     1.0  0.77928  0.69301  0.37619  1.0000
  C   C4085     1.0  0.63789  0.71972  0.11441  1.0000
  C   C4086     1.0  0.75679  0.96941  0.19083  1.0000
  H   H3266     1.0  0.76956  0.95348  0.36002  1.0000
  H   H3267     1.0  0.68670  0.63305  0.32776  1.0000
  H   H3268     1.0  0.76266  0.79152  0.19254  1.0000
  C   C4087     1.0  0.69457  0.49697  0.16497  1.0000
  H   H3269     1.0  0.77994  0.70630  0.37962  1.0000
  H   H3270     1.0  0.77679  0.58965  0.28532  1.0000
  C   C4088     1.0  0.71201  0.93000  0.33140  1.0000
  C   C4089     1.0  0.76825  0.54916  0.28487  1.0000
  H   H3271     1.0  0.74417  0.79823  0.44153  1.0000
  C   C4090     1.0  0.78552  0.75312  0.38824  1.0000
  C   C4091     1.0  0.71898  0.68756  0.39387  1.0000
  C   C4092     1.0  0.75068  0.62402  0.37675  1.0000
  Fe  Fe269     1.0  0.62192  0.71237  0.30614  1.0000
  C   C4093     1.0  0.61511  0.53030  0.22935  1.0000
  H   H3272     1.0  0.70055  0.64193  0.36293  1.0000
  H   H3273     1.0  0.65840  0.60313  0.20435  1.0000
  H   H3274     1.0  0.76676  0.71281  0.06903  1.0000
  C   C4094     1.0  0.68027  0.84139  0.11761  1.0000
  C   C4095     1.0  0.77210  0.54064  0.26892  1.0000
  H   H3275     1.0  0.68149  0.51908  0.34082  1.0000
  H   H3276     1.0  0.65668  0.94693  0.28665  1.0000
  H   H3277     1.0  0.64049  0.85246  0.09809  1.0000
  H   H3278     1.0  0.76012  0.58912  0.44164  1.0000
  H   H3279     1.0  0.62992  0.74324  0.19341  1.0000
  C   C4096     1.0  0.72121  0.69867  0.98958  1.0000
  C   C4097     1.0  0.76085  0.75131  0.20735  1.0000
  H   H3280     1.0  0.77592  0.52489  0.17858  1.0000
  Fe  Fe270     1.0  0.69179  0.75756  0.46881  1.0000
  C   C4098     1.0  0.61150  0.70657  0.40407  1.0000
  H   H3281     1.0  0.77851  0.73022  0.43531  1.0000
  H   H3282     1.0  0.71709  0.92643  0.08053  1.0000
  H   H3283     1.0  0.65670  0.69515  0.37723  1.0000
  H   H3284     1.0  0.64873  0.51504  0.10932  1.0000
  H   H3285     1.0  0.61921  0.50156  0.12274  1.0000
  C   C4099     1.0  0.74407  0.74255  0.18118  1.0000
  C   C4100     1.0  0.73568  0.75892  0.18895  1.0000
  C   C4101     1.0  0.74396  0.76332  0.20199  1.0000
  C   C4102     1.0  0.75457  0.76416  0.24436  1.0000
  C   C4103     1.0  0.73626  0.75953  0.24920  1.0000
  C   C4104     1.0  0.72228  0.76623  0.26435  1.0000
  C   C4105     1.0  0.72665  0.77699  0.27518  1.0000
  C   C4106     1.0  0.74506  0.78098  0.27097  1.0000
  C   C4107     1.0  0.75896  0.77463  0.25564  1.0000
  H   H3286     1.0  0.62215  0.64854  0.25517  1.0000
  S   S544      1.0  0.59883  0.73577  0.29452  1.0000
  H   H3287     1.0  0.76959  0.51729  0.14286  1.0000
  H   H3288     1.0  0.77771  0.64503  0.36445  1.0000
  H   H3289     1.0  0.77801  0.69750  0.41602  1.0000
  S   S545      1.0  0.62037  0.59524  0.19743  1.0000
  C   C4108     1.0  0.72775  0.95968  0.33485  1.0000
  H   H3290     1.0  0.66128  0.91218  0.35356  1.0000
  H   H3291     1.0  0.69835  0.50942  0.15434  1.0000
  C   C4109     1.0  0.61151  0.68250  0.04036  1.0000
  H   H3292     1.0  0.62697  0.94422  0.31194  1.0000
  C   C4110     1.0  0.59558  0.65724  0.29866  1.0000
  H   H3293     1.0  0.73804  0.73973  0.17042  1.0000
  H   H3294     1.0  0.72275  0.76827  0.18477  1.0000
  H   H3295     1.0  0.73727  0.77627  0.20767  1.0000
  H   H3296     1.0  0.73250  0.75120  0.24106  1.0000
  H   H3297     1.0  0.70783  0.76365  0.26736  1.0000
  H   H3298     1.0  0.71560  0.78267  0.28647  1.0000
  C   C4111     1.0  0.71459  0.63699  0.36673  1.0000
  C   C4112     1.0  0.70806  0.94856  0.31988  1.0000
  C   C4113     1.0  0.66547  0.54122  0.16200  1.0000
  C   C4114     1.0  0.68182  0.54439  0.16624  1.0000
  C   C4115     1.0  0.68710  0.56231  0.15914  1.0000
  C   C4116     1.0  0.67605  0.57720  0.14789  1.0000
  C   C4117     1.0  0.65970  0.57420  0.14372  1.0000
  C   C4118     1.0  0.65434  0.55635  0.15083  1.0000
  C   C4119     1.0  0.76525  0.68271  0.38739  1.0000
  H   H3299     1.0  0.69018  0.53331  0.17552  1.0000
  H   H3300     1.0  0.69939  0.56483  0.16294  1.0000
  H   H3301     1.0  0.67990  0.59118  0.14282  1.0000
  H   H3302     1.0  0.71252  0.97765  0.31302  1.0000
  S   S546      1.0  0.60969  0.71387  0.33726  1.0000
  C   C4120     1.0  0.61510  0.66531  0.11851  1.0000
  C   C4121     1.0  0.78325  0.94474  0.30888  1.0000
  C   C4122     1.0  0.62792  0.63008  0.14248  1.0000
  H   H3303     1.0  0.62749  0.69401  0.12898  1.0000
  C   C4123     1.0  0.65039  0.69916  0.40645  1.0000
  H   H3304     1.0  0.70870  0.60249  0.32060  1.0000
  Fe  Fe271     1.0  0.66445  0.71711  0.98773  1.0000
  H   H3305     1.0  0.76677  0.81203  0.13250  1.0000
  C   C4124     1.0  0.62761  0.68277  0.04698  1.0000
  C   C4125     1.0  0.62578  0.68368  0.06618  1.0000
  H   H3306     1.0  0.63255  0.61641  0.15181  1.0000
  H   H3307     1.0  0.65088  0.58581  0.13535  1.0000
  C   C4126     1.0  0.64235  0.59237  0.27604  1.0000
  H   H3308     1.0  0.77908  0.58276  0.13149  1.0000
  C   C4127     1.0  0.78268  0.75123  0.34365  1.0000
  H   H3309     1.0  0.64148  0.68269  0.03706  1.0000
  H   H3310     1.0  0.63839  0.68427  0.07086  1.0000
  C   C4128     1.0  0.74172  0.88615  0.06338  1.0000
  C   C4129     1.0  0.73416  0.87225  0.07837  1.0000
  C   C4130     1.0  0.72058  0.87777  0.09441  1.0000
  P   P134      1.0  0.71013  0.86000  0.11346  1.0000
  C   C4131     1.0  0.72714  0.83715  0.11419  1.0000
  C   C4132     1.0  0.74183  0.83261  0.12465  1.0000
  H   H3311     1.0  0.61209  0.72197  0.07376  1.0000
  H   H3312     1.0  0.60016  0.67455  0.14534  1.0000
  H   H3313     1.0  0.61286  0.80164  0.20121  1.0000
  C   C4133     1.0  0.72647  0.82416  0.10338  1.0000
  C   C4134     1.0  0.70555  0.86767  0.13607  1.0000
  C   C4135     1.0  0.68846  0.86573  0.14979  1.0000
  C   C4136     1.0  0.68447  0.87282  0.16667  1.0000
  C   C4137     1.0  0.69751  0.88184  0.17001  1.0000
  C   C4138     1.0  0.71472  0.88348  0.15667  1.0000
  C   C4139     1.0  0.71875  0.87645  0.13975  1.0000
  H   H3314     1.0  0.75225  0.88180  0.05107  1.0000
  H   H3315     1.0  0.73892  0.85724  0.07735  1.0000
  H   H3316     1.0  0.74260  0.84209  0.13336  1.0000
  C   C4140     1.0  0.59355  0.68318  0.05296  1.0000
  C   C4141     1.0  0.72546  0.48934  0.33122  1.0000
  C   C4142     1.0  0.65214  0.51703  0.13701  1.0000
  H   H3317     1.0  0.71549  0.82735  0.09495  1.0000
  H   H3318     1.0  0.68755  0.82994  0.12749  1.0000
  H   H3319     1.0  0.67816  0.85873  0.14761  1.0000
  H   H3320     1.0  0.67132  0.87120  0.17726  1.0000
  H   H3321     1.0  0.69437  0.88744  0.18305  1.0000
  H   H3322     1.0  0.72486  0.89024  0.15957  1.0000
  H   H3323     1.0  0.73210  0.87799  0.12948  1.0000
  C   C4143     1.0  0.77039  0.70616  0.12226  1.0000
  H   H3324     1.0  0.71266  0.84596  0.37185  1.0000
  H   H3325     1.0  0.76572  0.59922  0.05268  1.0000
  C   C4144     1.0  0.76042  0.73010  0.18695  1.0000
  C   C4145     1.0  0.73941  0.82771  0.32621  1.0000
  C   C4146     1.0  0.74335  0.82988  0.30618  1.0000
  C   C4147     1.0  0.73168  0.82403  0.29742  1.0000
  C   C4148     1.0  0.71609  0.81591  0.30871  1.0000
  C   C4149     1.0  0.71179  0.81401  0.32882  1.0000
  C   C4150     1.0  0.72383  0.81962  0.33752  1.0000
  P   P135      1.0  0.69330  0.80133  0.34367  1.0000
  C   C4151     1.0  0.68202  0.81085  0.36513  1.0000
  C   C4152     1.0  0.67362  0.79905  0.38181  1.0000
  C   C4153     1.0  0.66412  0.80652  0.39827  1.0000
  C   C4154     1.0  0.66267  0.82589  0.39809  1.0000
  C   C4155     1.0  0.67028  0.83794  0.38126  1.0000
  C   C4156     1.0  0.67987  0.83049  0.36478  1.0000
  C   C4157     1.0  0.70564  0.77659  0.34970  1.0000
  C   C4158     1.0  0.71643  0.77105  0.36419  1.0000
  C   C4159     1.0  0.72610  0.75194  0.36907  1.0000
  C   C4160     1.0  0.72542  0.73831  0.35920  1.0000
  C   C4161     1.0  0.71529  0.74387  0.34423  1.0000
  C   C4162     1.0  0.70552  0.76298  0.33939  1.0000
  H   H3326     1.0  0.74871  0.83196  0.33299  1.0000
  H   H3327     1.0  0.75562  0.83588  0.29748  1.0000
  H   H3328     1.0  0.73489  0.82555  0.28187  1.0000
  H   H3329     1.0  0.70755  0.81094  0.30175  1.0000
  H   H3330     1.0  0.72146  0.81742  0.35307  1.0000
  H   H3331     1.0  0.66506  0.77733  0.35090  1.0000
  H   H3332     1.0  0.67427  0.78409  0.38211  1.0000
  S   S547      1.0  0.68905  0.73558  0.45362  1.0000
  H   H3333     1.0  0.66866  0.85307  0.38100  1.0000
  H   H3334     1.0  0.68541  0.84008  0.35177  1.0000
  H   H3335     1.0  0.71726  0.78153  0.37178  1.0000
  H   H3336     1.0  0.73409  0.74771  0.38057  1.0000
  H   H3337     1.0  0.73290  0.72353  0.36306  1.0000
  H   H3338     1.0  0.65040  0.76998  0.29251  1.0000
  H   H3339     1.0  0.66929  0.70783  0.20637  1.0000
  H   H3340     1.0  0.60557  0.71235  0.43279  1.0000
  H   H3341     1.0  0.77761  0.63239  0.01089  1.0000
  C   C4163     1.0  0.66101  0.87065  0.09218  1.0000
  C   C4164     1.0  0.72592  0.68655  0.00656  1.0000
  C   C4165     1.0  0.74527  0.68003  0.00831  1.0000
  C   C4166     1.0  0.75983  0.68578  0.99279  1.0000
  P   P136      1.0  0.75112  0.66337  0.02989  1.0000
  C   C4167     1.0  0.74348  0.67446  0.05073  1.0000
  C   C4168     1.0  0.73892  0.64387  0.03357  1.0000
  C   C4169     1.0  0.72881  0.63647  0.05193  1.0000
  C   C4170     1.0  0.72012  0.62085  0.05471  1.0000
  C   C4171     1.0  0.72121  0.61271  0.03913  1.0000
  C   C4172     1.0  0.73061  0.62045  0.02070  1.0000
  C   C4173     1.0  0.73929  0.63606  0.01788  1.0000
  C   C4174     1.0  0.75060  0.66495  0.06752  1.0000
  C   C4175     1.0  0.74558  0.67354  0.08351  1.0000
  C   C4176     1.0  0.73319  0.69153  0.08304  1.0000
  C   C4177     1.0  0.72615  0.70119  0.06638  1.0000
  C   C4178     1.0  0.73117  0.69269  0.05028  1.0000
  C   C4179     1.0  0.61021  0.53962  0.21158  1.0000
  S   S548      1.0  0.65161  0.73425  0.34795  1.0000
  H   H3342     1.0  0.68613  0.71214  0.42582  1.0000
  H   H3343     1.0  0.70981  0.65876  0.38290  1.0000
  C   C4180     1.0  0.77771  0.85810  0.24470  1.0000
  C   C4181     1.0  0.60997  0.78728  0.20449  1.0000
  H   H3344     1.0  0.77099  0.80080  0.41302  1.0000
  H   H3345     1.0  0.73365  0.97112  0.33637  1.0000
  C   C4182     1.0  0.72837  0.51860  0.33892  1.0000
  H   H3346     1.0  0.71442  0.68211  0.01823  1.0000
  C   C4183     1.0  0.78747  0.66770  0.19671  1.0000
  H   H3347     1.0  0.72764  0.64260  0.06415  1.0000
  H   H3348     1.0  0.71277  0.61488  0.06898  1.0000
  H   H3349     1.0  0.71493  0.60032  0.04126  1.0000
  H   H3350     1.0  0.73166  0.61401  0.00864  1.0000
  H   H3351     1.0  0.74662  0.64174  0.00347  1.0000
  H   H3352     1.0  0.77097  0.54759  0.19963  1.0000
  C   C4184     1.0  0.74524  0.61448  0.36547  1.0000
  H   H3353     1.0  0.72971  0.69828  0.09535  1.0000
  H   H3354     1.0  0.71724  0.71553  0.06577  1.0000
  H   H3355     1.0  0.72568  0.70061  0.03751  1.0000
  H   H3356     1.0  0.76888  0.57260  0.22781  1.0000
  C   C4185     1.0  0.76416  0.48465  0.29703  1.0000
  Fe  Fe272     1.0  0.77042  0.55409  0.32954  1.0000
  H   H3357     1.0  0.63988  0.79043  0.22194  1.0000
  H   H3358     1.0  0.77488  0.68065  0.99356  1.0000
  C   C4186     1.0  0.70488  0.70243  0.40079  1.0000
  H   H3359     1.0  0.74589  0.73628  0.08874  1.0000
  C   C4187     1.0  0.73310  0.69529  0.19618  1.0000
  C   C4188     1.0  0.64245  0.92795  0.33433  1.0000
  H   H3360     1.0  0.77334  0.78196  0.15724  1.0000
  H   H3361     1.0  0.68962  0.70594  0.31234  1.0000
  H   H3362     1.0  0.67075  0.64531  0.27291  1.0000
  H   H3363     1.0  0.71329  0.69456  0.24350  1.0000
  C   C4189     1.0  0.64750  0.75360  0.40390  1.0000
  C   C4190     1.0  0.64516  0.80726  0.25422  1.0000
  H   H3364     1.0  0.59683  0.55015  0.21104  1.0000
  C   C4191     1.0  0.71904  0.70947  0.18795  1.0000
  C   C4192     1.0  0.78128  0.83843  0.25299  1.0000
  C   C4193     1.0  0.76829  0.77828  0.32124  1.0000
  C   C4194     1.0  0.63876  0.73456  0.09805  1.0000
  H   H3365     1.0  0.77429  0.95839  0.23328  1.0000
  C   C4195     1.0  0.76818  0.76003  0.33309  1.0000
  C   C4196     1.0  0.77644  0.74863  0.40760  1.0000
  H   H3366     1.0  0.65759  0.82655  0.12069  1.0000
  C   C4197     1.0  0.62265  0.67317  0.28858  1.0000
  C   C4198     1.0  0.70287  0.71854  0.19973  1.0000
  C   C4199     1.0  0.72465  0.92633  0.34404  1.0000
  H   H3367     1.0  0.77642  0.95181  0.32086  1.0000
  C   C4200     1.0  0.63063  0.75546  0.39729  1.0000
  H   H3368     1.0  0.76469  0.76071  0.14090  1.0000
  H   H3369     1.0  0.76211  0.75659  0.41267  1.0000
  C   C4201     1.0  0.76239  0.64319  0.42954  1.0000
  H   H3370     1.0  0.67280  0.54850  0.27841  1.0000
  H   H3371     1.0  0.68646  0.74699  0.25931  1.0000
  H   H3372     1.0  0.74148  0.91642  0.05255  1.0000
  H   H3373     1.0  0.75673  0.75282  0.33419  1.0000
  H   H3374     1.0  0.75686  0.78527  0.31339  1.0000
  H   H3375     1.0  0.71477  0.73336  0.33649  1.0000
  C   C4202     1.0  0.76414  0.66543  0.38323  1.0000
  H   H3376     1.0  0.76462  0.61851  0.38073  1.0000
  C   C4203     1.0  0.71302  0.93675  0.21285  1.0000
  H   H3377     1.0  0.70574  0.75045  0.22062  1.0000
  C   C4204     1.0  0.76121  0.77542  0.45913  1.0000
  H   H3378     1.0  0.76054  0.65112  0.06806  1.0000
  H   H3379     1.0  0.71949  0.55459  0.29631  1.0000
  C   C4205     1.0  0.67576  0.93103  0.30584  1.0000
  H   H3380     1.0  0.61128  0.64351  0.16611  1.0000
  H   H3381     1.0  0.77138  0.70422  0.13710  1.0000
  H   H3382     1.0  0.69396  0.59499  0.20073  1.0000
  C   C4206     1.0  0.67111  0.80825  0.26850  1.0000
  C   C4207     1.0  0.65684  0.76162  0.22634  1.0000
  S   S549      1.0  0.71986  0.76285  0.44940  1.0000
  Fe  Fe273     1.0  0.71565  0.74315  0.43269  1.0000
  H   H3383     1.0  0.76986  0.86340  0.23312  1.0000
  C   C4208     1.0  0.65766  0.93927  0.30128  1.0000
  C   C4209     1.0  0.73418  0.55075  0.28862  1.0000
  H   H3384     1.0  0.69888  0.95190  0.30958  1.0000
  C   C4210     1.0  0.78185  0.69278  0.11125  1.0000
  C   C4211     1.0  0.76797  0.67577  0.46338  1.0000
  H   H3385     1.0  0.62708  0.59885  0.27901  1.0000
  Fe  Fe274     1.0  0.59852  0.61654  0.21330  1.0000
  S   S550      1.0  0.74037  0.72253  0.41844  1.0000
  C   C4212     1.0  0.64549  0.69810  0.38965  1.0000
  S   S551      1.0  0.76679  0.54636  0.36183  1.0000
  H   H3386     1.0  0.62747  0.80967  0.31248  1.0000
  C   C4213     1.0  0.71433  0.89743  0.09498  1.0000
  C   C4214     1.0  0.65313  0.78263  0.28172  1.0000
  H   H3387     1.0  0.75832  0.93383  0.31021  1.0000
  C   C4215     1.0  0.64066  0.52294  0.19503  1.0000
  H   H3388     1.0  0.77286  0.77854  0.25227  1.0000
  C   C4216     1.0  0.78163  0.92573  0.28722  1.0000
  C   C4217     1.0  0.76980  0.69400  0.43052  1.0000
  C   C4218     1.0  0.74021  0.69938  0.45417  1.0000
  H   H3389     1.0  0.75528  0.68836  0.39933  1.0000
  C   C4219     1.0  0.74829  0.58526  0.17466  1.0000
  C   C4220     1.0  0.64466  0.51402  0.15696  1.0000
  C   C4221     1.0  0.73565  0.90566  0.06420  1.0000
  C   C4222     1.0  0.66326  0.83945  0.11379  1.0000
  C   C4223     1.0  0.68174  0.57574  0.26865  1.0000
  C   C4224     1.0  0.78736  0.53213  0.17739  1.0000
  C   C4225     1.0  0.76235  0.59006  0.15836  1.0000
  H   H3390     1.0  0.75501  0.60191  0.36076  1.0000
  C   C4226     1.0  0.62324  0.77291  0.19590  1.0000
  C   C4227     1.0  0.67807  0.87261  0.09594  1.0000
  H   H3391     1.0  0.70348  0.90207  0.10696  1.0000
  C   C4228     1.0  0.67570  0.59588  0.26466  1.0000
  C   C4229     1.0  0.66865  0.64651  0.21230  1.0000
  C   C4230     1.0  0.71697  0.66848  0.42640  1.0000
  P   P137      1.0  0.65712  0.51901  0.17272  1.0000
  H   H3392     1.0  0.73918  0.79669  0.09530  1.0000
  C   C4231     1.0  0.78115  0.59465  0.04837  1.0000
  H   H3393     1.0  0.76307  0.65824  0.42647  1.0000
  H   H3394     1.0  0.63047  0.74664  0.07068  1.0000
  H   H3395     1.0  0.72153  0.65556  0.43664  1.0000
  H   H3396     1.0  0.74192  0.67922  0.22259  1.0000
  H   H3397     1.0  0.64532  0.71918  0.12556  1.0000
  C   C4232     1.0  0.72193  0.91129  0.07997  1.0000
  H   H3398     1.0  0.60553  0.53354  0.24259  1.0000
  H   H3399     1.0  0.68350  0.88557  0.08887  1.0000
  C   C4233     1.0  0.66812  0.56405  0.27578  1.0000
  C   C4234     1.0  0.62950  0.73521  0.08346  1.0000
  H   H3400     1.0  0.74363  0.59393  0.18556  1.0000
  C   C4235     1.0  0.63156  0.75002  0.37993  1.0000
  C   C4236     1.0  0.67742  0.92137  0.32473  1.0000
  H   H3401     1.0  0.77592  0.82041  0.17846  1.0000
  C   C4237     1.0  0.61930  0.72104  0.08521  1.0000
  P   P138      1.0  0.74544  0.65261  0.39762  1.0000
  P   P139      1.0  0.77213  0.75761  0.22347  1.0000
  C   C4238     1.0  0.66622  0.74068  0.37583  1.0000
  C   C4239     1.0  0.67319  0.63105  0.22731  1.0000
  C   C4240     1.0  0.76831  0.57896  0.14420  1.0000
  H   H3402     1.0  0.77381  0.91778  0.28251  1.0000
  H   H3403     1.0  0.70042  0.71567  0.39094  1.0000
  H   H3404     1.0  0.77455  0.63651  0.45485  1.0000
  C   C4241     1.0  0.60776  0.68454  0.07897  1.0000
  C   C4242     1.0  0.65729  0.70884  0.21846  1.0000
  C   C4243     1.0  0.62628  0.50504  0.13228  1.0000
  C   C4244     1.0  0.70030  0.71307  0.21989  1.0000
  H   H3405     1.0  0.78233  0.67409  0.04082  1.0000
  C   C4245     1.0  0.65592  0.60409  0.26889  1.0000
  C   C4246     1.0  0.69204  0.61901  0.27874  1.0000
  C   C4247     1.0  0.75458  0.63616  0.41784  1.0000
  H   H3406     1.0  0.61294  0.68203  0.02536  1.0000
  H   H3407     1.0  0.78179  0.88610  0.24486  1.0000
  H   H3408     1.0  0.65550  0.83157  0.41095  1.0000
  S   S552      1.0  0.69246  0.96187  0.25967  1.0000
  P   P140      1.0  0.67888  0.72446  0.23485  1.0000
  C   C4248     1.0  0.74932  0.55421  0.29481  1.0000
  C   C4249     1.0  0.76826  0.61143  0.44990  1.0000
  H   H3409     1.0  0.68001  0.73484  0.36761  1.0000
  C   C4250     1.0  0.67952  0.63611  0.28293  1.0000
  H   H3410     1.0  0.65094  0.61958  0.26680  1.0000
  P   P141      1.0  0.60552  0.68755  0.10330  1.0000
  C   C4251     1.0  0.61862  0.70584  0.10147  1.0000
  Fe  Fe275     1.0  0.78218  0.58920  0.98579  1.0000
  H   H3411     1.0  0.75194  0.66659  0.09599  1.0000
  H   H3412     1.0  0.63712  0.51115  0.24377  1.0000
  C   C4252     1.0  0.76043  0.60430  0.43843  1.0000
  H   H3413     1.0  0.66750  0.65404  0.30394  1.0000
  H   H3414     1.0  0.70208  0.53951  0.34430  1.0000
  C   C4253     1.0  0.64939  0.74241  0.36925  1.0000
  H   H3415     1.0  0.61853  0.75145  0.37498  1.0000
  C   C4254     1.0  0.61895  0.50168  0.15217  1.0000
  H   H3416     1.0  0.66646  0.61883  0.23034  1.0000
  C   C4255     1.0  0.62854  0.66557  0.27180  1.0000
  H   H3417     1.0  0.61299  0.71252  0.26074  1.0000
  H   H3418     1.0  0.72531  0.68950  0.37860  1.0000
  H   H3419     1.0  0.67576  0.83138  0.31412  1.0000
  C   C4256     1.0  0.76891  0.63093  0.44565  1.0000
  C   C4257     1.0  0.66744  0.82020  0.31931  1.0000
  H   H3420     1.0  0.77823  0.76488  0.37867  1.0000
  C   C4258     1.0  0.60597  0.66927  0.30186  1.0000
  C   C4259     1.0  0.69688  0.70044  0.42048  1.0000
  H   H3421     1.0  0.66538  0.69669  0.40717  1.0000
  C   C4260     1.0  0.61655  0.70797  0.42080  1.0000
  C   C4261     1.0  0.78449  0.87091  0.25130  1.0000
  H   H3422     1.0  0.63167  0.65124  0.09502  1.0000
  H   H3423     1.0  0.77430  0.72808  0.25924  1.0000
  C   C4262     1.0  0.64092  0.70257  0.21825  1.0000
  C   C4263     1.0  0.68080  0.70045  0.27093  1.0000
  S   S553      1.0  0.63712  0.68624  0.29338  1.0000
  C   C4264     1.0  0.66002  0.81597  0.25436  1.0000
  C   C4265     1.0  0.67763  0.64111  0.30057  1.0000
  Fe  Fe276     1.0  0.61756  0.75598  0.29323  1.0000
  C   C4266     1.0  0.68620  0.73247  0.26737  1.0000
  C   C4267     1.0  0.78440  0.54522  0.18922  1.0000
  H   H3424     1.0  0.66240  0.82905  0.24402  1.0000
  C   C4268     1.0  0.70225  0.60679  0.29262  1.0000
  S   S554      1.0  0.62301  0.77988  0.26751  1.0000
  C   C4269     1.0  0.77433  0.91873  0.19327  1.0000
  C   C4270     1.0  0.65795  0.71614  0.23417  1.0000
  H   H3425     1.0  0.61901  0.54356  0.18083  1.0000
  C   C4271     1.0  0.64173  0.79054  0.26785  1.0000
  C   C4272     1.0  0.68830  0.62918  0.31407  1.0000
  C   C4273     1.0  0.70063  0.61202  0.31008  1.0000
  H   H3426     1.0  0.63666  0.78085  0.33744  1.0000
  C   C4274     1.0  0.77503  0.79262  0.19717  1.0000
  C   C4275     1.0  0.68216  0.71879  0.25948  1.0000
  C   C4276     1.0  0.71998  0.64656  0.37807  1.0000
  C   C4277     1.0  0.78261  0.80919  0.18902  1.0000
  C   C4278     1.0  0.60269  0.75020  0.21282  1.0000
  H   H3427     1.0  0.64310  0.62061  0.11613  1.0000
  H   H3428     1.0  0.75269  0.95942  0.26506  1.0000
  S   S555      1.0  0.78107  0.81886  0.35336  1.0000
  Fe  Fe277     1.0  0.62785  0.73585  0.33251  1.0000
  S   S556      1.0  0.64142  0.73243  0.30219  1.0000
  H   H3429     1.0  0.65353  0.88198  0.08231  1.0000
  C   C4279     1.0  0.73814  0.64018  0.38316  1.0000
  C   C4280     1.0  0.68923  0.72769  0.28625  1.0000
  H   H3430     1.0  0.69161  0.73850  0.29252  1.0000
  C   C4281     1.0  0.78051  0.69508  0.09211  1.0000
  H   H3431     1.0  0.61246  0.69860  0.23351  1.0000
  H   H3432     1.0  0.64713  0.83481  0.30097  1.0000
  C   C4282     1.0  0.63988  0.80822  0.31855  1.0000
  C   C4283     1.0  0.64099  0.93776  0.31551  1.0000
  C   C4284     1.0  0.68381  0.69576  0.28981  1.0000
  S   S557      1.0  0.60501  0.76116  0.32312  1.0000
  H   H3433     1.0  0.72533  0.70657  0.45783  1.0000
  C   C4285     1.0  0.62499  0.70380  0.23351  1.0000
  C   C4286     1.0  0.64163  0.71782  0.24916  1.0000
  C   C4287     1.0  0.77926  0.76308  0.46002  1.0000
  S   S558      1.0  0.77744  0.91392  0.35607  1.0000
  C   C4288     1.0  0.76880  0.73444  0.19996  1.0000
  C   C4289     1.0  0.62526  0.71168  0.24880  1.0000
  H   H3434     1.0  0.64158  0.72371  0.26128  1.0000
  C   C4290     1.0  0.75473  0.80255  0.11359  1.0000
  H   H3435     1.0  0.75226  0.49551  0.33303  1.0000
  C   C4291     1.0  0.76004  0.56307  0.14640  1.0000
  H   H3436     1.0  0.78158  0.72469  0.20396  1.0000
  C   C4292     1.0  0.65364  0.85406  0.10106  1.0000
  H   H3437     1.0  0.74481  0.96225  0.19754  1.0000
  C   C4293     1.0  0.77694  0.65404  0.02657  1.0000
  C   C4294     1.0  0.75824  0.78894  0.44224  1.0000
  C   C4295     1.0  0.63378  0.63243  0.12244  1.0000
  C   C4296     1.0  0.72722  0.62096  0.36042  1.0000
  H   H3438     1.0  0.63977  0.70594  0.43466  1.0000
  H   H3439     1.0  0.66000  0.50544  0.21385  1.0000
  C   C4297     1.0  0.77775  0.65841  0.36792  1.0000
  C   C4298     1.0  0.74006  0.80684  0.10330  1.0000
  H   H3440     1.0  0.60020  0.73580  0.21557  1.0000
  C   C4299     1.0  0.77306  0.50345  0.15236  1.0000
  H   H3441     1.0  0.74481  0.49808  0.15653  1.0000
  S   S559      1.0  0.77161  0.61043  0.15595  1.0000
  C   C4300     1.0  0.76778  0.71097  0.08388  1.0000
  H   H3442     1.0  0.78504  0.70941  0.46904  1.0000
  C   C4301     1.0  0.78126  0.89878  0.19852  1.0000
  C   C4302     1.0  0.78580  0.63879  0.01688  1.0000
  C   C4303     1.0  0.77575  0.95952  0.19190  1.0000
  C   C4304     1.0  0.78500  0.94874  0.35599  1.0000
  H   H3443     1.0  0.70625  0.70341  0.98828  1.0000
  H   H3444     1.0  0.60507  0.67517  0.39078  1.0000
  H   H3445     1.0  0.78215  0.73729  0.35313  1.0000
  C   C4305     1.0  0.60956  0.66292  0.13870  1.0000
  P   P142      1.0  0.77991  0.93478  0.20507  1.0000
  C   C4306     1.0  0.78572  0.73380  0.42039  1.0000
  H   H3446     1.0  0.78163  0.87062  0.19462  1.0000
  H   H3447     1.0  0.60623  0.49552  0.15806  1.0000
  H   H3448     1.0  0.77992  0.65770  0.20773  1.0000
  H   H3449     1.0  0.78431  0.61355  0.19312  1.0000
  H   H3450     1.0  0.76021  0.48543  0.25646  1.0000
  C   C4307     1.0  0.68981  0.81827  0.47217  1.0000
  C   C4308     1.0  0.78300  0.76837  0.15516  1.0000
  H   H3451     1.0  0.59863  0.65859  0.36859  1.0000
  H   H3452     1.0  0.69971  0.80753  0.46464  1.0000
  C   C4309     1.0  0.78251  0.48539  0.28554  1.0000
  H   H3453     1.0  0.78295  0.65809  0.17312  1.0000
  H   H3454     1.0  0.78563  0.72923  0.13750  1.0000
  H   H3455     1.0  0.78528  0.49880  0.27602  1.0000
  H   H3456     1.0  0.70911  0.48748  0.29900  1.0000
  H   H3457     1.0  0.58989  0.77400  0.25608  1.0000
  C   C4310     1.0  0.58928  0.76452  0.22163  1.0000
  C   C4311     1.0  0.59162  0.68429  0.07217  1.0000
  H   H3458     1.0  0.78668  0.48652  0.22775  1.0000
  S   S560      1.0  0.58838  0.63425  0.27865  1.0000
  C   C4312     1.0  0.67709  0.85161  0.47452  1.0000
  C   C4313     1.0  0.58945  0.67225  0.37109  1.0000
  H   H3459     1.0  0.73200  0.74775  0.97783  1.0000
  H   H3460     1.0  0.78673  0.53703  0.26116  1.0000
  S   S561      1.0  0.78778  0.48947  0.37350  1.0000
  H   H3461     1.0  0.78754  0.60215  0.07236  1.0000
  C   C4314     1.0  0.78782  0.72540  0.24905  1.0000
  C   C4315     1.0  0.67119  0.48083  0.18899  1.0000
  C   C4316     1.0  0.59469  0.88308  0.95552  1.0000
  S   S562      1.0  0.69121  0.95967  0.87602  1.0000
  C   C4317     1.0  0.65233  0.88269  0.65920  1.0000
  Fe  Fe278     1.0  0.72944  0.78718  0.57275  1.0000
  S   S563      1.0  0.70927  0.77231  0.59718  1.0000
  S   S564      1.0  0.73272  0.78892  0.54062  1.0000
  Fe  Fe279     1.0  0.74854  0.79791  0.60049  1.0000
  S   S565      1.0  0.72979  0.78382  0.62676  1.0000
  S   S566      1.0  0.77248  0.81148  0.60192  1.0000
  Fe  Fe280     1.0  0.73525  0.76022  0.61077  1.0000
  S   S567      1.0  0.74425  0.72942  0.62528  1.0000
  Fe  Fe281     1.0  0.70579  0.79748  0.61076  1.0000
  S   S568      1.0  0.67801  0.81383  0.62593  1.0000
  S   S569      1.0  0.75573  0.77317  0.58543  1.0000
  S   S570      1.0  0.72413  0.81349  0.58534  1.0000
  S   S571      1.0  0.76852  0.83855  0.67871  1.0000
  C   C4318     1.0  0.74067  0.75216  0.94681  1.0000
  P   P143      1.0  0.78279  0.74515  0.48169  1.0000
  H   H3462     1.0  0.74200  0.61788  0.84232  1.0000
  P   P144      1.0  0.68929  0.88304  0.66282  1.0000
  Fe  Fe282     1.0  0.67174  0.88176  0.82805  1.0000
  S   S572      1.0  0.70114  0.86248  0.82320  1.0000
  S   S573      1.0  0.66501  0.91358  0.82850  1.0000
  Fe  Fe283     1.0  0.65180  0.85234  0.82246  1.0000
  S   S574      1.0  0.67948  0.83109  0.81690  1.0000
  S   S575      1.0  0.62426  0.84423  0.82267  1.0000
  Fe  Fe284     1.0  0.68602  0.83880  0.84176  1.0000
  S   S576      1.0  0.69885  0.81363  0.86306  1.0000
  Fe  Fe285     1.0  0.69172  0.85642  0.79897  1.0000
  S   S577      1.0  0.70797  0.85495  0.76879  1.0000
  S   S578      1.0  0.65737  0.85853  0.84862  1.0000
  S   S579      1.0  0.66339  0.87715  0.80244  1.0000
  H   H3463     1.0  0.71983  0.87778  0.72849  1.0000
  H   H3464     1.0  0.73492  0.95232  0.84612  1.0000
  S   S580      1.0  0.65572  0.72526  0.93585  1.0000
  H   H3465     1.0  0.69000  0.90081  0.85679  1.0000
  Fe  Fe286     1.0  0.65319  0.74722  0.95291  1.0000
  S   S581      1.0  0.64452  0.77883  0.93964  1.0000
  H   H3466     1.0  0.74066  0.68213  0.48274  1.0000
  C   C4319     1.0  0.68411  0.58518  0.92425  1.0000
  Fe  Fe287     1.0  0.69441  0.51533  0.87469  1.0000
  S   S582      1.0  0.68906  0.49995  0.90581  1.0000
  S   S583      1.0  0.67411  0.53919  0.85878  1.0000
  Fe  Fe288     1.0  0.71860  0.50421  0.90514  1.0000
  S   S584      1.0  0.72685  0.50989  0.93060  1.0000
  S   S585      1.0  0.72297  0.52137  0.87476  1.0000
  C   C4320     1.0  0.73574  0.70423  0.97415  1.0000
  S   S586      1.0  0.70728  0.70228  0.92336  1.0000
  C   C4321     1.0  0.67681  0.59544  0.90774  1.0000
  H   H3467     1.0  0.61963  0.63778  0.96241  1.0000
  S   S587      1.0  0.68568  0.75359  0.50142  1.0000
  H   H3468     1.0  0.61063  0.92361  0.89495  1.0000
  C   C4322     1.0  0.68524  0.91261  0.63050  1.0000
  H   H3469     1.0  0.66955  0.49818  0.80570  1.0000
  C   C4323     1.0  0.72280  0.57840  0.86469  1.0000
  H   H3470     1.0  0.72036  0.56885  0.87867  1.0000
  S   S588      1.0  0.61827  0.73705  0.78863  1.0000
  H   H3471     1.0  0.65715  0.95338  0.82926  1.0000
  H   H3472     1.0  0.69782  0.85771  0.86785  1.0000
  C   C4324     1.0  0.61339  0.82320  0.78148  1.0000
  H   H3473     1.0  0.63281  0.74684  0.51885  1.0000
  H   H3474     1.0  0.68245  0.93527  0.60535  1.0000
  C   C4325     1.0  0.75815  0.92468  0.70933  1.0000
  H   H3475     1.0  0.59291  0.62988  0.95299  1.0000
  C   C4326     1.0  0.76626  0.88210  0.81276  1.0000
  C   C4327     1.0  0.68333  0.63308  0.91072  1.0000
  S   S589      1.0  0.70757  0.48806  0.86319  1.0000
  C   C4328     1.0  0.72945  0.67719  0.94814  1.0000
  H   H3476     1.0  0.60056  0.68212  0.77562  1.0000
  C   C4329     1.0  0.73501  0.60603  0.84420  1.0000
  H   H3477     1.0  0.75714  0.52422  0.83914  1.0000
  C   C4330     1.0  0.73550  0.53048  0.92966  1.0000
  C   C4331     1.0  0.73898  0.54401  0.91250  1.0000
  C   C4332     1.0  0.74437  0.56099  0.91263  1.0000
  C   C4333     1.0  0.74667  0.56442  0.92979  1.0000
  C   C4334     1.0  0.62815  0.80612  0.86464  1.0000
  C   C4335     1.0  0.73836  0.53364  0.94670  1.0000
  H   H3478     1.0  0.73711  0.54153  0.89929  1.0000
  H   H3479     1.0  0.74668  0.57157  0.89945  1.0000
  H   H3480     1.0  0.66891  0.59259  0.88220  1.0000
  S   S590      1.0  0.75092  0.58700  0.92978  1.0000
  C   C4336     1.0  0.74590  0.68929  0.91578  1.0000
  C   C4337     1.0  0.76349  0.67841  0.92013  1.0000
  H   H3481     1.0  0.74541  0.69816  0.90159  1.0000
  C   C4338     1.0  0.59391  0.86357  0.96140  1.0000
  C   C4339     1.0  0.61951  0.57612  0.88832  1.0000
  C   C4340     1.0  0.62987  0.56024  0.89944  1.0000
  C   C4341     1.0  0.64649  0.54855  0.89059  1.0000
  C   C4342     1.0  0.65276  0.55266  0.87055  1.0000
  C   C4343     1.0  0.64211  0.56826  0.85943  1.0000
  C   C4344     1.0  0.62566  0.58008  0.86828  1.0000
  H   H3482     1.0  0.62511  0.55705  0.91495  1.0000
  H   H3483     1.0  0.65449  0.53646  0.89930  1.0000
  H   H3484     1.0  0.64658  0.57119  0.84389  1.0000
  H   H3485     1.0  0.61749  0.59204  0.85960  1.0000
  C   C4345     1.0  0.76180  0.58473  0.77211  1.0000
  C   C4346     1.0  0.62779  0.69288  0.92462  1.0000
  H   H3486     1.0  0.77663  0.67885  0.90931  1.0000
  H   H3487     1.0  0.63420  0.69455  0.89393  1.0000
  H   H3488     1.0  0.63983  0.69892  0.92425  1.0000
  C   C4347     1.0  0.68248  0.80373  0.88312  1.0000
  C   C4348     1.0  0.66547  0.81518  0.89133  1.0000
  C   C4349     1.0  0.65370  0.80725  0.90840  1.0000
  C   C4350     1.0  0.65874  0.78782  0.91732  1.0000
  C   C4351     1.0  0.67532  0.77616  0.90866  1.0000
  C   C4352     1.0  0.68714  0.78416  0.89162  1.0000
  H   H3489     1.0  0.66168  0.83028  0.88494  1.0000
  H   H3490     1.0  0.64079  0.81624  0.91491  1.0000
  H   H3491     1.0  0.67928  0.76112  0.91532  1.0000
  H   H3492     1.0  0.70010  0.77528  0.88513  1.0000
  Fe  Fe289     1.0  0.60945  0.75866  0.76272  1.0000
  H   H3493     1.0  0.74759  0.65699  0.96658  1.0000
  C   C4353     1.0  0.64052  0.83867  0.76694  1.0000
  C   C4354     1.0  0.63972  0.84324  0.78458  1.0000
  C   C4355     1.0  0.62545  0.83825  0.80062  1.0000
  H   H3494     1.0  0.65123  0.84311  0.75450  1.0000
  H   H3495     1.0  0.64999  0.85093  0.78563  1.0000
  C   C4356     1.0  0.77268  0.85199  0.75539  1.0000
  C   C4357     1.0  0.76413  0.84677  0.74310  1.0000
  C   C4358     1.0  0.74431  0.84733  0.74762  1.0000
  C   C4359     1.0  0.73291  0.85321  0.76439  1.0000
  C   C4360     1.0  0.74149  0.85795  0.77701  1.0000
  C   C4361     1.0  0.76144  0.85717  0.77258  1.0000
  H   H3496     1.0  0.77278  0.84230  0.73004  1.0000
  H   H3497     1.0  0.73779  0.84336  0.73797  1.0000
  H   H3498     1.0  0.73276  0.86258  0.78991  1.0000
  H   H3499     1.0  0.68459  0.59257  0.93507  1.0000
  C   C4362     1.0  0.76804  0.72504  0.62829  1.0000
  C   C4363     1.0  0.76622  0.56495  0.61910  1.0000
  H   H3500     1.0  0.59910  0.61745  0.92310  1.0000
  H   H3501     1.0  0.73575  0.52319  0.96002  1.0000
  H   H3502     1.0  0.77091  0.69429  0.63563  1.0000
  C   C4364     1.0  0.71865  0.77978  0.53015  1.0000
  C   C4365     1.0  0.70318  0.77128  0.54113  1.0000
  C   C4366     1.0  0.69317  0.76327  0.53223  1.0000
  C   C4367     1.0  0.69820  0.76411  0.51225  1.0000
  C   C4368     1.0  0.71315  0.77325  0.50122  1.0000
  C   C4369     1.0  0.72336  0.78097  0.51014  1.0000
  H   H3503     1.0  0.69896  0.77083  0.55648  1.0000
  H   H3504     1.0  0.68149  0.75640  0.54085  1.0000
  H   H3505     1.0  0.71686  0.77426  0.48584  1.0000
  H   H3506     1.0  0.73499  0.78788  0.50149  1.0000
  C   C4370     1.0  0.66414  0.79914  0.64406  1.0000
  C   C4371     1.0  0.65207  0.80634  0.65998  1.0000
  C   C4372     1.0  0.64187  0.79430  0.67511  1.0000
  C   C4373     1.0  0.64304  0.77532  0.67390  1.0000
  C   C4374     1.0  0.65438  0.76852  0.65755  1.0000
  C   C4375     1.0  0.66529  0.78019  0.64289  1.0000
  H   H3507     1.0  0.65112  0.82101  0.66095  1.0000
  H   H3508     1.0  0.63313  0.79971  0.68765  1.0000
  H   H3509     1.0  0.65475  0.75415  0.65626  1.0000
  H   H3510     1.0  0.67432  0.77461  0.63056  1.0000
  C   C4376     1.0  0.77167  0.81847  0.62354  1.0000
  C   C4377     1.0  0.75775  0.90848  0.72432  1.0000
  C   C4378     1.0  0.76523  0.94001  0.71083  1.0000
  C   C4379     1.0  0.77017  0.83094  0.65733  1.0000
  C   C4380     1.0  0.75681  0.82055  0.65686  1.0000
  C   C4381     1.0  0.75766  0.81420  0.64011  1.0000
  C   C4382     1.0  0.61840  0.87663  0.92667  1.0000
  H   H3511     1.0  0.74573  0.81742  0.66950  1.0000
  H   H3512     1.0  0.74721  0.80635  0.63997  1.0000
  C   C4383     1.0  0.68414  0.94684  0.86266  1.0000
  C   C4384     1.0  0.69035  0.92671  0.86540  1.0000
  C   C4385     1.0  0.68488  0.91622  0.85486  1.0000
  C   C4386     1.0  0.67283  0.92581  0.84185  1.0000
  C   C4387     1.0  0.66655  0.94589  0.83924  1.0000
  C   C4388     1.0  0.67223  0.95638  0.84955  1.0000
  H   H3513     1.0  0.69954  0.91927  0.87559  1.0000
  H   H3514     1.0  0.70727  0.83305  0.89586  1.0000
  H   H3515     1.0  0.69524  0.53985  0.91560  1.0000
  C   C4389     1.0  0.76799  0.80997  0.89691  1.0000
  C   C4390     1.0  0.70228  0.95005  0.77067  1.0000
  C   C4391     1.0  0.68948  0.93853  0.78262  1.0000
  C   C4392     1.0  0.68813  0.92189  0.77762  1.0000
  C   C4393     1.0  0.69918  0.91681  0.76042  1.0000
  C   C4394     1.0  0.71125  0.92868  0.74796  1.0000
  C   C4395     1.0  0.71284  0.94525  0.75300  1.0000
  C   C4396     1.0  0.77237  0.68470  0.52411  1.0000
  C   C4397     1.0  0.69425  0.88391  0.71700  1.0000
  H   H3516     1.0  0.67135  0.88945  0.70192  1.0000
  C   C4398     1.0  0.63534  0.87560  0.66446  1.0000
  C   C4399     1.0  0.59194  0.84878  0.51961  1.0000
  H   H3517     1.0  0.59526  0.72903  0.89529  1.0000
  C   C4400     1.0  0.63776  0.90868  0.90331  1.0000
  S   S591      1.0  0.68150  0.73425  0.96204  1.0000
  H   H3518     1.0  0.71121  0.93493  0.80753  1.0000
  H   H3519     1.0  0.68068  0.94225  0.79601  1.0000
  H   H3520     1.0  0.67846  0.91294  0.78716  1.0000
  H   H3521     1.0  0.69825  0.90373  0.75673  1.0000
  C   C4401     1.0  0.67047  0.86996  0.88412  1.0000
  H   H3522     1.0  0.72787  0.74872  0.56279  1.0000
  C   C4402     1.0  0.60902  0.83483  0.51762  1.0000
  S   S592      1.0  0.78357  0.87438  0.69919  1.0000
  C   C4403     1.0  0.63845  0.76332  0.53641  1.0000
  C   C4404     1.0  0.62669  0.94350  0.89666  1.0000
  C   C4405     1.0  0.65725  0.92946  0.90638  1.0000
  C   C4406     1.0  0.72759  0.75427  0.96418  1.0000
  C   C4407     1.0  0.60698  0.86673  0.53273  1.0000
  C   C4408     1.0  0.71412  0.87875  0.71598  1.0000
  C   C4409     1.0  0.74816  0.91052  0.78582  1.0000
  H   H3523     1.0  0.65440  0.89371  0.64627  1.0000
  C   C4410     1.0  0.69616  0.48429  0.78951  1.0000
  C   C4411     1.0  0.64353  0.94569  0.90061  1.0000
  C   C4412     1.0  0.62369  0.92507  0.89820  1.0000
  C   C4413     1.0  0.77333  0.72291  0.92015  1.0000
  C   C4414     1.0  0.61029  0.75240  0.92920  1.0000
  C   C4415     1.0  0.62782  0.89914  0.86675  1.0000
  C   C4416     1.0  0.62901  0.61926  0.91516  1.0000
  C   C4417     1.0  0.64980  0.65841  0.85758  1.0000
  H   H3524     1.0  0.73678  0.59570  0.87411  1.0000
  C   C4418     1.0  0.70256  0.62403  0.91164  1.0000
  C   C4419     1.0  0.65441  0.91101  0.90776  1.0000
  H   H3525     1.0  0.60572  0.88487  0.83894  1.0000
  C   C4420     1.0  0.68253  0.92291  0.66009  1.0000
  P   P145      1.0  0.75151  0.75862  0.90638  1.0000
  C   C4421     1.0  0.74217  0.75081  0.88990  1.0000
  C   C4422     1.0  0.73481  0.76017  0.92912  1.0000
  C   C4423     1.0  0.71602  0.77103  0.92910  1.0000
  S   S593      1.0  0.59874  0.59057  0.89971  1.0000
  H   H3526     1.0  0.68830  0.78111  0.94628  1.0000
  C   C4424     1.0  0.77383  0.74164  0.90926  1.0000
  C   C4425     1.0  0.70702  0.65172  0.92077  1.0000
  C   C4426     1.0  0.75119  0.75333  0.87029  1.0000
  C   C4427     1.0  0.74384  0.74784  0.85720  1.0000
  C   C4428     1.0  0.72759  0.73957  0.86367  1.0000
  C   C4429     1.0  0.71882  0.73665  0.88321  1.0000
  C   C4430     1.0  0.72617  0.74207  0.89635  1.0000
  C   C4431     1.0  0.75463  0.78309  0.89658  1.0000
  H   H3527     1.0  0.74561  0.55309  0.96009  1.0000
  C   C4432     1.0  0.61066  0.62125  0.92705  1.0000
  H   H3528     1.0  0.61941  0.70774  0.82260  1.0000
  C   C4433     1.0  0.74565  0.81447  0.87619  1.0000
  C   C4434     1.0  0.74394  0.79526  0.88306  1.0000
  C   C4435     1.0  0.63527  0.77553  0.50317  1.0000
  H   H3529     1.0  0.74198  0.87006  0.69836  1.0000
  C   C4436     1.0  0.60531  0.85056  0.94999  1.0000
  H   H3530     1.0  0.71147  0.77797  0.91565  1.0000
  C   C4437     1.0  0.72144  0.97845  0.80434  1.0000
  S   S594      1.0  0.59172  0.78752  0.76735  1.0000
  C   C4438     1.0  0.74629  0.88541  0.81468  1.0000
  H   H3531     1.0  0.76370  0.75987  0.86507  1.0000
  H   H3532     1.0  0.75061  0.75021  0.84203  1.0000
  H   H3533     1.0  0.72172  0.73544  0.85359  1.0000
  H   H3534     1.0  0.70618  0.73028  0.88825  1.0000
  H   H3535     1.0  0.71916  0.73958  0.91145  1.0000
  C   C4439     1.0  0.76047  0.62613  0.55104  1.0000
  S   S595      1.0  0.61764  0.69274  0.96378  1.0000
  H   H3536     1.0  0.61164  0.86033  0.89725  1.0000
  H   H3537     1.0  0.73727  0.82370  0.86579  1.0000
  H   H3538     1.0  0.73390  0.79015  0.87806  1.0000
  H   H3539     1.0  0.71934  0.92502  0.73436  1.0000
  C   C4440     1.0  0.66060  0.72310  0.74722  1.0000
  H   H3540     1.0  0.66649  0.88059  0.87173  1.0000
  H   H3541     1.0  0.63138  0.61390  0.90211  1.0000
  H   H3542     1.0  0.76048  0.68373  0.51844  1.0000
  C   C4441     1.0  0.68149  0.84265  0.91586  1.0000
  C   C4442     1.0  0.75053  0.72418  0.56795  1.0000
  H   H3543     1.0  0.72181  0.90180  0.80244  1.0000
  C   C4443     1.0  0.73726  0.89955  0.80116  1.0000
  H   H3544     1.0  0.76313  0.60369  0.57610  1.0000
  H   H3545     1.0  0.69676  0.55740  0.93958  1.0000
  C   C4444     1.0  0.72692  0.72209  0.50951  1.0000
  C   C4445     1.0  0.76632  0.79072  0.90380  1.0000
  H   H3546     1.0  0.61481  0.75841  0.93893  1.0000
  C   C4446     1.0  0.69920  0.88104  0.68364  1.0000
  H   H3547     1.0  0.67460  0.85409  0.69505  1.0000
  C   C4447     1.0  0.71427  0.63329  0.91682  1.0000
  H   H3548     1.0  0.67765  0.96147  0.62279  1.0000
  H   H3549     1.0  0.61813  0.81930  0.86738  1.0000
  C   C4448     1.0  0.62184  0.78882  0.86921  1.0000
  S   S596      1.0  0.78650  0.65411  0.94365  1.0000
  C   C4449     1.0  0.60437  0.68787  0.78594  1.0000
  H   H3550     1.0  0.60482  0.83538  0.95454  1.0000
  C   C4450     1.0  0.68539  0.90797  0.65031  1.0000
  H   H3551     1.0  0.59205  0.77893  0.81787  1.0000
  Fe  Fe290     1.0  0.64082  0.70846  0.96303  1.0000
  C   C4451     1.0  0.70874  0.76468  0.96400  1.0000
  H   H3552     1.0  0.76608  0.95231  0.69893  1.0000
  H   H3553     1.0  0.58820  0.72040  0.84521  1.0000
  C   C4452     1.0  0.61412  0.87146  0.88458  1.0000
  C   C4453     1.0  0.76485  0.90741  0.74056  1.0000
  H   H3554     1.0  0.76449  0.97224  0.80003  1.0000
  C   C4454     1.0  0.69006  0.55533  0.91342  1.0000
  H   H3555     1.0  0.66303  0.66008  0.82756  1.0000
  H   H3556     1.0  0.61937  0.85541  0.68490  1.0000
  H   H3557     1.0  0.66714  0.97181  0.84762  1.0000
  H   H3558     1.0  0.58979  0.67621  0.95575  1.0000
  H   H3559     1.0  0.73172  0.72410  0.53647  1.0000
  C   C4455     1.0  0.64075  0.63018  0.93761  1.0000
  S   S597      1.0  0.62944  0.82252  0.74306  1.0000
  H   H3560     1.0  0.74486  0.62914  0.55448  1.0000
  C   C4456     1.0  0.67694  0.81255  0.48918  1.0000
  Fe  Fe291     1.0  0.58814  0.62008  0.88262  1.0000
  Fe  Fe292     1.0  0.68270  0.71099  0.94690  1.0000
  C   C4457     1.0  0.70552  0.86892  0.64605  1.0000
  C   C4458     1.0  0.60447  0.73341  0.85692  1.0000
  H   H3561     1.0  0.73199  0.71305  0.96078  1.0000
  H   H3562     1.0  0.72224  0.95414  0.74299  1.0000
  H   H3563     1.0  0.76094  0.73028  0.55610  1.0000
  H   H3564     1.0  0.63968  0.65349  0.88822  1.0000
  H   H3565     1.0  0.77621  0.52090  0.96172  1.0000
  H   H3566     1.0  0.77705  0.81579  0.90251  1.0000
  C   C4459     1.0  0.66361  0.86046  0.68662  1.0000
  H   H3567     1.0  0.76521  0.89434  0.75158  1.0000
  C   C4460     1.0  0.61508  0.68812  0.94211  1.0000
  S   S598      1.0  0.59756  0.65467  0.81186  1.0000
  C   C4461     1.0  0.67550  0.58529  0.89448  1.0000
  C   C4462     1.0  0.72876  0.60337  0.82879  1.0000
  H   H3568     1.0  0.72923  0.87189  0.67007  1.0000
  Fe  Fe293     1.0  0.76974  0.59038  0.94842  1.0000
  Fe  Fe294     1.0  0.73555  0.49276  0.86616  1.0000
  C   C4463     1.0  0.61015  0.68419  0.81783  1.0000
  H   H3569     1.0  0.76208  0.64715  0.52426  1.0000
  C   C4464     1.0  0.78500  0.82893  0.62401  1.0000
  H   H3570     1.0  0.60315  0.81558  0.78035  1.0000
  C   C4465     1.0  0.69374  0.84337  0.89773  1.0000
  H   H3571     1.0  0.63637  0.90959  0.86540  1.0000
  C   C4466     1.0  0.59298  0.73342  0.84443  1.0000
  H   H3572     1.0  0.63780  0.67031  0.85491  1.0000
  H   H3573     1.0  0.75358  0.92509  0.69629  1.0000
  H   H3574     1.0  0.68253  0.67535  0.92245  1.0000
  C   C4467     1.0  0.64411  0.62410  0.92015  1.0000
  S   S599      1.0  0.76118  0.61061  0.96901  1.0000
  H   H3575     1.0  0.63020  0.76366  0.90465  1.0000
  C   C4468     1.0  0.77604  0.63710  0.60023  1.0000
  C   C4469     1.0  0.75773  0.82182  0.88305  1.0000
  C   C4470     1.0  0.68242  0.56535  0.89719  1.0000
  H   H3576     1.0  0.62627  0.84671  0.92413  1.0000
  C   C4471     1.0  0.60723  0.62805  0.94399  1.0000
  H   H3577     1.0  0.75889  0.83678  0.87783  1.0000
  S   S600      1.0  0.63251  0.77108  0.74026  1.0000
  H   H3578     1.0  0.67716  0.79737  0.49459  1.0000
  C   C4472     1.0  0.72996  0.95553  0.83271  1.0000
  C   C4473     1.0  0.66597  0.63298  0.88019  1.0000
  H   H3579     1.0  0.69045  0.63281  0.83387  1.0000
  H   H3580     1.0  0.74627  0.68543  0.60514  1.0000
  C   C4474     1.0  0.69432  0.72921  0.64543  1.0000
  C   C4475     1.0  0.67948  0.71907  0.65066  1.0000
  C   C4476     1.0  0.66958  0.71559  0.66983  1.0000
  C   C4477     1.0  0.67453  0.72221  0.68378  1.0000
  C   C4478     1.0  0.68951  0.73239  0.67868  1.0000
  C   C4479     1.0  0.69935  0.73578  0.65934  1.0000
  P   P146      1.0  0.69744  0.73981  0.69659  1.0000
  C   C4480     1.0  0.68803  0.72777  0.72080  1.0000
  C   C4481     1.0  0.72346  0.73313  0.69050  1.0000
  C   C4482     1.0  0.73495  0.74680  0.68688  1.0000
  C   C4483     1.0  0.75474  0.74211  0.67939  1.0000
  C   C4484     1.0  0.76322  0.72372  0.67568  1.0000
  C   C4485     1.0  0.75201  0.70989  0.67976  1.0000
  C   C4486     1.0  0.73220  0.71456  0.68710  1.0000
  C   C4487     1.0  0.66808  0.73143  0.72823  1.0000
  C   C4488     1.0  0.70041  0.71576  0.73281  1.0000
  C   C4489     1.0  0.69026  0.76564  0.69479  1.0000
  C   C4490     1.0  0.69436  0.77813  0.67689  1.0000
  C   C4491     1.0  0.69093  0.79798  0.67569  1.0000
  C   C4492     1.0  0.68268  0.80561  0.69221  1.0000
  C   C4493     1.0  0.67813  0.79341  0.71004  1.0000
  C   C4494     1.0  0.68224  0.77349  0.71142  1.0000
  H   H3581     1.0  0.70204  0.73205  0.63060  1.0000
  H   H3582     1.0  0.67543  0.71419  0.63984  1.0000
  H   H3583     1.0  0.65773  0.70816  0.67386  1.0000
  H   H3584     1.0  0.66646  0.71935  0.69836  1.0000
  H   H3585     1.0  0.71122  0.74319  0.65493  1.0000
  H   H3586     1.0  0.72868  0.76130  0.68915  1.0000
  H   H3587     1.0  0.76338  0.75297  0.67576  1.0000
  H   H3588     1.0  0.65222  0.63324  0.94230  1.0000
  H   H3589     1.0  0.75855  0.69583  0.67634  1.0000
  H   H3590     1.0  0.72354  0.70399  0.68926  1.0000
  H   H3591     1.0  0.65828  0.74100  0.71935  1.0000
  H   H3592     1.0  0.71585  0.71285  0.72759  1.0000
  H   H3593     1.0  0.70041  0.77265  0.66383  1.0000
  H   H3594     1.0  0.69415  0.80748  0.66178  1.0000
  H   H3595     1.0  0.67961  0.82097  0.69113  1.0000
  H   H3596     1.0  0.67128  0.79941  0.72280  1.0000
  H   H3597     1.0  0.67906  0.76445  0.72552  1.0000
  C   C4495     1.0  0.72893  0.68886  0.92980  1.0000
  C   C4496     1.0  0.71978  0.58797  0.83114  1.0000
  C   C4497     1.0  0.71640  0.57576  0.84935  1.0000
  P   P147      1.0  0.71073  0.58554  0.81144  1.0000
  C   C4498     1.0  0.68808  0.60267  0.81165  1.0000
  C   C4499     1.0  0.72828  0.58850  0.78910  1.0000
  C   C4500     1.0  0.72261  0.59213  0.77141  1.0000
  C   C4501     1.0  0.73642  0.59259  0.75417  1.0000
  C   C4502     1.0  0.77719  0.74032  0.62557  1.0000
  C   C4503     1.0  0.60886  0.68285  0.90750  1.0000
  C   C4504     1.0  0.74803  0.58446  0.78934  1.0000
  C   C4505     1.0  0.68599  0.61958  0.79735  1.0000
  C   C4506     1.0  0.66827  0.63270  0.79807  1.0000
  C   C4507     1.0  0.65272  0.62927  0.81326  1.0000
  C   C4508     1.0  0.65495  0.61285  0.82789  1.0000
  C   C4509     1.0  0.67256  0.59962  0.82714  1.0000
  C   C4510     1.0  0.70758  0.56135  0.81436  1.0000
  C   C4511     1.0  0.69134  0.55792  0.81011  1.0000
  C   C4512     1.0  0.68979  0.53905  0.81125  1.0000
  C   C4513     1.0  0.70448  0.52356  0.81650  1.0000
  C   C4514     1.0  0.72082  0.52690  0.82037  1.0000
  C   C4515     1.0  0.72242  0.54574  0.81919  1.0000
  H   H3598     1.0  0.77470  0.49182  0.78143  1.0000
  H   H3599     1.0  0.70871  0.56429  0.85179  1.0000
  H   H3600     1.0  0.70758  0.59406  0.77097  1.0000
  H   H3601     1.0  0.73199  0.59530  0.74056  1.0000
  C   C4516     1.0  0.75607  0.70632  0.57988  1.0000
  C   C4517     1.0  0.76412  0.66675  0.93840  1.0000
  H   H3602     1.0  0.75293  0.58039  0.80281  1.0000
  H   H3603     1.0  0.69795  0.62276  0.78573  1.0000
  H   H3604     1.0  0.66650  0.64559  0.78688  1.0000
  H   H3605     1.0  0.63896  0.63940  0.81384  1.0000
  H   H3606     1.0  0.64299  0.61044  0.83987  1.0000
  H   H3607     1.0  0.67409  0.58697  0.83866  1.0000
  H   H3608     1.0  0.67977  0.56969  0.80612  1.0000
  H   H3609     1.0  0.67692  0.53640  0.80871  1.0000
  H   H3610     1.0  0.70309  0.50894  0.81793  1.0000
  H   H3611     1.0  0.73213  0.51484  0.82448  1.0000
  H   H3612     1.0  0.73521  0.54820  0.82202  1.0000
  C   C4518     1.0  0.67297  0.71125  0.75909  1.0000
  C   C4519     1.0  0.61355  0.74733  0.89687  1.0000
  C   C4520     1.0  0.61894  0.75541  0.90960  1.0000
  P   P148      1.0  0.62646  0.74953  0.87194  1.0000
  C   C4521     1.0  0.64682  0.72942  0.87113  1.0000
  C   C4522     1.0  0.65128  0.71815  0.85711  1.0000
  C   C4523     1.0  0.66640  0.70195  0.85759  1.0000
  C   C4524     1.0  0.67741  0.69714  0.87177  1.0000
  C   C4525     1.0  0.67356  0.70876  0.88523  1.0000
  C   C4526     1.0  0.65839  0.72485  0.88487  1.0000
  C   C4527     1.0  0.63482  0.77183  0.86532  1.0000
  C   C4528     1.0  0.65417  0.77241  0.85669  1.0000
  C   C4529     1.0  0.66044  0.78974  0.85232  1.0000
  C   C4530     1.0  0.64744  0.80652  0.85633  1.0000
  C   C4531     1.0  0.76861  0.51913  0.82788  1.0000
  H   H3613     1.0  0.77394  0.78185  0.91492  1.0000
  C   C4532     1.0  0.71506  0.96445  0.79909  1.0000
  H   H3614     1.0  0.62378  0.90963  0.83749  1.0000
  C   C4533     1.0  0.74401  0.55052  0.94677  1.0000
  H   H3615     1.0  0.64304  0.72161  0.84594  1.0000
  H   H3616     1.0  0.66938  0.69298  0.84712  1.0000
  H   H3617     1.0  0.68886  0.68438  0.87241  1.0000
  H   H3618     1.0  0.68213  0.70516  0.89618  1.0000
  H   H3619     1.0  0.65555  0.73364  0.89543  1.0000
  H   H3620     1.0  0.66444  0.75956  0.85344  1.0000
  H   H3621     1.0  0.67538  0.79028  0.84596  1.0000
  H   H3622     1.0  0.65228  0.81990  0.85302  1.0000
  C   C4534     1.0  0.59091  0.86471  0.52718  1.0000
  C   C4535     1.0  0.72237  0.87496  0.63480  1.0000
  C   C4536     1.0  0.73424  0.86505  0.62070  1.0000
  C   C4537     1.0  0.72920  0.84926  0.61748  1.0000
  C   C4538     1.0  0.71266  0.84296  0.62878  1.0000
  C   C4539     1.0  0.70084  0.85269  0.64305  1.0000
  H   H3623     1.0  0.74740  0.86951  0.61228  1.0000
  H   H3624     1.0  0.73829  0.84169  0.60642  1.0000
  H   H3625     1.0  0.70899  0.83053  0.62640  1.0000
  H   H3626     1.0  0.68796  0.84761  0.65135  1.0000
  H   H3627     1.0  0.63869  0.75162  0.54891  1.0000
  H   H3628     1.0  0.68730  0.90136  0.62264  1.0000
  H   H3629     1.0  0.64515  0.72603  0.75281  1.0000
  H   H3630     1.0  0.69357  0.49298  0.77568  1.0000
  H   H3631     1.0  0.66702  0.70505  0.77388  1.0000
  H   H3632     1.0  0.76150  0.94168  0.79397  1.0000
  S   S601      1.0  0.63068  0.75964  0.69255  1.0000
  Fe  Fe295     1.0  0.61516  0.77126  0.71925  1.0000
  H   H3633     1.0  0.75527  0.74442  0.94735  1.0000
  C   C4540     1.0  0.75504  0.69780  0.97575  1.0000
  C   C4541     1.0  0.73724  0.72590  0.52108  1.0000
  H   H3634     1.0  0.73782  0.87684  0.82648  1.0000
  H   H3635     1.0  0.69256  0.61583  0.86732  1.0000
  C   C4542     1.0  0.62229  0.63244  0.94930  1.0000
  H   H3636     1.0  0.76936  0.75503  0.62246  1.0000
  C   C4543     1.0  0.78241  0.66946  0.59049  1.0000
  H   H3637     1.0  0.65450  0.85682  0.49895  1.0000
  C   C4544     1.0  0.78546  0.97823  0.77407  1.0000
  P   P149      1.0  0.66775  0.62114  0.90469  1.0000
  H   H3638     1.0  0.75967  0.71871  0.92715  1.0000
  C   C4545     1.0  0.63508  0.76063  0.51948  1.0000
  H   H3639     1.0  0.65463  0.85486  0.93239  1.0000
  C   C4546     1.0  0.61493  0.70237  0.81242  1.0000
  C   C4547     1.0  0.77208  0.92272  0.74218  1.0000
  H   H3640     1.0  0.63315  0.77326  0.48991  1.0000
  C   C4548     1.0  0.65772  0.86880  0.90209  1.0000
  C   C4549     1.0  0.75039  0.73217  0.48108  1.0000
  H   H3641     1.0  0.73087  0.61334  0.81504  1.0000
  H   H3642     1.0  0.73625  0.73774  0.72701  1.0000
  C   C4550     1.0  0.77131  0.94995  0.78360  1.0000
  H   H3643     1.0  0.76344  0.51210  0.87453  1.0000
  Fe  Fe296     1.0  0.61367  0.79984  0.74321  1.0000
  C   C4551     1.0  0.67944  0.63730  0.84578  1.0000
  H   H3644     1.0  0.75645  0.71482  0.74894  1.0000
  C   C4552     1.0  0.66366  0.85550  0.91813  1.0000
  C   C4553     1.0  0.75600  0.58890  0.75452  1.0000
  C   C4554     1.0  0.59647  0.74099  0.93641  1.0000
  C   C4555     1.0  0.60835  0.70649  0.78077  1.0000
  C   C4556     1.0  0.66405  0.65267  0.84221  1.0000
  C   C4557     1.0  0.61345  0.71381  0.79413  1.0000
  C   C4558     1.0  0.72863  0.97403  0.82121  1.0000
  H   H3645     1.0  0.76163  0.73592  0.52205  1.0000
  C   C4559     1.0  0.64659  0.85349  0.69192  1.0000
  C   C4560     1.0  0.68244  0.93183  0.62064  1.0000
  C   C4561     1.0  0.68049  0.62757  0.86472  1.0000
  C   C4562     1.0  0.71918  0.87563  0.68285  1.0000
  H   H3646     1.0  0.70246  0.69842  0.76115  1.0000
  H   H3647     1.0  0.60684  0.78867  0.87578  1.0000
  H   H3648     1.0  0.72629  0.88743  0.63683  1.0000
  C   C4563     1.0  0.62757  0.82839  0.76538  1.0000
  C   C4564     1.0  0.59942  0.73607  0.90429  1.0000
  C   C4565     1.0  0.68815  0.66110  0.91921  1.0000
  H   H3649     1.0  0.71628  0.67664  0.95894  1.0000
  C   C4566     1.0  0.74634  0.73142  0.77123  1.0000
  C   C4567     1.0  0.72331  0.70926  0.59872  1.0000
  C   C4568     1.0  0.71795  0.72709  0.58680  1.0000
  C   C4569     1.0  0.73167  0.73462  0.57161  1.0000
  C   C4570     1.0  0.77799  0.57717  0.60665  1.0000
  S   S602      1.0  0.76335  0.48259  0.84626  1.0000
  C   C4571     1.0  0.78554  0.52054  0.88294  1.0000
  C   C4572     1.0  0.74235  0.69894  0.59539  1.0000
  C   C4573     1.0  0.77726  0.89281  0.79722  1.0000
  S   S603      1.0  0.60856  0.63888  0.86450  1.0000
  C   C4574     1.0  0.61218  0.82834  0.79902  1.0000
  C   C4575     1.0  0.75422  0.73274  0.51271  1.0000
  C   C4576     1.0  0.74710  0.66595  0.95239  1.0000
  C   C4577     1.0  0.77815  0.70608  0.63294  1.0000
  C   C4578     1.0  0.73333  0.72549  0.48955  1.0000
  H   H3650     1.0  0.71286  0.70369  0.61088  1.0000
  H   H3651     1.0  0.70331  0.73530  0.58959  1.0000
  C   C4579     1.0  0.62461  0.69036  0.90742  1.0000
  H   H3652     1.0  0.74094  0.92138  0.77544  1.0000
  C   C4580     1.0  0.76107  0.73579  0.49261  1.0000
  H   H3653     1.0  0.68466  0.88670  0.73041  1.0000
  C   C4581     1.0  0.59095  0.73296  0.92393  1.0000
  H   H3654     1.0  0.75522  0.72146  0.78079  1.0000
  H   H3655     1.0  0.61613  0.95613  0.89209  1.0000
  C   C4582     1.0  0.66652  0.87532  0.67040  1.0000
  H   H3656     1.0  0.71339  0.71743  0.51590  1.0000
  H   H3657     1.0  0.66182  0.65946  0.91273  1.0000
  C   C4583     1.0  0.73214  0.80779  0.79981  1.0000
  C   C4584     1.0  0.72690  0.79873  0.81906  1.0000
  C   C4585     1.0  0.71581  0.78470  0.82391  1.0000
  C   C4586     1.0  0.70989  0.77974  0.80949  1.0000
  C   C4587     1.0  0.71484  0.78902  0.79010  1.0000
  C   C4588     1.0  0.72614  0.80300  0.78537  1.0000
  P   P150      1.0  0.70703  0.78262  0.77155  1.0000
  C   C4589     1.0  0.72276  0.76108  0.76453  1.0000
  C   C4590     1.0  0.68265  0.77881  0.78052  1.0000
  C   C4591     1.0  0.67641  0.76524  0.77447  1.0000
  C   C4592     1.0  0.65748  0.76258  0.78127  1.0000
  C   C4593     1.0  0.64461  0.77338  0.79414  1.0000
  C   C4594     1.0  0.65068  0.78692  0.80024  1.0000
  C   C4595     1.0  0.66954  0.78982  0.79328  1.0000
  C   C4596     1.0  0.72355  0.75719  0.74652  1.0000
  C   C4597     1.0  0.74706  0.72768  0.75329  1.0000
  C   C4598     1.0  0.69086  0.56524  0.92697  1.0000
  H   H3658     1.0  0.70861  0.60978  0.90860  1.0000
  C   C4599     1.0  0.73425  0.74805  0.77686  1.0000
  C   C4600     1.0  0.70757  0.80171  0.75031  1.0000
  C   C4601     1.0  0.72510  0.80353  0.73724  1.0000
  C   C4602     1.0  0.72547  0.81769  0.72029  1.0000
  C   C4603     1.0  0.70839  0.83015  0.71634  1.0000
  C   C4604     1.0  0.69097  0.82869  0.72945  1.0000
  C   C4605     1.0  0.69053  0.81450  0.74634  1.0000
  H   H3659     1.0  0.74052  0.81887  0.79605  1.0000
  H   H3660     1.0  0.73107  0.80291  0.83028  1.0000
  H   H3661     1.0  0.71141  0.77809  0.83894  1.0000
  H   H3662     1.0  0.70114  0.76896  0.81351  1.0000
  H   H3663     1.0  0.73001  0.81063  0.77065  1.0000
  H   H3664     1.0  0.68593  0.75682  0.76437  1.0000
  H   H3665     1.0  0.65264  0.75228  0.77638  1.0000
  H   H3666     1.0  0.62987  0.77142  0.79909  1.0000
  H   H3667     1.0  0.64066  0.79551  0.81002  1.0000
  H   H3668     1.0  0.67372  0.80091  0.79761  1.0000
  H   H3669     1.0  0.71475  0.76701  0.73678  1.0000
  H   H3670     1.0  0.64618  0.95996  0.89890  1.0000
  C   C4606     1.0  0.62073  0.89920  0.85077  1.0000
  C   C4607     1.0  0.77231  0.93901  0.72710  1.0000
  H   H3671     1.0  0.73396  0.75072  0.79076  1.0000
  H   H3672     1.0  0.73850  0.79408  0.74016  1.0000
  H   H3673     1.0  0.73904  0.81919  0.71028  1.0000
  H   H3674     1.0  0.70876  0.84100  0.70318  1.0000
  H   H3675     1.0  0.67773  0.83855  0.72668  1.0000
  H   H3676     1.0  0.67685  0.81358  0.75618  1.0000
  P   P151      1.0  0.78040  0.69278  0.57442  1.0000
  C   C4608     1.0  0.64213  0.78087  0.53702  1.0000
  C   C4609     1.0  0.64247  0.79590  0.52065  1.0000
  C   C4610     1.0  0.63888  0.79311  0.50375  1.0000
  P   P152      1.0  0.64736  0.81870  0.52103  1.0000
  C   C4611     1.0  0.65780  0.81659  0.54148  1.0000
  C   C4612     1.0  0.66390  0.82631  0.49896  1.0000
  H   H3677     1.0  0.77811  0.59037  0.61055  1.0000
  H   H3678     1.0  0.61073  0.67576  0.83222  1.0000
  H   H3679     1.0  0.62447  0.88123  0.65573  1.0000
  C   C4613     1.0  0.67973  0.94658  0.63046  1.0000
  C   C4614     1.0  0.76828  0.90708  0.78359  1.0000
  C   C4615     1.0  0.67730  0.81704  0.53899  1.0000
  C   C4616     1.0  0.68485  0.81652  0.55483  1.0000
  C   C4617     1.0  0.67313  0.81520  0.57326  1.0000
  C   C4618     1.0  0.65378  0.81454  0.57591  1.0000
  C   C4619     1.0  0.64608  0.81535  0.56008  1.0000
  C   C4620     1.0  0.62524  0.83672  0.52320  1.0000
  C   C4621     1.0  0.62408  0.85283  0.53075  1.0000
  H   H3680     1.0  0.75472  0.68957  0.55129  1.0000
  H   H3681     1.0  0.75688  0.53826  0.62412  1.0000
  H   H3682     1.0  0.64517  0.78238  0.55014  1.0000
  H   H3683     1.0  0.77159  0.78390  0.49050  1.0000
  H   H3684     1.0  0.59977  0.86038  0.86885  1.0000
  C   C4622     1.0  0.60724  0.87144  0.86848  1.0000
  H   H3685     1.0  0.60728  0.90477  0.93406  1.0000
  P   P153      1.0  0.63432  0.88490  0.90434  1.0000
  H   H3686     1.0  0.68183  0.55759  0.88676  1.0000
  H   H3687     1.0  0.68681  0.81773  0.52493  1.0000
  H   H3688     1.0  0.69986  0.81703  0.55282  1.0000
  H   H3689     1.0  0.67905  0.81470  0.58552  1.0000
  H   H3690     1.0  0.64478  0.81349  0.59028  1.0000
  H   H3691     1.0  0.63097  0.81503  0.56234  1.0000
  H   H3692     1.0  0.63639  0.85463  0.53516  1.0000
  C   C4623     1.0  0.60638  0.76650  0.84181  1.0000
  C   C4624     1.0  0.71647  0.94588  0.81075  1.0000
  C   C4625     1.0  0.77566  0.50725  0.88148  1.0000
  H   H3693     1.0  0.60868  0.72022  0.86696  1.0000
  C   C4626     1.0  0.69288  0.70757  0.75190  1.0000
  C   C4627     1.0  0.68835  0.85721  0.88192  1.0000
  C   C4628     1.0  0.61054  0.88529  0.85158  1.0000
  H   H3694     1.0  0.60938  0.82261  0.51182  1.0000
  H   H3695     1.0  0.71602  0.65865  0.92515  1.0000
  C   C4629     1.0  0.77013  0.63636  0.53407  1.0000
  H   H3696     1.0  0.76806  0.86123  0.78207  1.0000
  C   C4630     1.0  0.60688  0.88962  0.93824  1.0000
  C   C4631     1.0  0.67974  0.94212  0.65018  1.0000
  H   H3697     1.0  0.63928  0.80439  0.49086  1.0000
  C   C4632     1.0  0.65080  0.64868  0.87650  1.0000
  H   H3698     1.0  0.78037  0.53569  0.87751  1.0000
  H   H3699     1.0  0.68569  0.83193  0.92812  1.0000
  H   H3700     1.0  0.76308  0.70525  0.86794  1.0000
  H   H3701     1.0  0.72891  0.62603  0.91812  1.0000
  H   H3702     1.0  0.77971  0.59851  0.89650  1.0000
  P   P154      1.0  0.70426  0.97096  0.77816  1.0000
  C   C4633     1.0  0.63246  0.86103  0.68084  1.0000
  H   H3703     1.0  0.67041  0.93129  0.90914  1.0000
  C   C4634     1.0  0.61111  0.74998  0.85595  1.0000
  C   C4635     1.0  0.73567  0.74057  0.74094  1.0000
  C   C4636     1.0  0.73209  0.59351  0.86213  1.0000
  C   C4637     1.0  0.68680  0.88521  0.70088  1.0000
  C   C4638     1.0  0.60465  0.67698  0.80467  1.0000
  H   H3704     1.0  0.77493  0.79611  0.51744  1.0000
  Fe  Fe297     1.0  0.58900  0.66185  0.87973  1.0000
  H   H3705     1.0  0.60109  0.82448  0.81138  1.0000
  H   H3706     1.0  0.74435  0.96291  0.75790  1.0000
  C   C4639     1.0  0.62447  0.88535  0.88390  1.0000
  S   S604      1.0  0.59332  0.75631  0.74159  1.0000
  H   H3707     1.0  0.72490  0.92713  0.83639  1.0000
  C   C4640     1.0  0.72418  0.94139  0.82729  1.0000
  H   H3708     1.0  0.77291  0.54753  0.81260  1.0000
  C   C4641     1.0  0.77750  0.69659  0.86786  1.0000
  C   C4642     1.0  0.59656  0.67733  0.92505  1.0000
  C   C4643     1.0  0.61745  0.85705  0.93270  1.0000
  H   H3709     1.0  0.75244  0.89645  0.72319  1.0000
  C   C4644     1.0  0.66417  0.84592  0.49159  1.0000
  C   C4645     1.0  0.73830  0.97789  0.75268  1.0000
  H   H3710     1.0  0.77111  0.62569  0.59734  1.0000
  C   C4646     1.0  0.59963  0.68004  0.94229  1.0000
  H   H3711     1.0  0.67767  0.95357  0.65778  1.0000
  C   C4647     1.0  0.72656  0.87453  0.69897  1.0000
  S   S605      1.0  0.59795  0.80124  0.72015  1.0000
  C   C4648     1.0  0.67642  0.65196  0.91389  1.0000
  C   C4649     1.0  0.78189  0.78144  0.51600  1.0000
  C   C4650     1.0  0.70299  0.77315  0.94645  1.0000
  H   H3712     1.0  0.68253  0.91986  0.67532  1.0000
  H   H3713     1.0  0.75742  0.56872  0.63247  1.0000
  C   C4651     1.0  0.58846  0.74984  0.83041  1.0000
  C   C4652     1.0  0.77093  0.61169  0.56328  1.0000
  H   H3714     1.0  0.64436  0.84206  0.70454  1.0000
  H   H3715     1.0  0.60749  0.71513  0.76651  1.0000
  C   C4653     1.0  0.76921  0.68815  0.54264  1.0000
  H   H3716     1.0  0.66544  0.89870  0.91190  1.0000
  C   C4654     1.0  0.77288  0.96727  0.78713  1.0000
  C   C4655     1.0  0.77758  0.53226  0.81295  1.0000
  C   C4656     1.0  0.77452  0.49940  0.82818  1.0000
  H   H3717     1.0  0.77628  0.73168  0.58239  1.0000
  H   H3718     1.0  0.77096  0.65640  0.57375  1.0000
  P   P155      1.0  0.78237  0.92029  0.76282  1.0000
  C   C4657     1.0  0.77996  0.77443  0.50073  1.0000
  S   S606      1.0  0.66821  0.69246  0.97302  1.0000
  H   H3719     1.0  0.61166  0.77939  0.84013  1.0000
  C   C4658     1.0  0.59514  0.76637  0.82910  1.0000
  C   C4659     1.0  0.77609  0.65454  0.58681  1.0000
  H   H3720     1.0  0.76676  0.58874  0.74123  1.0000
  H   H3721     1.0  0.60618  0.87904  0.53868  1.0000
  H   H3722     1.0  0.77837  0.72034  0.66905  1.0000
  C   C4660     1.0  0.78251  0.63434  0.61727  1.0000
  H   H3723     1.0  0.77153  0.67316  0.85936  1.0000
  C   C4661     1.0  0.76592  0.54779  0.61442  1.0000
  S   S607      1.0  0.77841  0.65885  0.48143  1.0000
  C   C4662     1.0  0.78259  0.94342  0.76698  1.0000
  H   H3724     1.0  0.76635  0.70163  0.96362  1.0000
  C   C4663     1.0  0.77735  0.54286  0.59725  1.0000
  H   H3725     1.0  0.77703  0.58107  0.77244  1.0000
  Fe  Fe298     1.0  0.58816  0.64813  0.84422  1.0000
  H   H3726     1.0  0.72460  0.72357  0.48067  1.0000
  C   C4664     1.0  0.78228  0.67851  0.86301  1.0000
  C   C4665     1.0  0.78464  0.68950  0.54994  1.0000
  C   C4666     1.0  0.68261  0.48719  0.80638  1.0000
  S   S608      1.0  0.60407  0.68268  0.88512  1.0000
  H   H3727     1.0  0.77331  0.87091  0.82305  1.0000
  Fe  Fe299     1.0  0.78717  0.62240  0.95242  1.0000
  H   H3728     1.0  0.59045  0.73791  0.95175  1.0000
  H   H3729     1.0  0.78063  0.52661  0.92641  1.0000
  H   H3730     1.0  0.78413  0.60849  0.86095  1.0000
  H   H3731     1.0  0.77849  0.95071  0.72738  1.0000
  H   H3732     1.0  0.78284  0.62072  0.62754  1.0000
  H   H3733     1.0  0.78735  0.71716  0.87714  1.0000
  C   C4667     1.0  0.78434  0.83506  0.64087  1.0000
  H   H3734     1.0  0.77714  0.52952  0.59363  1.0000
  C   C4668     1.0  0.78150  0.48764  0.88899  1.0000
  C   C4669     1.0  0.78709  0.58809  0.88751  1.0000
  H   H3735     1.0  0.82911  0.15815  0.41222  1.0000
  H   H3736     1.0  0.80677  0.10668  0.32239  1.0000
  C   C4670     1.0  0.86986  0.98751  0.36118  1.0000
  S   S609      1.0  0.80538  0.21908  0.45163  1.0000
  C   C4671     1.0  0.79490  0.11908  0.32253  1.0000
  Fe  Fe300     1.0  0.81263  0.24775  0.44856  1.0000
  H   H3737     1.0  0.80634  0.24900  0.29102  1.0000
  C   C4672     1.0  0.91424  0.10950  0.45196  1.0000
  H   H3738     1.0  0.80379  0.01059  0.41642  1.0000
  Fe  Fe301     1.0  0.91069  0.14445  0.38425  1.0000
  S   S610      1.0  0.91867  0.11468  0.40166  1.0000
  S   S611      1.0  0.89697  0.17254  0.39369  1.0000
  Fe  Fe302     1.0  0.92736  0.13194  0.34616  1.0000
  S   S612      1.0  0.93649  0.10097  0.36008  1.0000
  S   S613      1.0  0.93507  0.14219  0.31412  1.0000
  Fe  Fe303     1.0  0.90764  0.10530  0.38021  1.0000
  S   S614      1.0  0.88704  0.08469  0.39074  1.0000
  Fe  Fe304     1.0  0.94676  0.11296  0.38000  1.0000
  S   S615      1.0  0.89756  0.13540  0.36451  1.0000
  S   S616      1.0  0.93969  0.14356  0.36446  1.0000
  Fe  Fe305     1.0  0.83623  0.04025  0.33630  1.0000
  S   S617      1.0  0.86207  0.05412  0.32918  1.0000
  C   C4673     1.0  0.86242  0.11688  0.42029  1.0000
  C   C4674     1.0  0.97820  0.28582  0.26440  1.0000
  H   H3739     1.0  0.85667  0.09002  0.43836  1.0000
  C   C4675     1.0  0.97468  0.33245  0.30153  1.0000
  Fe  Fe306     1.0  0.79720  0.03568  0.36136  1.0000
  S   S618      1.0  0.81997  0.36653  0.35445  1.0000
  C   C4676     1.0  0.85052  0.10495  0.43293  1.0000
  C   C4677     1.0  0.79099  0.43773  0.24194  1.0000
  Fe  Fe307     1.0  0.81861  0.35336  0.33062  1.0000
  S   S619      1.0  0.84144  0.32732  0.32500  1.0000
  Fe  Fe308     1.0  0.80881  0.39477  0.33599  1.0000
  S   S620      1.0  0.82292  0.42050  0.32877  1.0000
  C   C4678     1.0  0.82069  0.23886  0.04765  1.0000
  Fe  Fe309     1.0  0.90186  0.24364  0.25951  1.0000
  S   S621      1.0  0.92468  0.23310  0.23555  1.0000
  S   S622      1.0  0.88726  0.22475  0.28531  1.0000
  Fe  Fe310     1.0  0.90226  0.28579  0.24192  1.0000
  S   S623      1.0  0.92526  0.27860  0.21655  1.0000
  S   S624      1.0  0.88883  0.31710  0.24225  1.0000
  Fe  Fe311     1.0  0.90834  0.25723  0.21641  1.0000
  S   S625      1.0  0.90230  0.25512  0.18852  1.0000
  Fe  Fe312     1.0  0.93941  0.25531  0.23817  1.0000
  S   S626      1.0  0.88422  0.26616  0.24024  1.0000
  S   S627      1.0  0.91764  0.26410  0.26374  1.0000
  Fe  Fe313     1.0  0.81825  0.21365  0.13370  1.0000
  S   S628      1.0  0.81948  0.19224  0.16190  1.0000
  S   S629      1.0  0.83459  0.20392  0.10595  1.0000
  C   C4679     1.0  0.79053  0.00179  0.27736  1.0000
  Fe  Fe314     1.0  0.82200  0.00294  0.34285  1.0000
  Fe  Fe315     1.0  0.81809  0.21775  0.17421  1.0000
  S   S630      1.0  0.83220  0.21514  0.19911  1.0000
  H   H3740     1.0  0.82088  0.22798  0.40760  1.0000
  S   S631      1.0  0.81969  0.23863  0.14551  1.0000
  H   H3741     1.0  0.79420  0.20721  0.04633  1.0000
  H   H3742     1.0  0.81105  0.25696  0.18547  1.0000
  S   S632      1.0  0.81748  0.21332  0.99302  1.0000
  S   S633      1.0  0.82161  0.26506  0.41875  1.0000
  C   C4680     1.0  0.83075  0.11219  0.43827  1.0000
  H   H3743     1.0  0.96169  0.12809  0.41006  1.0000
  C   C4681     1.0  0.80884  0.28898  0.41286  1.0000
  H   H3744     1.0  0.95459  0.27883  0.25691  1.0000
  C   C4682     1.0  0.88279  0.24407  0.19143  1.0000
  C   C4683     1.0  0.87480  0.23423  0.20959  1.0000
  C   C4684     1.0  0.85949  0.22520  0.21164  1.0000
  C   C4685     1.0  0.85190  0.22613  0.19564  1.0000
  C   C4686     1.0  0.85973  0.23616  0.17752  1.0000
  C   C4687     1.0  0.87522  0.24501  0.17542  1.0000
  H   H3745     1.0  0.88064  0.23328  0.22198  1.0000
  H   H3746     1.0  0.85352  0.21744  0.22568  1.0000
  H   H3747     1.0  0.85395  0.23699  0.16511  1.0000
  H   H3748     1.0  0.88134  0.25259  0.16134  1.0000
  C   C4688     1.0  0.81282  0.43954  0.34131  1.0000
  C   C4689     1.0  0.80462  0.36834  0.17152  1.0000
  C   C4690     1.0  0.81415  0.16509  0.98522  1.0000
  C   C4691     1.0  0.80187  0.29942  0.33894  1.0000
  C   C4692     1.0  0.80853  0.47346  0.34204  1.0000
  C   C4693     1.0  0.81609  0.45807  0.33232  1.0000
  H   H3749     1.0  0.82830  0.31170  0.27852  1.0000
  H   H3750     1.0  0.80830  0.47445  0.17544  1.0000
  C   C4694     1.0  0.78975  0.16047  0.41871  1.0000
  H   H3751     1.0  0.82443  0.46060  0.31775  1.0000
  C   C4695     1.0  0.85452  0.32580  0.30170  1.0000
  C   C4696     1.0  0.84873  0.33824  0.28527  1.0000
  C   C4697     1.0  0.85952  0.33583  0.26687  1.0000
  C   C4698     1.0  0.87578  0.32081  0.26504  1.0000
  C   C4699     1.0  0.88162  0.30872  0.28148  1.0000
  C   C4700     1.0  0.87116  0.31139  0.29975  1.0000
  H   H3752     1.0  0.83590  0.34949  0.28675  1.0000
  H   H3753     1.0  0.85502  0.34525  0.25411  1.0000
  H   H3754     1.0  0.89421  0.29728  0.28008  1.0000
  H   H3755     1.0  0.87604  0.30236  0.31248  1.0000
  S   S634      1.0  0.83398  0.02287  0.31617  1.0000
  C   C4701     1.0  0.92127  0.16479  0.30601  1.0000
  C   C4702     1.0  0.90651  0.17414  0.31887  1.0000
  C   C4703     1.0  0.89587  0.19240  0.31224  1.0000
  C   C4704     1.0  0.90052  0.20171  0.29295  1.0000
  C   C4705     1.0  0.91534  0.19245  0.28009  1.0000
  C   C4706     1.0  0.92545  0.17382  0.28655  1.0000
  H   H3756     1.0  0.90339  0.16741  0.33392  1.0000
  H   H3757     1.0  0.88438  0.19955  0.32217  1.0000
  C   C4707     1.0  0.87995  0.07643  0.37355  1.0000
  C   C4708     1.0  0.86515  0.06596  0.37950  1.0000
  C   C4709     1.0  0.85931  0.05922  0.36604  1.0000
  C   C4710     1.0  0.86845  0.06270  0.34658  1.0000
  C   C4711     1.0  0.88331  0.07303  0.34069  1.0000
  C   C4712     1.0  0.88897  0.07995  0.35409  1.0000
  H   H3758     1.0  0.85815  0.06312  0.39455  1.0000
  H   H3759     1.0  0.84792  0.05117  0.37075  1.0000
  H   H3760     1.0  0.89056  0.07561  0.32569  1.0000
  H   H3761     1.0  0.90054  0.08775  0.34946  1.0000
  H   H3762     1.0  0.93682  0.16658  0.27656  1.0000
  H   H3763     1.0  0.91874  0.19941  0.26511  1.0000
  S   S635      1.0  0.81631  0.25321  0.02517  1.0000
  H   H3764     1.0  0.79635  0.98656  0.28150  1.0000
  H   H3765     1.0  0.79406  0.30998  0.29279  1.0000
  H   H3766     1.0  0.80567  0.31777  0.17817  1.0000
  H   H3767     1.0  0.95090  0.30832  0.38703  1.0000
  C   C4713     1.0  0.85461  0.13601  0.41285  1.0000
  C   C4714     1.0  0.87939  0.98700  0.39055  1.0000
  C   C4715     1.0  0.83257  0.13325  0.28448  1.0000
  C   C4716     1.0  0.85679  0.17683  0.45200  1.0000
  C   C4717     1.0  0.85875  0.19330  0.43757  1.0000
  C   C4718     1.0  0.87130  0.19170  0.41982  1.0000
  C   C4719     1.0  0.88151  0.17362  0.41619  1.0000
  C   C4720     1.0  0.87930  0.15708  0.43045  1.0000
  C   C4721     1.0  0.86685  0.15872  0.44835  1.0000
  H   H3768     1.0  0.85093  0.20734  0.44021  1.0000
  H   H3769     1.0  0.87294  0.20454  0.40880  1.0000
  H   H3770     1.0  0.88722  0.14309  0.42772  1.0000
  C   C4722     1.0  0.93738  0.31203  0.38220  1.0000
  C   C4723     1.0  0.83483  0.14327  0.41802  1.0000
  H   H3771     1.0  0.82176  0.10280  0.44827  1.0000
  C   C4724     1.0  0.83034  0.21956  0.04953  1.0000
  C   C4725     1.0  0.83453  0.20897  0.06747  1.0000
  C   C4726     1.0  0.82875  0.21747  0.08372  1.0000
  C   C4727     1.0  0.81894  0.23669  0.08187  1.0000
  H   H3772     1.0  0.88632  0.26674  0.39735  1.0000
  H   H3773     1.0  0.83491  0.21294  0.03708  1.0000
  H   H3774     1.0  0.84227  0.19416  0.06878  1.0000
  C   C4728     1.0  0.86641  0.26303  0.31293  1.0000
  C   C4729     1.0  0.80959  0.30341  0.18651  1.0000
  C   C4730     1.0  0.88471  0.11861  0.30072  1.0000
  C   C4731     1.0  0.89199  0.11161  0.28358  1.0000
  C   C4732     1.0  0.91119  0.10193  0.27934  1.0000
  C   C4733     1.0  0.92330  0.09930  0.29210  1.0000
  C   C4734     1.0  0.91624  0.10644  0.30903  1.0000
  C   C4735     1.0  0.89709  0.11625  0.31326  1.0000
  H   H3775     1.0  0.84094  0.10186  0.33558  1.0000
  H   H3776     1.0  0.88291  0.11369  0.27340  1.0000
  H   H3777     1.0  0.91671  0.09652  0.26614  1.0000
  H   H3778     1.0  0.93821  0.09189  0.28884  1.0000
  H   H3779     1.0  0.92571  0.10460  0.31880  1.0000
  H   H3780     1.0  0.89211  0.12186  0.32634  1.0000
  C   C4736     1.0  0.83721  0.10948  0.36265  1.0000
  H   H3781     1.0  0.82738  0.19286  0.40915  1.0000
  C   C4737     1.0  0.81514  0.24739  0.06385  1.0000
  C   C4738     1.0  0.85575  0.19618  0.28093  1.0000
  C   C4739     1.0  0.97566  0.28543  0.17983  1.0000
  C   C4740     1.0  0.83628  0.43156  0.18089  1.0000
  H   H3782     1.0  0.81479  0.24342  0.09421  1.0000
  C   C4741     1.0  0.86124  0.29314  0.36297  1.0000
  H   H3783     1.0  0.92016  0.30726  0.41100  1.0000
  H   H3784     1.0  0.86399  0.14518  0.40313  1.0000
  C   C4742     1.0  0.88721  0.01112  0.36184  1.0000
  C   C4743     1.0  0.80320  0.03974  0.20991  1.0000
  C   C4744     1.0  0.97406  0.23600  0.31380  1.0000
  H   H3785     1.0  0.87941  0.98137  0.40571  1.0000
  C   C4745     1.0  0.97291  0.20347  0.27900  1.0000
  C   C4746     1.0  0.85182  0.12766  0.33203  1.0000
  S   S636      1.0  0.97149  0.24698  0.23745  1.0000
  C   C4747     1.0  0.86189  0.27867  0.35346  1.0000
  C   C4748     1.0  0.95694  0.36519  0.30151  1.0000
  H   H3786     1.0  0.91357  0.19089  0.41969  1.0000
  C   C4749     1.0  0.81867  0.31206  0.26938  1.0000
  C   C4750     1.0  0.93263  0.11356  0.44744  1.0000
  P   P156      1.0  0.85989  0.13111  0.30609  1.0000
  S   S637      1.0  0.81023  0.38161  0.31096  1.0000
  S   S638      1.0  0.82713  0.01879  0.36291  1.0000
  C   C4751     1.0  0.79483  0.45557  0.23092  1.0000
  C   C4752     1.0  0.81233  0.26906  0.19060  1.0000
  C   C4753     1.0  0.81866  0.26591  0.20776  1.0000
  C   C4754     1.0  0.82085  0.28142  0.21413  1.0000
  C   C4755     1.0  0.81620  0.30032  0.20362  1.0000
  C   C4756     1.0  0.97747  0.22545  0.34726  1.0000
  P   P157      1.0  0.82041  0.31994  0.21147  1.0000
  C   C4757     1.0  0.81264  0.31568  0.23742  1.0000
  C   C4758     1.0  0.84568  0.32076  0.20449  1.0000
  C   C4759     1.0  0.85165  0.33670  0.20646  1.0000
  C   C4760     1.0  0.87118  0.33751  0.20142  1.0000
  C   C4761     1.0  0.88486  0.32246  0.19432  1.0000
  C   C4762     1.0  0.87900  0.30670  0.19207  1.0000
  C   C4763     1.0  0.85950  0.30577  0.19715  1.0000
  H   H3787     1.0  0.81118  0.17660  0.99293  1.0000
  H   H3788     1.0  0.83706  0.10564  0.99318  1.0000
  H   H3789     1.0  0.87771  0.11122  0.41615  1.0000
  H   H3790     1.0  0.86850  0.29990  0.38666  1.0000
  C   C4764     1.0  0.82525  0.31462  0.24938  1.0000
  C   C4765     1.0  0.80743  0.34286  0.20009  1.0000
  C   C4766     1.0  0.81464  0.35094  0.18080  1.0000
  C   C4767     1.0  0.79132  0.20042  0.32936  1.0000
  H   H3791     1.0  0.94700  0.30886  0.20201  1.0000
  H   H3792     1.0  0.79060  0.09627  0.16051  1.0000
  C   C4768     1.0  0.87828  0.00340  0.35185  1.0000
  H   H3793     1.0  0.80303  0.29019  0.16662  1.0000
  H   H3794     1.0  0.82229  0.25134  0.21584  1.0000
  H   H3795     1.0  0.82654  0.27864  0.22704  1.0000
  H   H3796     1.0  0.86401  0.47564  0.17811  1.0000
  H   H3797     1.0  0.84123  0.34830  0.21227  1.0000
  H   H3798     1.0  0.87582  0.34946  0.20362  1.0000
  H   H3799     1.0  0.90004  0.32279  0.19094  1.0000
  H   H3800     1.0  0.88962  0.29502  0.18661  1.0000
  H   H3801     1.0  0.85547  0.29326  0.19537  1.0000
  H   H3802     1.0  0.81212  0.13454  0.26747  1.0000
  C   C4769     1.0  0.95506  0.31360  0.20965  1.0000
  H   H3803     1.0  0.84010  0.31588  0.24343  1.0000
  H   H3804     1.0  0.82779  0.34350  0.17278  1.0000
  C   C4770     1.0  0.79258  0.14975  0.45934  1.0000
  C   C4771     1.0  0.92185  0.13578  0.46942  1.0000
  H   H3805     1.0  0.81663  0.09894  0.27277  1.0000
  H   H3806     1.0  0.80754  0.32659  0.37425  1.0000
  H   H3807     1.0  0.79347  0.10482  0.36944  1.0000
  C   C4772     1.0  0.80776  0.99781  0.41033  1.0000
  Fe  Fe316     1.0  0.81069  0.24227  0.00133  1.0000
  H   H3808     1.0  0.91131  0.09938  0.44519  1.0000
  S   S639      1.0  0.83337  0.23649  0.46865  1.0000
  C   C4773     1.0  0.93649  0.12655  0.45619  1.0000
  H   H3809     1.0  0.86491  0.14602  0.45939  1.0000
  C   C4774     1.0  0.94712  0.17846  0.45739  1.0000
  C   C4775     1.0  0.97410  0.35223  0.29629  1.0000
  C   C4776     1.0  0.80790  0.28778  0.17995  1.0000
  H   H3810     1.0  0.81183  0.18158  0.34595  1.0000
  H   H3811     1.0  0.81197  0.42383  0.27030  1.0000
  C   C4777     1.0  0.95542  0.32669  0.23661  1.0000
  C   C4778     1.0  0.79418  0.01496  0.28626  1.0000
  C   C4779     1.0  0.89706  0.18046  0.47138  1.0000
  C   C4780     1.0  0.88241  0.19673  0.47375  1.0000
  H   H3812     1.0  0.80998  0.37415  0.15649  1.0000
  C   C4781     1.0  0.82697  0.98791  0.40700  1.0000
  H   H3813     1.0  0.94395  0.10654  0.43717  1.0000
  H   H3814     1.0  0.89601  0.21098  0.37296  1.0000
  H   H3815     1.0  0.83933  0.24860  0.38151  1.0000
  H   H3816     1.0  0.87189  0.47750  0.11756  1.0000
  S   S640      1.0  0.79123  0.01809  0.34352  1.0000
  H   H3817     1.0  0.93012  0.32051  0.23175  1.0000
  H   H3818     1.0  0.80894  0.30823  0.34348  1.0000
  C   C4782     1.0  0.84159  0.16987  0.30202  1.0000
  H   H3819     1.0  0.82669  0.29021  0.31792  1.0000
  H   H3820     1.0  0.90045  0.17540  0.45802  1.0000
  H   H3821     1.0  0.87457  0.20408  0.46239  1.0000
  S   S641      1.0  0.79006  0.05170  0.29215  1.0000
  C   C4783     1.0  0.90332  0.13180  0.47368  1.0000
  H   H3822     1.0  0.80389  0.00931  0.21951  1.0000
  H   H3823     1.0  0.81127  0.46928  0.27716  1.0000
  C   C4784     1.0  0.84911  0.13741  0.36208  1.0000
  C   C4785     1.0  0.88001  0.27019  0.38474  1.0000
  C   C4786     1.0  0.81016  0.09666  0.00788  1.0000
  H   H3824     1.0  0.96329  0.21283  0.26981  1.0000
  H   H3825     1.0  0.79967  0.18677  0.07798  1.0000
  C   C4787     1.0  0.96897  0.25516  0.31581  1.0000
  C   C4788     1.0  0.87005  0.28886  0.37872  1.0000
  C   C4789     1.0  0.90671  0.22910  0.32465  1.0000
  H   H3826     1.0  0.93364  0.22023  0.30580  1.0000
  C   C4790     1.0  0.85955  0.26792  0.29581  1.0000
  C   C4791     1.0  0.84786  0.25710  0.29295  1.0000
  H   H3827     1.0  0.85304  0.30755  0.35880  1.0000
  H   H3828     1.0  0.87646  0.27070  0.31442  1.0000
  C   C4792     1.0  0.84302  0.11219  0.34258  1.0000
  C   C4793     1.0  0.86575  0.47262  0.36887  1.0000
  C   C4794     1.0  0.81287  0.06905  0.03455  1.0000
  H   H3829     1.0  0.85387  0.28225  0.34211  1.0000
  H   H3830     1.0  0.86402  0.27948  0.28431  1.0000
  C   C4795     1.0  0.96991  0.27537  0.25634  1.0000
  H   H3831     1.0  0.87134  0.19870  0.35774  1.0000
  H   H3832     1.0  0.80004  0.42207  0.36744  1.0000
  C   C4796     1.0  0.97189  0.24476  0.34925  1.0000
  C   C4797     1.0  0.79499  0.45174  0.37010  1.0000
  C   C4798     1.0  0.85703  0.39591  0.26627  1.0000
  C   C4799     1.0  0.84949  0.23674  0.32453  1.0000
  H   H3833     1.0  0.94801  0.19672  0.33207  1.0000
  C   C4800     1.0  0.84289  0.24145  0.30730  1.0000
  C   C4801     1.0  0.86121  0.24757  0.32757  1.0000
  H   H3834     1.0  0.90068  0.23875  0.31284  1.0000
  H   H3835     1.0  0.86045  0.98994  0.30027  1.0000
  H   H3836     1.0  0.89327  0.02377  0.35468  1.0000
  H   H3837     1.0  0.84343  0.26033  0.27927  1.0000
  C   C4802     1.0  0.88096  0.25574  0.37513  1.0000
  H   H3838     1.0  0.83085  0.09724  0.37070  1.0000
  H   H3839     1.0  0.83477  0.23237  0.30471  1.0000
  H   H3840     1.0  0.84621  0.22408  0.33498  1.0000
  C   C4803     1.0  0.87537  0.37656  0.33549  1.0000
  C   C4804     1.0  0.86500  0.37649  0.32204  1.0000
  C   C4805     1.0  0.87114  0.36223  0.31111  1.0000
  C   C4806     1.0  0.88762  0.34792  0.31363  1.0000
  C   C4807     1.0  0.89802  0.34771  0.32730  1.0000
  C   C4808     1.0  0.89188  0.36229  0.33807  1.0000
  P   P158      1.0  0.91945  0.32941  0.33071  1.0000
  C   C4809     1.0  0.91981  0.32252  0.35613  1.0000
  C   C4810     1.0  0.91945  0.30838  0.32226  1.0000
  C   C4811     1.0  0.91465  0.29170  0.33523  1.0000
  C   C4812     1.0  0.91601  0.27515  0.32848  1.0000
  C   C4813     1.0  0.92196  0.27520  0.30878  1.0000
  C   C4814     1.0  0.92644  0.29182  0.29580  1.0000
  C   C4815     1.0  0.92517  0.30834  0.30247  1.0000
  C   C4816     1.0  0.93728  0.31754  0.36247  1.0000
  H   H3841     1.0  0.85746  0.45700  0.33249  1.0000
  Fe  Fe317     1.0  0.82376  0.20857  0.47379  1.0000
  C   C4817     1.0  0.90263  0.31627  0.38952  1.0000
  C   C4818     1.0  0.90248  0.32173  0.36981  1.0000
  C   C4819     1.0  0.94079  0.33848  0.31726  1.0000
  C   C4820     1.0  0.94034  0.35837  0.31197  1.0000
  C   C4821     1.0  0.85909  0.46685  0.34042  1.0000
  H   H3842     1.0  0.79539  0.07588  0.98983  1.0000
  H   H3843     1.0  0.94376  0.16598  0.41912  1.0000
  C   C4822     1.0  0.95814  0.32557  0.31197  1.0000
  H   H3844     1.0  0.87042  0.38763  0.34401  1.0000
  H   H3845     1.0  0.85206  0.38737  0.32023  1.0000
  H   H3846     1.0  0.86284  0.36205  0.30095  1.0000
  H   H3847     1.0  0.89192  0.33697  0.30508  1.0000
  H   H3848     1.0  0.89977  0.36260  0.34855  1.0000
  H   H3849     1.0  0.90999  0.29130  0.35055  1.0000
  H   H3850     1.0  0.91255  0.26225  0.33852  1.0000
  H   H3851     1.0  0.92316  0.26238  0.30352  1.0000
  H   H3852     1.0  0.93073  0.29200  0.28049  1.0000
  H   H3853     1.0  0.92874  0.32108  0.29215  1.0000
  C   C4823     1.0  0.80022  0.23048  0.33997  1.0000
  P   P159      1.0  0.79547  0.11512  0.99307  1.0000
  H   H3854     1.0  0.88535  0.11549  0.46837  1.0000
  H   H3855     1.0  0.88920  0.31589  0.40002  1.0000
  H   H3856     1.0  0.88883  0.32534  0.36523  1.0000
  H   H3857     1.0  0.92725  0.36869  0.31581  1.0000
  C   C4824     1.0  0.95990  0.29062  0.17063  1.0000
  H   H3858     1.0  0.83773  0.99309  0.41079  1.0000
  H   H3859     1.0  0.79110  0.40925  0.20415  1.0000
  H   H3860     1.0  0.95897  0.31016  0.31584  1.0000
  C   C4825     1.0  0.78967  0.20055  0.07735  1.0000
  C   C4826     1.0  0.79428  0.29764  0.42642  1.0000
  C   C4827     1.0  0.79378  0.31306  0.24586  1.0000
  C   C4828     1.0  0.80364  0.31859  0.38876  1.0000
  C   C4829     1.0  0.80228  0.43639  0.36026  1.0000
  H   H3861     1.0  0.87081  0.37927  0.24433  1.0000
  C   C4830     1.0  0.96107  0.20220  0.38481  1.0000
  C   C4831     1.0  0.83268  0.06809  0.03130  1.0000
  H   H3862     1.0  0.85241  0.17839  0.38386  1.0000
  H   H3863     1.0  0.79286  0.27670  0.10751  1.0000
  H   H3864     1.0  0.80796  0.26239  0.06241  1.0000
  H   H3865     1.0  0.83649  0.11940  0.38802  1.0000
  H   H3866     1.0  0.85900  0.09168  0.30614  1.0000
  H   H3867     1.0  0.97814  0.14533  0.42384  1.0000
  H   H3868     1.0  0.82141  0.13795  0.46510  1.0000
  H   H3869     1.0  0.80617  0.05883  0.04616  1.0000
  C   C4832     1.0  0.84852  0.10120  0.29807  1.0000
  H   H3870     1.0  0.88695  0.15349  0.27769  1.0000
  H   H3871     1.0  0.92889  0.19205  0.36552  1.0000
  H   H3872     1.0  0.96915  0.29719  0.27152  1.0000
  C   C4833     1.0  0.79026  0.35280  0.21004  1.0000
  H   H3873     1.0  0.97600  0.23741  0.19555  1.0000
  H   H3874     1.0  0.88434  0.18819  0.26443  1.0000
  C   C4834     1.0  0.78928  0.32736  0.40236  1.0000
  C   C4835     1.0  0.96682  0.14806  0.47003  1.0000
  H   H3875     1.0  0.98254  0.20648  0.32743  1.0000
  H   H3876     1.0  0.85503  0.21146  0.27517  1.0000
  C   C4836     1.0  0.84035  0.12200  0.37241  1.0000
  Fe  Fe318     1.0  0.80350  0.03913  0.31820  1.0000
  H   H3877     1.0  0.95654  0.38054  0.29744  1.0000
  C   C4837     1.0  0.85490  0.14021  0.34199  1.0000
  H   H3878     1.0  0.84136  0.05713  0.04040  1.0000
  C   C4838     1.0  0.87375  0.16330  0.28245  1.0000
  H   H3879     1.0  0.88792  0.24122  0.38066  1.0000
  C   C4839     1.0  0.83153  0.22169  0.39640  1.0000
  C   C4840     1.0  0.83508  0.20192  0.39717  1.0000
  C   C4841     1.0  0.84920  0.19379  0.38299  1.0000
  C   C4842     1.0  0.86007  0.20536  0.36827  1.0000
  C   C4843     1.0  0.85691  0.22518  0.36769  1.0000
  C   C4844     1.0  0.84222  0.23334  0.38161  1.0000
  P   P160      1.0  0.87129  0.24015  0.34906  1.0000
  C   C4845     1.0  0.87198  0.25981  0.35935  1.0000
  C   C4846     1.0  0.89580  0.22667  0.34359  1.0000
  C   C4847     1.0  0.90415  0.21345  0.35830  1.0000
  C   C4848     1.0  0.92291  0.20273  0.35413  1.0000
  C   C4849     1.0  0.93363  0.20530  0.33528  1.0000
  C   C4850     1.0  0.92556  0.21853  0.32055  1.0000
  C   C4851     1.0  0.80287  0.27751  0.31894  1.0000
  C   C4852     1.0  0.87237  0.18302  0.27486  1.0000
  C   C4853     1.0  0.85838  0.15657  0.29615  1.0000
  P   P161      1.0  0.79716  0.14069  0.43754  1.0000
  H   H3880     1.0  0.95086  0.31794  0.35229  1.0000
  H   H3881     1.0  0.85200  0.14680  0.36970  1.0000
  C   C4854     1.0  0.96776  0.25954  0.33356  1.0000
  H   H3882     1.0  0.79818  0.07044  0.20063  1.0000
  Fe  Fe319     1.0  0.78896  0.36443  0.36511  1.0000
  C   C4855     1.0  0.89961  0.11858  0.46507  1.0000
  C   C4856     1.0  0.80728  0.14649  0.46957  1.0000
  C   C4857     1.0  0.79105  0.17925  0.41853  1.0000
  H   H3883     1.0  0.83818  0.43110  0.20973  1.0000
  C   C4858     1.0  0.84576  0.12125  0.29563  1.0000
  H   H3884     1.0  0.83047  0.14875  0.28189  1.0000
  H   H3885     1.0  0.86232  0.15181  0.33431  1.0000
  C   C4859     1.0  0.81192  0.28907  0.32464  1.0000
  C   C4860     1.0  0.85808  0.38935  0.24969  1.0000
  C   C4861     1.0  0.80429  0.15002  0.99280  1.0000
  H   H3886     1.0  0.79072  0.28975  0.44100  1.0000
  C   C4862     1.0  0.92687  0.19418  0.41026  1.0000
  H   H3887     1.0  0.82417  0.29271  0.38334  1.0000
  H   H3888     1.0  0.81664  0.03880  0.21397  1.0000
  C   C4863     1.0  0.84128  0.08131  0.01635  1.0000
  H   H3889     1.0  0.84877  0.43796  0.17426  1.0000
  C   C4864     1.0  0.94851  0.15985  0.46901  1.0000
  C   C4865     1.0  0.79419  0.25648  0.28438  1.0000
  C   C4866     1.0  0.79997  0.37795  0.25141  1.0000
  C   C4867     1.0  0.84260  0.39551  0.24020  1.0000
  C   C4868     1.0  0.84033  0.18962  0.29445  1.0000
  H   H3890     1.0  0.82956  0.16491  0.31246  1.0000
  H   H3891     1.0  0.93797  0.28067  0.16332  1.0000
  H   H3892     1.0  0.85664  0.08061  0.01386  1.0000
  C   C4869     1.0  0.83790  0.09322  0.29004  1.0000
  H   H3893     1.0  0.95095  0.12918  0.45258  1.0000
  C   C4870     1.0  0.83028  0.42757  0.20098  1.0000
  H   H3894     1.0  0.81469  0.37410  0.25334  1.0000
  C   C4871     1.0  0.82214  0.12523  0.27620  1.0000
  C   C4872     1.0  0.82589  0.40822  0.24734  1.0000
  C   C4873     1.0  0.82271  0.13135  0.43064  1.0000
  H   H3895     1.0  0.80446  0.43857  0.29831  1.0000
  H   H3896     1.0  0.79629  0.18217  0.42979  1.0000
  C   C4874     1.0  0.97715  0.12671  0.40588  1.0000
  C   C4875     1.0  0.79263  0.05768  0.20235  1.0000
  C   C4876     1.0  0.95629  0.25744  0.17885  1.0000
  C   C4877     1.0  0.81326  0.29944  0.39397  1.0000
  H   H3897     1.0  0.84004  0.07766  0.29229  1.0000
  H   H3898     1.0  0.79855  0.99683  0.16913  1.0000
  H   H3899     1.0  0.83068  0.43057  0.15377  1.0000
  C   C4878     1.0  0.82472  0.10521  0.27908  1.0000
  C   C4879     1.0  0.79474  0.47953  0.17075  1.0000
  C   C4880     1.0  0.79592  0.12013  0.16864  1.0000
  C   C4881     1.0  0.84042  0.40845  0.27352  1.0000
  C   C4882     1.0  0.82609  0.42741  0.16933  1.0000
  H   H3900     1.0  0.97496  0.23272  0.29998  1.0000
  H   H3901     1.0  0.87112  0.47980  0.40999  1.0000
  H   H3902     1.0  0.91370  0.22309  0.39841  1.0000
  C   C4883     1.0  0.80164  0.08326  0.02289  1.0000
  H   H3903     1.0  0.80690  0.12311  0.15581  1.0000
  H   H3904     1.0  0.87730  0.01018  0.33703  1.0000
  H   H3905     1.0  0.83943  0.41326  0.28662  1.0000
  H   H3906     1.0  0.80136  0.26452  0.39210  1.0000
  C   C4884     1.0  0.82486  0.41450  0.26417  1.0000
  C   C4885     1.0  0.86998  0.47515  0.14788  1.0000
  C   C4886     1.0  0.86427  0.45983  0.35837  1.0000
  C   C4887     1.0  0.79781  0.47040  0.36094  1.0000
  H   H3907     1.0  0.86665  0.44450  0.36435  1.0000
  H   H3908     1.0  0.79785  0.14367  0.17996  1.0000
  H   H3909     1.0  0.93328  0.18784  0.45612  1.0000
  H   H3910     1.0  0.86901  0.39115  0.27361  1.0000
  H   H3911     1.0  0.82746  0.19986  0.29904  1.0000
  C   C4888     1.0  0.81398  0.41944  0.20966  1.0000
  H   H3912     1.0  0.94343  0.23025  0.37579  1.0000
  H   H3913     1.0  0.80294  0.00985  0.29710  1.0000
  H   H3914     1.0  0.86917  0.46691  0.38299  1.0000
  H   H3915     1.0  0.95465  0.30551  0.16429  1.0000
  C   C4889     1.0  0.98151  0.26055  0.24732  1.0000
  H   H3916     1.0  0.98298  0.33102  0.23784  1.0000
  S   S642      1.0  0.84255  0.17892  0.47488  1.0000
  C   C4890     1.0  0.79372  0.99176  0.40500  1.0000
  H   H3917     1.0  0.94800  0.33163  0.24982  1.0000
  C   C4891     1.0  0.98477  0.31977  0.21292  1.0000
  S   S643      1.0  0.80659  0.05840  0.33598  1.0000
  H   H3918     1.0  0.81976  0.20822  0.35532  1.0000
  C   C4892     1.0  0.94385  0.18014  0.40991  1.0000
  H   H3919     1.0  0.84381  0.00241  0.27267  1.0000
  C   C4893     1.0  0.92694  0.21230  0.39814  1.0000
  C   C4894     1.0  0.97183  0.25218  0.18815  1.0000
  P   P162      1.0  0.80559  0.41550  0.23554  1.0000
  H   H3920     1.0  0.89429  0.00931  0.38900  1.0000
  C   C4895     1.0  0.80992  0.41924  0.17785  1.0000
  C   C4896     1.0  0.97880  0.17689  0.30571  1.0000
  C   C4897     1.0  0.80385  0.41528  0.19793  1.0000
  H   H3921     1.0  0.94846  0.24675  0.17892  1.0000
  H   H3922     1.0  0.79395  0.15037  0.00625  1.0000
  H   H3923     1.0  0.80194  0.41615  0.16888  1.0000
  C   C4898     1.0  0.79071  0.10838  0.42876  1.0000
  C   C4899     1.0  0.80753  0.13517  0.98284  1.0000
  C   C4900     1.0  0.97490  0.31290  0.20290  1.0000
  H   H3924     1.0  0.79999  0.06974  0.37131  1.0000
  S   S644      1.0  0.97702  0.10049  0.38507  1.0000
  H   H3925     1.0  0.81073  0.26990  0.30769  1.0000
  H   H3926     1.0  0.98553  0.14469  0.35077  1.0000
  C   C4901     1.0  0.97509  0.32644  0.22980  1.0000
  H   H3927     1.0  0.97099  0.24839  0.36291  1.0000
  C   C4902     1.0  0.79951  0.31069  0.27751  1.0000
  H   H3928     1.0  0.84351  0.39007  0.22754  1.0000
  H   H3929     1.0  0.98162  0.37181  0.14724  1.0000
  H   H3930     1.0  0.80382  0.10877  0.41784  1.0000
  C   C4903     1.0  0.94392  0.21630  0.38535  1.0000
  C   C4904     1.0  0.79610  0.02307  0.21290  1.0000
  C   C4905     1.0  0.98193  0.17342  0.44844  1.0000
  H   H3931     1.0  0.79938  0.23865  0.37752  1.0000
  C   C4906     1.0  0.83010  0.09553  0.00464  1.0000
  C   C4907     1.0  0.79083  0.13172  0.18227  1.0000
  C   C4908     1.0  0.95037  0.27664  0.17005  1.0000
  H   H3932     1.0  0.96380  0.27441  0.33508  1.0000
  C   C4909     1.0  0.79667  0.25907  0.26437  1.0000
  H   H3933     1.0  0.96609  0.26661  0.30355  1.0000
  C   C4910     1.0  0.79325  0.45145  0.29801  1.0000
  H   H3934     1.0  0.80376  0.12992  0.34277  1.0000
  C   C4911     1.0  0.96089  0.18420  0.39740  1.0000
  H   H3935     1.0  0.79556  0.34920  0.26369  1.0000
  C   C4912     1.0  0.98150  0.26608  0.18863  1.0000
  C   C4913     1.0  0.98614  0.32303  0.16053  1.0000
  C   C4914     1.0  0.79328  0.13217  0.33397  1.0000
  C   C4915     1.0  0.96381  0.18519  0.44713  1.0000
  H   H3936     1.0  0.96273  0.19950  0.43809  1.0000
  H   H3937     1.0  0.96907  0.17628  0.35886  1.0000
  C   C4916     1.0  0.92007  0.31142  0.39571  1.0000
  H   H3938     1.0  0.81062  0.25389  0.25581  1.0000
  H   H3939     1.0  0.95190  0.18686  0.29621  1.0000
  C   C4917     1.0  0.94539  0.32037  0.22648  1.0000
  C   C4918     1.0  0.80483  0.19636  0.34099  1.0000
  C   C4919     1.0  0.80929  0.21140  0.34626  1.0000
  C   C4920     1.0  0.96647  0.18887  0.29384  1.0000
  C   C4921     1.0  0.98647  0.13654  0.41356  1.0000
  C   C4922     1.0  0.89994  0.47997  0.41114  1.0000
  C   C4923     1.0  0.79706  0.46879  0.28606  1.0000
  H   H3940     1.0  0.97391  0.17315  0.39721  1.0000
  C   C4924     1.0  0.79160  0.39692  0.24361  1.0000
  H   H3941     1.0  0.80411  0.24189  0.34399  1.0000
  C   C4925     1.0  0.85846  0.48024  0.16495  1.0000
  H   H3942     1.0  0.98244  0.34559  0.17603  1.0000
  P   P163      1.0  0.98301  0.20645  0.36763  1.0000
  C   C4926     1.0  0.97835  0.22117  0.32942  1.0000
  C   C4927     1.0  0.88776  0.00295  0.38118  1.0000
  C   C4928     1.0  0.98385  0.34215  0.16219  1.0000
  H   H3943     1.0  0.90015  0.46868  0.42401  1.0000
  C   C4929     1.0  0.84665  0.98711  0.27881  1.0000
  C   C4930     1.0  0.78919  0.36360  0.25726  1.0000
  H   H3944     1.0  0.80627  0.45639  0.21827  1.0000
  P   P164      1.0  0.98747  0.30359  0.18140  1.0000
  H   H3945     1.0  0.97369  0.16554  0.31716  1.0000
  C   C4931     1.0  0.79204  0.08589  0.97688  1.0000
  H   H3946     1.0  0.86232  0.98228  0.35342  1.0000
  H   H3947     1.0  0.88446  0.46662  0.14777  1.0000
  C   C4932     1.0  0.98461  0.17215  0.35688  1.0000
  C   C4933     1.0  0.98548  0.35300  0.12776  1.0000
  C   C4934     1.0  0.98344  0.35708  0.14586  1.0000
  H   H3948     1.0  0.98698  0.35748  0.28818  1.0000
  H   H3949     1.0  0.98520  0.36457  0.11512  1.0000
  S   S645      1.0  0.78840  0.34918  0.34267  1.0000
  C   C4935     1.0  0.98343  0.15486  0.45980  1.0000
  Fe  Fe320     1.0  0.84612  0.34570  0.70251  1.0000
  S   S646      1.0  0.85062  0.32275  0.72856  1.0000
  S   S647      1.0  0.85449  0.33650  0.67374  1.0000
  Fe  Fe321     1.0  0.83244  0.37746  0.72635  1.0000
  S   S648      1.0  0.83566  0.35655  0.75433  1.0000
  S   S649      1.0  0.82075  0.40953  0.72438  1.0000
  Fe  Fe322     1.0  0.86352  0.34295  0.73690  1.0000
  S   S650      1.0  0.89312  0.33254  0.74355  1.0000
  S   S651      1.0  0.86126  0.36504  0.70972  1.0000
  S   S652      1.0  0.81693  0.36023  0.71648  1.0000
  Fe  Fe323     1.0  0.96444  0.25580  0.83842  1.0000
  S   S653      1.0  0.96214  0.22499  0.85015  1.0000
  H   H3950     1.0  0.89806  0.38921  0.66193  1.0000
  Fe  Fe324     1.0  0.92194  0.26847  0.83516  1.0000
  S   S654      1.0  0.91632  0.23850  0.84651  1.0000
  S   S655      1.0  0.89666  0.29292  0.83016  1.0000
  Fe  Fe325     1.0  0.93377  0.23683  0.86816  1.0000
  S   S656      1.0  0.92585  0.22670  0.90044  1.0000
  Fe  Fe326     1.0  0.94496  0.22962  0.82743  1.0000
  S   S657      1.0  0.95346  0.20933  0.80692  1.0000
  S   S658      1.0  0.93736  0.26745  0.85812  1.0000
  S   S659      1.0  0.94926  0.25973  0.81428  1.0000
  Fe  Fe327     1.0  0.82103  0.23022  0.96225  1.0000
  C   C4936     1.0  0.94272  0.14285  0.51536  1.0000
  S   S660      1.0  0.83863  0.22009  0.93504  1.0000
  H   H3951     1.0  0.83035  0.22204  0.82930  1.0000
  Fe  Fe328     1.0  0.82962  0.21363  0.65175  1.0000
  H   H3952     1.0  0.98565  0.17900  0.75338  1.0000
  S   S661      1.0  0.83749  0.18667  0.67351  1.0000
  Fe  Fe329     1.0  0.83211  0.23760  0.61116  1.0000
  C   C4937     1.0  0.80414  0.15501  0.48538  1.0000
  S   S662      1.0  0.85000  0.23542  0.58131  1.0000
  Fe  Fe330     1.0  0.81555  0.25743  0.64515  1.0000
  C   C4938     1.0  0.83043  0.15105  0.95743  1.0000
  H   H3953     1.0  0.80256  0.98372  0.67623  1.0000
  C   C4939     1.0  0.84176  0.43730  0.80455  1.0000
  S   S663      1.0  0.84435  0.23824  0.63633  1.0000
  S   S664      1.0  0.81990  0.21136  0.62620  1.0000
  Fe  Fe331     1.0  0.89857  0.11691  0.75518  1.0000
  S   S665      1.0  0.87345  0.10177  0.76072  1.0000
  Fe  Fe332     1.0  0.90857  0.14552  0.77357  1.0000
  S   S666      1.0  0.93419  0.15055  0.74986  1.0000
  S   S667      1.0  0.89744  0.16082  0.79865  1.0000
  Fe  Fe333     1.0  0.91548  0.15090  0.72989  1.0000
  S   S668      1.0  0.91470  0.17350  0.70240  1.0000
  S   S669      1.0  0.88914  0.14890  0.75338  1.0000
  S   S670      1.0  0.91599  0.11337  0.77756  1.0000
  Fe  Fe334     1.0  0.82643  0.04488  0.70732  1.0000
  H   H3954     1.0  0.82320  0.03965  0.75313  1.0000
  S   S671      1.0  0.85303  0.05420  0.70972  1.0000
  S   S672      1.0  0.81722  0.25858  0.97052  1.0000
  Fe  Fe335     1.0  0.80389  0.04934  0.67599  1.0000
  H   H3955     1.0  0.88303  0.42384  0.83266  1.0000
  H   H3956     1.0  0.84044  0.15161  0.94366  1.0000
  C   C4940     1.0  0.83976  0.99548  0.80594  1.0000
  S   S673      1.0  0.83184  0.03025  0.68237  1.0000
  C   C4941     1.0  0.80894  0.16161  0.56614  1.0000
  H   H3957     1.0  0.83421  0.17787  0.96139  1.0000
  S   S674      1.0  0.85964  0.45672  0.75935  1.0000
  H   H3958     1.0  0.90955  0.19089  0.76448  1.0000
  P   P165      1.0  0.88957  0.42374  0.67853  1.0000
  C   C4942     1.0  0.97278  0.27770  0.91876  1.0000
  C   C4943     1.0  0.81740  0.26068  0.81311  1.0000
  H   H3959     1.0  0.83680  0.23053  0.52061  1.0000
  C   C4944     1.0  0.88745  0.19396  0.50571  1.0000
  H   H3960     1.0  0.83939  0.18668  0.83856  1.0000
  C   C4945     1.0  0.98273  0.13265  0.90557  1.0000
  H   H3961     1.0  0.95460  0.13700  0.54076  1.0000
  C   C4946     1.0  0.88874  0.27160  0.77984  1.0000
  H   H3962     1.0  0.85775  0.30390  0.86060  1.0000
  S   S675      1.0  0.81016  0.02297  0.72773  1.0000
  H   H3963     1.0  0.89178  0.13878  0.48378  1.0000
  C   C4947     1.0  0.86801  0.08908  0.74590  1.0000
  C   C4948     1.0  0.84951  0.08495  0.75021  1.0000
  C   C4949     1.0  0.84466  0.07436  0.73931  1.0000
  C   C4950     1.0  0.85827  0.06767  0.72399  1.0000
  C   C4951     1.0  0.87685  0.07158  0.71984  1.0000
  C   C4952     1.0  0.88169  0.08233  0.73063  1.0000
  H   H3964     1.0  0.83889  0.08987  0.76213  1.0000
  H   H3965     1.0  0.83038  0.07148  0.74275  1.0000
  H   H3966     1.0  0.88761  0.06627  0.70819  1.0000
  H   H3967     1.0  0.89607  0.08514  0.72733  1.0000
  C   C4953     1.0  0.95088  0.17613  0.89279  1.0000
  H   H3968     1.0  0.79222  0.06283  0.75329  1.0000
  C   C4954     1.0  0.88151  0.25060  0.81103  1.0000
  C   C4955     1.0  0.84702  0.45175  0.81004  1.0000
  H   H3969     1.0  0.84479  0.37169  0.80057  1.0000
  C   C4956     1.0  0.83774  0.24323  0.56202  1.0000
  C   C4957     1.0  0.82276  0.25950  0.56143  1.0000
  C   C4958     1.0  0.81305  0.26545  0.54603  1.0000
  C   C4959     1.0  0.81784  0.25487  0.53141  1.0000
  C   C4960     1.0  0.83294  0.23867  0.53188  1.0000
  C   C4961     1.0  0.84303  0.23302  0.54704  1.0000
  H   H3970     1.0  0.81874  0.26756  0.57278  1.0000
  S   S676      1.0  0.79959  0.21491  0.49869  1.0000
  H   H3971     1.0  0.85470  0.22050  0.54740  1.0000
  C   C4962     1.0  0.85912  0.18337  0.68104  1.0000
  C   C4963     1.0  0.86226  0.16971  0.69777  1.0000
  C   C4964     1.0  0.87928  0.16669  0.70432  1.0000
  C   C4965     1.0  0.89331  0.17734  0.69419  1.0000
  C   C4966     1.0  0.89034  0.19089  0.67728  1.0000
  C   C4967     1.0  0.87321  0.19395  0.67069  1.0000
  H   H3972     1.0  0.85152  0.16142  0.70578  1.0000
  H   H3973     1.0  0.88173  0.15570  0.71689  1.0000
  H   H3974     1.0  0.90134  0.19887  0.66921  1.0000
  H   H3975     1.0  0.87097  0.20437  0.65762  1.0000
  C   C4968     1.0  0.86024  0.08654  0.50943  1.0000
  C   C4969     1.0  0.93743  0.19624  0.80492  1.0000
  C   C4970     1.0  0.94446  0.18212  0.79375  1.0000
  C   C4971     1.0  0.93236  0.17097  0.79213  1.0000
  C   C4972     1.0  0.91303  0.17400  0.80151  1.0000
  C   C4973     1.0  0.90593  0.18811  0.81279  1.0000
  C   C4974     1.0  0.91812  0.19922  0.81454  1.0000
  H   H3976     1.0  0.95939  0.17959  0.78646  1.0000
  H   H3977     1.0  0.93811  0.15986  0.78379  1.0000
  H   H3978     1.0  0.89102  0.19052  0.82008  1.0000
  H   H3979     1.0  0.91269  0.20993  0.82338  1.0000
  C   C4975     1.0  0.84665  0.26396  0.85442  1.0000
  C   C4976     1.0  0.82088  0.13569  0.96516  1.0000
  H   H3980     1.0  0.89907  0.27629  0.76703  1.0000
  C   C4977     1.0  0.79280  0.44445  0.78043  1.0000
  H   H3981     1.0  0.90124  0.42734  0.74093  1.0000
  C   C4978     1.0  0.93917  0.11541  0.54174  1.0000
  H   H3982     1.0  0.89908  0.37121  0.73523  1.0000
  C   C4979     1.0  0.90136  0.22570  0.90981  1.0000
  C   C4980     1.0  0.89032  0.22206  0.89873  1.0000
  C   C4981     1.0  0.87115  0.22026  0.90673  1.0000
  C   C4982     1.0  0.86269  0.22267  0.92567  1.0000
  C   C4983     1.0  0.87359  0.22661  0.93669  1.0000
  C   C4984     1.0  0.89299  0.22783  0.92885  1.0000
  H   H3983     1.0  0.89670  0.22014  0.88418  1.0000
  H   H3984     1.0  0.86281  0.21708  0.89822  1.0000
  H   H3985     1.0  0.86719  0.22837  0.95133  1.0000
  H   H3986     1.0  0.90148  0.23054  0.93753  1.0000
  C   C4985     1.0  0.83126  0.42238  0.73470  1.0000
  C   C4986     1.0  0.82541  0.44250  0.73185  1.0000
  C   C4987     1.0  0.83392  0.45320  0.73942  1.0000
  C   C4988     1.0  0.84807  0.44379  0.75022  1.0000
  C   C4989     1.0  0.85326  0.42360  0.75383  1.0000
  C   C4990     1.0  0.84513  0.41292  0.74584  1.0000
  H   H3987     1.0  0.81455  0.44988  0.72339  1.0000
  P   P166      1.0  0.86967  0.46603  0.82597  1.0000
  H   H3988     1.0  0.86395  0.41622  0.76245  1.0000
  H   H3989     1.0  0.84966  0.39740  0.74822  1.0000
  C   C4991     1.0  0.84160  0.32035  0.67115  1.0000
  C   C4992     1.0  0.82511  0.31641  0.68477  1.0000
  C   C4993     1.0  0.81465  0.30407  0.68217  1.0000
  C   C4994     1.0  0.82089  0.29498  0.66634  1.0000
  C   C4995     1.0  0.83754  0.29867  0.65282  1.0000
  C   C4996     1.0  0.84773  0.31150  0.65511  1.0000
  H   H3990     1.0  0.82019  0.32316  0.69714  1.0000
  H   H3991     1.0  0.94338  0.27409  0.92985  1.0000
  H   H3992     1.0  0.84225  0.29202  0.64039  1.0000
  H   H3993     1.0  0.86041  0.31458  0.64445  1.0000
  C   C4997     1.0  0.89390  0.32162  0.76763  1.0000
  C   C4998     1.0  0.87733  0.32363  0.78214  1.0000
  C   C4999     1.0  0.87831  0.31471  0.80134  1.0000
  C   C5000     1.0  0.89577  0.30364  0.80602  1.0000
  C   C5001     1.0  0.91231  0.30166  0.79148  1.0000
  C   C5002     1.0  0.91140  0.31075  0.77232  1.0000
  H   H3994     1.0  0.86381  0.33208  0.77862  1.0000
  H   H3995     1.0  0.86551  0.31648  0.81256  1.0000
  H   H3996     1.0  0.92588  0.29342  0.79502  1.0000
  H   H3997     1.0  0.92427  0.30929  0.76110  1.0000
  S   S677      1.0  0.92410  0.11908  0.73041  1.0000
  C   C5003     1.0  0.86965  0.28178  0.78249  1.0000
  H   H3998     1.0  0.83280  0.39539  0.85484  1.0000
  S   S678      1.0  0.97058  0.10057  0.75604  1.0000
  C   C5004     1.0  0.79203  0.43546  0.83579  1.0000
  C   C5005     1.0  0.85654  0.27663  0.79955  1.0000
  H   H3999     1.0  0.80910  0.22101  0.58174  1.0000
  H   H4000     1.0  0.82002  0.07184  0.53796  1.0000
  C   C5006     1.0  0.85044  0.36587  0.81354  1.0000
  H   H4001     1.0  0.83386  0.20468  0.88253  1.0000
  C   C5007     1.0  0.85945  0.20052  0.79388  1.0000
  C   C5008     1.0  0.86425  0.21859  0.78844  1.0000
  C   C5009     1.0  0.85674  0.23238  0.77373  1.0000
  C   C5010     1.0  0.84450  0.22805  0.76439  1.0000
  C   C5011     1.0  0.83947  0.20991  0.76993  1.0000
  C   C5012     1.0  0.84714  0.19614  0.78474  1.0000
  P   P167      1.0  0.82208  0.20502  0.75928  1.0000
  C   C5013     1.0  0.82500  0.17918  0.76264  1.0000
  H   H4002     1.0  0.85146  0.05923  0.51857  1.0000
  C   C5014     1.0  0.81024  0.39082  0.79625  1.0000
  H   H4003     1.0  0.79614  0.22878  0.73321  1.0000
  H   H4004     1.0  0.96316  0.24979  0.73535  1.0000
  H   H4005     1.0  0.86486  0.11557  0.50269  1.0000
  H   H4006     1.0  0.87715  0.37125  0.65534  1.0000
  C   C5015     1.0  0.83641  0.16928  0.74821  1.0000
  C   C5016     1.0  0.83949  0.14919  0.75147  1.0000
  C   C5017     1.0  0.83117  0.13883  0.76910  1.0000
  C   C5018     1.0  0.81971  0.14852  0.78351  1.0000
  C   C5019     1.0  0.81665  0.16860  0.78034  1.0000
  C   C5020     1.0  0.79200  0.10555  0.97416  1.0000
  S   S679      1.0  0.80195  0.23263  0.66224  1.0000
  S   S680      1.0  0.80425  0.25853  0.61890  1.0000
  C   C5021     1.0  0.85501  0.98862  0.81584  1.0000
  C   C5022     1.0  0.86063  0.00395  0.72911  1.0000
  C   C5023     1.0  0.84506  0.21390  0.72278  1.0000
  H   H4007     1.0  0.86549  0.18972  0.80507  1.0000
  H   H4008     1.0  0.87410  0.22170  0.79540  1.0000
  H   H4009     1.0  0.86064  0.24632  0.76952  1.0000
  C   C5024     1.0  0.85080  0.38973  0.66619  1.0000
  H   H4010     1.0  0.84396  0.18189  0.78922  1.0000
  C   C5025     1.0  0.81056  0.11777  0.72486  1.0000
  C   C5026     1.0  0.79801  0.21524  0.77087  1.0000
  C   C5027     1.0  0.85290  0.29042  0.86440  1.0000
  C   C5028     1.0  0.85152  0.41820  0.80891  1.0000
  C   C5029     1.0  0.89976  0.41800  0.73236  1.0000
  H   H4011     1.0  0.84336  0.17685  0.73461  1.0000
  H   H4012     1.0  0.84891  0.14152  0.74058  1.0000
  H   H4013     1.0  0.83410  0.12323  0.77173  1.0000
  C   C5030     1.0  0.85543  0.98657  0.73061  1.0000
  H   H4014     1.0  0.90511  0.47566  0.75805  1.0000
  C   C5031     1.0  0.94631  0.13220  0.53333  1.0000
  C   C5032     1.0  0.79634  0.05514  0.76684  1.0000
  C   C5033     1.0  0.94801  0.41782  0.63543  1.0000
  C   C5034     1.0  0.89833  0.38645  0.72921  1.0000
  H   H4015     1.0  0.85716  0.20559  0.72926  1.0000
  C   C5035     1.0  0.90899  0.23675  0.66134  1.0000
  C   C5036     1.0  0.89814  0.24920  0.64827  1.0000
  C   C5037     1.0  0.88429  0.26490  0.65383  1.0000
  C   C5038     1.0  0.88094  0.26789  0.67259  1.0000
  C   C5039     1.0  0.89093  0.25478  0.68617  1.0000
  C   C5040     1.0  0.90557  0.23963  0.68015  1.0000
  P   P168      1.0  0.88678  0.25902  0.71026  1.0000
  C   C5041     1.0  0.89952  0.27766  0.70799  1.0000
  C   C5042     1.0  0.86164  0.26724  0.72042  1.0000
  C   C5043     1.0  0.85672  0.27481  0.73717  1.0000
  C   C5044     1.0  0.83737  0.28083  0.74564  1.0000
  C   C5045     1.0  0.82279  0.27956  0.73729  1.0000
  C   C5046     1.0  0.82757  0.27185  0.72075  1.0000
  C   C5047     1.0  0.84689  0.26569  0.71235  1.0000
  C   C5048     1.0  0.91850  0.27311  0.71088  1.0000
  C   C5049     1.0  0.92779  0.28782  0.70995  1.0000
  C   C5050     1.0  0.91838  0.30710  0.70561  1.0000
  C   C5051     1.0  0.89990  0.31168  0.70166  1.0000
  C   C5052     1.0  0.89056  0.29703  0.70269  1.0000
  C   C5053     1.0  0.89438  0.23745  0.72738  1.0000
  C   C5054     1.0  0.89258  0.21950  0.72551  1.0000
  C   C5055     1.0  0.89804  0.20284  0.73888  1.0000
  C   C5056     1.0  0.90517  0.20393  0.75434  1.0000
  C   C5057     1.0  0.90649  0.22176  0.75673  1.0000
  C   C5058     1.0  0.90086  0.23853  0.74343  1.0000
  H   H4016     1.0  0.92007  0.22482  0.65692  1.0000
  H   H4017     1.0  0.90064  0.24685  0.63375  1.0000
  H   H4018     1.0  0.87622  0.27484  0.64356  1.0000
  H   H4019     1.0  0.87051  0.28044  0.67649  1.0000
  H   H4020     1.0  0.91445  0.22999  0.68986  1.0000
  H   H4021     1.0  0.86787  0.27643  0.74346  1.0000
  H   H4022     1.0  0.83362  0.28726  0.75821  1.0000
  H   H4023     1.0  0.80487  0.26326  0.92340  1.0000
  H   H4024     1.0  0.81629  0.27111  0.71408  1.0000
  H   H4025     1.0  0.85014  0.26006  0.69943  1.0000
  H   H4026     1.0  0.92606  0.25828  0.71393  1.0000
  H   H4027     1.0  0.94222  0.28433  0.71271  1.0000
  H   H4028     1.0  0.92531  0.31853  0.70536  1.0000
  H   H4029     1.0  0.89264  0.32663  0.69811  1.0000
  H   H4030     1.0  0.87627  0.30088  0.69947  1.0000
  H   H4031     1.0  0.88714  0.21822  0.71363  1.0000
  H   H4032     1.0  0.89693  0.18900  0.73715  1.0000
  H   H4033     1.0  0.91185  0.22247  0.76894  1.0000
  H   H4034     1.0  0.90158  0.25226  0.74573  1.0000
  H   H4035     1.0  0.82902  0.25515  0.80217  1.0000
  Fe  Fe336     1.0  0.94085  0.11850  0.75258  1.0000
  H   H4036     1.0  0.84949  0.28764  0.89503  1.0000
  H   H4037     1.0  0.83917  0.25645  0.90347  1.0000
  H   H4038     1.0  0.81625  0.14546  0.72369  1.0000
  H   H4039     1.0  0.86524  0.29427  0.77167  1.0000
  C   C5059     1.0  0.93194  0.13677  0.50564  1.0000
  H   H4040     1.0  0.84213  0.28543  0.80169  1.0000
  C   C5060     1.0  0.88027  0.14225  0.65462  1.0000
  H   H4041     1.0  0.85920  0.44504  0.70429  1.0000
  H   H4042     1.0  0.80826  0.17581  0.79190  1.0000
  C   C5061     1.0  0.94368  0.17852  0.85660  1.0000
  C   C5062     1.0  0.82704  0.16578  0.96745  1.0000
  C   C5063     1.0  0.86347  0.45523  0.69123  1.0000
  H   H4043     1.0  0.88657  0.23877  0.82199  1.0000
  H   H4044     1.0  0.83672  0.14746  0.69104  1.0000
  H   H4045     1.0  0.88362  0.19920  0.51902  1.0000
  H   H4046     1.0  0.96829  0.13352  0.47859  1.0000
  H   H4047     1.0  0.92252  0.43400  0.86093  1.0000
  H   H4048     1.0  0.84738  0.42780  0.68583  1.0000
  C   C5064     1.0  0.81872  0.13389  0.71615  1.0000
  C   C5065     1.0  0.96642  0.17260  0.87739  1.0000
  C   C5066     1.0  0.93195  0.18115  0.88998  1.0000
  C   C5067     1.0  0.80418  0.32341  0.79391  1.0000
  H   H4049     1.0  0.79400  0.23593  0.91915  1.0000
  Fe  Fe337     1.0  0.81356  0.00984  0.70213  1.0000
  P   P169      1.0  0.84504  0.25323  0.83549  1.0000
  H   H4050     1.0  0.84786  0.40720  0.80402  1.0000
  C   C5068     1.0  0.79625  0.21821  0.55961  1.0000
  C   C5069     1.0  0.87135  0.42778  0.82503  1.0000
  C   C5070     1.0  0.86988  0.35672  0.81163  1.0000
  P   P170      1.0  0.92719  0.15084  0.48253  1.0000
  P   P171      1.0  0.84159  0.01381  0.78408  1.0000
  C   C5071     1.0  0.84155  0.21568  0.83751  1.0000
  C   C5072     1.0  0.87174  0.12794  0.66829  1.0000
  C   C5073     1.0  0.84251  0.40557  0.67492  1.0000
  H   H4051     1.0  0.83710  0.24142  0.87795  1.0000
  H   H4052     1.0  0.82698  0.40946  0.67949  1.0000
  C   C5074     1.0  0.82144  0.40643  0.84936  1.0000
  H   H4053     1.0  0.86288  0.22059  0.69455  1.0000
  H   H4054     1.0  0.81580  0.15306  0.49267  1.0000
  C   C5075     1.0  0.95584  0.27268  0.91815  1.0000
  C   C5076     1.0  0.79496  0.33289  0.87467  1.0000
  C   C5077     1.0  0.85513  0.10599  0.51049  1.0000
  H   H4055     1.0  0.80712  0.32459  0.82205  1.0000
  C   C5078     1.0  0.96349  0.20199  0.74336  1.0000
  H   H4056     1.0  0.85569  0.28912  0.83495  1.0000
  C   C5079     1.0  0.82598  0.10378  0.69675  1.0000
  H   H4057     1.0  0.90968  0.24859  0.79244  1.0000
  C   C5080     1.0  0.92837  0.18243  0.87186  1.0000
  H   H4058     1.0  0.90863  0.02381  0.76635  1.0000
  H   H4059     1.0  0.79614  0.16463  0.90656  1.0000
  C   C5081     1.0  0.81001  0.40235  0.83886  1.0000
  C   C5082     1.0  0.86615  0.34847  0.84630  1.0000
  H   H4060     1.0  0.80757  0.26896  0.85875  1.0000
  H   H4061     1.0  0.87341  0.22707  0.85722  1.0000
  C   C5083     1.0  0.81687  0.18287  0.89391  1.0000
  C   C5084     1.0  0.87953  0.01910  0.77471  1.0000
  C   C5085     1.0  0.85110  0.22728  0.84265  1.0000
  C   C5086     1.0  0.84706  0.00294  0.76325  1.0000
  C   C5087     1.0  0.97119  0.26331  0.88762  1.0000
  C   C5088     1.0  0.86017  0.02658  0.78233  1.0000
  C   C5089     1.0  0.80612  0.16402  0.54748  1.0000
  C   C5090     1.0  0.80293  0.14867  0.54163  1.0000
  C   C5091     1.0  0.80272  0.13071  0.55431  1.0000
  C   C5092     1.0  0.80455  0.34407  0.85842  1.0000
  P   P172      1.0  0.80129  0.11035  0.54558  1.0000
  C   C5093     1.0  0.82460  0.10099  0.53181  1.0000
  C   C5094     1.0  0.79507  0.41694  0.83240  1.0000
  C   C5095     1.0  0.98090  0.20004  0.89668  1.0000
  H   H4062     1.0  0.89574  0.44099  0.70800  1.0000
  H   H4063     1.0  0.81454  0.33706  0.84735  1.0000
  H   H4064     1.0  0.87375  0.39854  0.82262  1.0000
  C   C5096     1.0  0.80709  0.07967  0.57666  1.0000
  C   C5097     1.0  0.82979  0.08149  0.53054  1.0000
  C   C5098     1.0  0.78825  0.37056  0.81620  1.0000
  H   H4065     1.0  0.82706  0.42804  0.86102  1.0000
  H   H4066     1.0  0.80074  0.45378  0.84901  1.0000
  C   C5099     1.0  0.83740  0.11321  0.52159  1.0000
  H   H4067     1.0  0.79488  0.47747  0.81449  1.0000
  H   H4068     1.0  0.89441  0.45829  0.64747  1.0000
  H   H4069     1.0  0.93141  0.42105  0.61408  1.0000
  H   H4070     1.0  0.90024  0.11817  0.70120  1.0000
  C   C5100     1.0  0.92842  0.10926  0.53220  1.0000
  H   H4071     1.0  0.84364  0.47952  0.70154  1.0000
  H   H4072     1.0  0.89987  0.05502  0.77691  1.0000
  C   C5101     1.0  0.87083  0.38406  0.66135  1.0000
  H   H4073     1.0  0.79027  0.29664  0.90950  1.0000
  C   C5102     1.0  0.89031  0.47069  0.78779  1.0000
  H   H4074     1.0  0.96173  0.41639  0.62532  1.0000
  C   C5103     1.0  0.80338  0.37979  0.81432  1.0000
  C   C5104     1.0  0.84185  0.98544  0.76463  1.0000
  H   H4075     1.0  0.97295  0.22518  0.90907  1.0000
  H   H4076     1.0  0.80898  0.39927  0.76609  1.0000
  H   H4077     1.0  0.82179  0.08165  0.57343  1.0000
  H   H4078     1.0  0.79690  0.26949  0.79455  1.0000
  H   H4079     1.0  0.86614  0.06763  0.79158  1.0000
  H   H4080     1.0  0.83885  0.23885  0.75294  1.0000
  H   H4081     1.0  0.97418  0.17145  0.84696  1.0000
  H   H4082     1.0  0.83381  0.12835  0.52199  1.0000
  H   H4083     1.0  0.92956  0.41831  0.68285  1.0000
  H   H4084     1.0  0.86885  0.04565  0.64920  1.0000
  C   C5105     1.0  0.86222  0.26062  0.81378  1.0000
  C   C5106     1.0  0.85421  0.41596  0.67855  1.0000
  H   H4085     1.0  0.82924  0.17100  0.89374  1.0000
  Fe  Fe338     1.0  0.82248  0.33829  0.74314  1.0000
  C   C5107     1.0  0.87635  0.45125  0.88213  1.0000
  C   C5108     1.0  0.89589  0.44257  0.88041  1.0000
  C   C5109     1.0  0.90739  0.44082  0.86225  1.0000
  C   C5110     1.0  0.89940  0.44789  0.84579  1.0000
  C   C5111     1.0  0.87984  0.45694  0.84734  1.0000
  C   C5112     1.0  0.86830  0.45829  0.86570  1.0000
  C   C5113     1.0  0.90357  0.13854  0.67416  1.0000
  C   C5114     1.0  0.89489  0.12463  0.68803  1.0000
  H   H4086     1.0  0.80504  0.46984  0.76995  1.0000
  H   H4087     1.0  0.94369  0.22761  0.73326  1.0000
  H   H4088     1.0  0.83555  0.23950  0.67922  1.0000
  H   H4089     1.0  0.88356  0.00559  0.76990  1.0000
  H   H4090     1.0  0.80807  0.20709  0.55477  1.0000
  C   C5115     1.0  0.79488  0.12271  0.64288  1.0000
  H   H4091     1.0  0.86042  0.02572  0.74376  1.0000
  H   H4092     1.0  0.97552  0.34448  0.91923  1.0000
  H   H4093     1.0  0.79748  0.31748  0.87585  1.0000
  H   H4094     1.0  0.89325  0.38465  0.70234  1.0000
  H   H4095     1.0  0.92010  0.18459  0.90175  1.0000
  C   C5116     1.0  0.84756  0.07430  0.51944  1.0000
  C   C5117     1.0  0.83044  0.13496  0.69774  1.0000
  C   C5118     1.0  0.81819  0.42495  0.85295  1.0000
  C   C5119     1.0  0.89614  0.14749  0.65757  1.0000
  H   H4096     1.0  0.87452  0.14976  0.64192  1.0000
  C   C5120     1.0  0.87438  0.41066  0.67334  1.0000
  H   H4097     1.0  0.86744  0.45256  0.89623  1.0000
  C   C5121     1.0  0.85191  0.28189  0.84981  1.0000
  C   C5122     1.0  0.84159  0.25506  0.87391  1.0000
  H   H4098     1.0  0.90851  0.44633  0.83183  1.0000
  H   H4099     1.0  0.86280  0.12893  0.62312  1.0000
  H   H4100     1.0  0.80133  0.46613  0.90439  1.0000
  C   C5123     1.0  0.81948  0.20183  0.88742  1.0000
  H   H4101     1.0  0.94195  0.10717  0.55568  1.0000
  H   H4102     1.0  0.98338  0.15348  0.81382  1.0000
  C   C5124     1.0  0.87252  0.08325  0.66613  1.0000
  C   C5125     1.0  0.84833  0.28125  0.88373  1.0000
  C   C5126     1.0  0.79221  0.46416  0.77726  1.0000
  H   H4103     1.0  0.87878  0.35584  0.79743  1.0000
  H   H4104     1.0  0.82909  0.09170  0.68977  1.0000
  C   C5127     1.0  0.84836  0.22224  0.70311  1.0000
  H   H4105     1.0  0.91640  0.11484  0.50717  1.0000
  H   H4106     1.0  0.90991  0.17101  0.51495  1.0000
  H   H4107     1.0  0.86758  0.01133  0.71526  1.0000
  H   H4108     1.0  0.97076  0.25748  0.87564  1.0000
  H   H4109     1.0  0.87217  0.34122  0.85896  1.0000
  C   C5128     1.0  0.81391  0.10290  0.71503  1.0000
  C   C5129     1.0  0.84662  0.19559  0.84275  1.0000
  C   C5130     1.0  0.86129  0.18693  0.85305  1.0000
  C   C5131     1.0  0.87767  0.34777  0.82798  1.0000
  H   H4110     1.0  0.96871  0.20472  0.88968  1.0000
  H   H4111     1.0  0.95335  0.17556  0.90688  1.0000
  H   H4112     1.0  0.88046  0.08611  0.67520  1.0000
  C   C5132     1.0  0.87074  0.19837  0.85835  1.0000
  H   H4113     1.0  0.91378  0.18672  0.86956  1.0000
  C   C5133     1.0  0.84683  0.35807  0.84828  1.0000
  C   C5134     1.0  0.84256  0.26363  0.88847  1.0000
  H   H4114     1.0  0.81151  0.05634  0.60106  1.0000
  C   C5135     1.0  0.86574  0.21845  0.85314  1.0000
  C   C5136     1.0  0.83871  0.36683  0.83191  1.0000
  H   H4115     1.0  0.83813  0.35829  0.86265  1.0000
  C   C5137     1.0  0.80812  0.14401  0.57909  1.0000
  H   H4116     1.0  0.79748  0.18922  0.69591  1.0000
  P   P173      1.0  0.81333  0.37830  0.83497  1.0000
  H   H4117     1.0  0.87398  0.08095  0.50082  1.0000
  H   H4118     1.0  0.80613  0.23855  0.77793  1.0000
  C   C5138     1.0  0.86985  0.05395  0.78709  1.0000
  C   C5139     1.0  0.87664  0.06471  0.66243  1.0000
  C   C5140     1.0  0.79452  0.23170  0.77865  1.0000
  H   H4119     1.0  0.87212  0.10904  0.69633  1.0000
  H   H4120     1.0  0.78966  0.15841  0.69601  1.0000
  C   C5141     1.0  0.79911  0.26843  0.80885  1.0000
  C   C5142     1.0  0.80543  0.26829  0.84490  1.0000
  S   S681      1.0  0.79964  0.32128  0.75864  1.0000
  H   H4121     1.0  0.82118  0.39892  0.79452  1.0000
  C   C5143     1.0  0.89381  0.02930  0.77278  1.0000
  H   H4122     1.0  0.82963  0.46871  0.73676  1.0000
  C   C5144     1.0  0.82083  0.26101  0.83100  1.0000
  H   H4123     1.0  0.89250  0.33982  0.82644  1.0000
  C   C5145     1.0  0.80141  0.06521  0.59219  1.0000
  H   H4124     1.0  0.80594  0.09945  0.66443  1.0000
  H   H4125     1.0  0.80199  0.11662  0.73935  1.0000
  C   C5146     1.0  0.88328  0.46254  0.65936  1.0000
  H   H4126     1.0  0.84173  0.38134  0.66387  1.0000
  H   H4127     1.0  0.81909  0.32383  0.78727  1.0000
  H   H4128     1.0  0.88201  0.19167  0.86644  1.0000
  H   H4129     1.0  0.86548  0.17136  0.85676  1.0000
  H   H4130     1.0  0.82965  0.46685  0.84601  1.0000
  H   H4131     1.0  0.91560  0.14291  0.67665  1.0000
  H   H4132     1.0  0.92287  0.09624  0.53875  1.0000
  H   H4133     1.0  0.90212  0.43716  0.89316  1.0000
  C   C5147     1.0  0.78867  0.38150  0.78200  1.0000
  C   C5148     1.0  0.80349  0.43945  0.84614  1.0000
  H   H4134     1.0  0.85315  0.46491  0.86745  1.0000
  Fe  Fe339     1.0  0.79290  0.23207  0.63573  1.0000
  H   H4135     1.0  0.80778  0.09029  0.72186  1.0000
  H   H4136     1.0  0.83594  0.10347  0.64189  1.0000
  H   H4137     1.0  0.84863  0.15308  0.59737  1.0000
  H   H4138     1.0  0.88752  0.05362  0.66875  1.0000
  C   C5149     1.0  0.88893  0.04681  0.77882  1.0000
  H   H4139     1.0  0.90238  0.15887  0.64725  1.0000
  C   C5150     1.0  0.86617  0.41339  0.81931  1.0000
  C   C5151     1.0  0.92478  0.11989  0.51422  1.0000
  S   S682      1.0  0.80115  0.06807  0.64665  1.0000
  C   C5152     1.0  0.87896  0.11948  0.68520  1.0000
  H   H4140     1.0  0.82389  0.12427  0.95733  1.0000
  C   C5153     1.0  0.81080  0.22674  0.72507  1.0000
  H   H4141     1.0  0.80162  0.27814  0.54564  1.0000
  C   C5154     1.0  0.89470  0.25608  0.79415  1.0000
  H   H4142     1.0  0.81572  0.15183  0.66571  1.0000
  Fe  Fe340     1.0  0.80738  0.24392  0.49165  1.0000
  H   H4143     1.0  0.81056  0.02696  0.81538  1.0000
  C   C5155     1.0  0.94739  0.41708  0.65482  1.0000
  H   H4144     1.0  0.79921  0.09840  0.51088  1.0000
  H   H4145     1.0  0.84300  0.07068  0.63591  1.0000
  S   S683      1.0  0.79965  0.06526  0.69951  1.0000
  C   C5156     1.0  0.89486  0.39416  0.71059  1.0000
  H   H4146     1.0  0.81099  0.99303  0.80582  1.0000
  C   C5157     1.0  0.88260  0.39431  0.66512  1.0000
  C   C5158     1.0  0.85460  0.47471  0.68972  1.0000
  H   H4147     1.0  0.80103  0.15067  0.52709  1.0000
  C   C5159     1.0  0.81500  0.16509  0.63631  1.0000
  C   C5160     1.0  0.82421  0.16560  0.61702  1.0000
  C   C5161     1.0  0.84136  0.15248  0.61232  1.0000
  C   C5162     1.0  0.84937  0.13889  0.62693  1.0000
  C   C5163     1.0  0.84026  0.13837  0.64637  1.0000
  C   C5164     1.0  0.82302  0.15163  0.65095  1.0000
  P   P174      1.0  0.85108  0.12097  0.66504  1.0000
  C   C5165     1.0  0.83434  0.11987  0.68798  1.0000
  C   C5166     1.0  0.85780  0.09750  0.65882  1.0000
  C   C5167     1.0  0.84744  0.09288  0.64760  1.0000
  C   C5168     1.0  0.85149  0.07430  0.64404  1.0000
  C   C5169     1.0  0.86606  0.06019  0.65151  1.0000
  C   C5170     1.0  0.79609  0.11321  0.66175  1.0000
  C   C5171     1.0  0.82623  0.21595  0.73389  1.0000
  H   H4148     1.0  0.90320  0.39237  0.75461  1.0000
  C   C5172     1.0  0.81378  0.04169  0.76679  1.0000
  H   H4149     1.0  0.94196  0.26148  0.90208  1.0000
  C   C5173     1.0  0.80670  0.03454  0.80171  1.0000
  C   C5174     1.0  0.85647  0.01210  0.74533  1.0000
  C   C5175     1.0  0.81421  0.23523  0.70544  1.0000
  C   C5176     1.0  0.79393  0.26588  0.91499  1.0000
  S   S684      1.0  0.80687  0.27980  0.66387  1.0000
  H   H4150     1.0  0.83065  0.44110  0.79616  1.0000
  H   H4151     1.0  0.81161  0.17341  0.57062  1.0000
  C   C5177     1.0  0.82293  0.98798  0.81325  1.0000
  H   H4152     1.0  0.94092  0.17951  0.84255  1.0000
  C   C5178     1.0  0.80097  0.36415  0.85629  1.0000
  H   H4153     1.0  0.96062  0.41508  0.65973  1.0000
  H   H4154     1.0  0.83994  0.46660  0.80556  1.0000
  H   H4155     1.0  0.80649  0.17777  0.53751  1.0000
  C   C5179     1.0  0.89633  0.42575  0.71373  1.0000
  C   C5180     1.0  0.98552  0.22690  0.74564  1.0000
  C   C5181     1.0  0.95501  0.26557  0.90252  1.0000
  C   C5182     1.0  0.96264  0.17377  0.85925  1.0000
  C   C5183     1.0  0.87793  0.44896  0.67611  1.0000
  H   H4156     1.0  0.95498  0.19230  0.74250  1.0000
  C   C5184     1.0  0.90729  0.17099  0.48611  1.0000
  C   C5185     1.0  0.93093  0.42045  0.62911  1.0000
  C   C5186     1.0  0.91323  0.42227  0.64217  1.0000
  H   H4157     1.0  0.80610  0.43487  0.77538  1.0000
  H   H4158     1.0  0.80162  0.30156  0.69253  1.0000
  H   H4159     1.0  0.79004  0.20696  0.61300  1.0000
  H   H4160     1.0  0.90009  0.42440  0.63704  1.0000
  C   C5187     1.0  0.81897  0.03108  0.78420  1.0000
  C   C5188     1.0  0.80358  0.21719  0.88791  1.0000
  H   H4161     1.0  0.81369  0.14037  0.79734  1.0000
  C   C5189     1.0  0.85549  0.04393  0.78884  1.0000
  H   H4162     1.0  0.81828  0.17646  0.60577  1.0000
  C   C5190     1.0  0.79742  0.32379  0.81356  1.0000
  C   C5191     1.0  0.89358  0.41391  0.70279  1.0000
  C   C5192     1.0  0.91249  0.42140  0.66171  1.0000
  C   C5193     1.0  0.98341  0.21195  0.90751  1.0000
  H   H4163     1.0  0.97649  0.10620  0.92444  1.0000
  C   C5194     1.0  0.95710  0.22190  0.73821  1.0000
  H   H4164     1.0  0.94824  0.15593  0.50913  1.0000
  H   H4165     1.0  0.80783  0.28504  0.74335  1.0000
  H   H4166     1.0  0.80178  0.17539  0.64002  1.0000
  H   H4167     1.0  0.86593  0.21583  0.49279  1.0000
  C   C5195     1.0  0.86186  0.44710  0.82034  1.0000
  S   S685      1.0  0.78988  0.23494  0.96101  1.0000
  C   C5196     1.0  0.90074  0.39835  0.74011  1.0000
  H   H4168     1.0  0.84078  0.05001  0.79493  1.0000
  H   H4169     1.0  0.96771  0.13977  0.90756  1.0000
  H   H4170     1.0  0.80238  0.24388  0.69867  1.0000
  H   H4171     1.0  0.80595  0.23175  0.88270  1.0000
  C   C5197     1.0  0.96810  0.23436  0.73933  1.0000
  C   C5198     1.0  0.92970  0.41889  0.66792  1.0000
  H   H4172     1.0  0.88150  0.46227  0.78521  1.0000
  H   H4173     1.0  0.80967  0.14238  0.59375  1.0000
  H   H4174     1.0  0.80388  0.11639  0.63092  1.0000
  C   C5199     1.0  0.98086  0.19450  0.74970  1.0000
  S   S686      1.0  0.80441  0.26227  0.51304  1.0000
  C   C5200     1.0  0.80508  0.12857  0.57322  1.0000
  H   H4175     1.0  0.97333  0.28281  0.93115  1.0000
  H   H4176     1.0  0.80450  0.11512  0.58353  1.0000
  C   C5201     1.0  0.79690  0.22620  0.57468  1.0000
  C   C5202     1.0  0.80319  0.39131  0.78012  1.0000
  C   C5203     1.0  0.83295  0.23285  0.69443  1.0000
  H   H4177     1.0  0.78834  0.19592  0.96522  1.0000
  C   C5204     1.0  0.87751  0.20339  0.49092  1.0000
  C   C5205     1.0  0.79378  0.09169  0.56565  1.0000
  C   C5206     1.0  0.79162  0.32226  0.78300  1.0000
  C   C5207     1.0  0.90235  0.17789  0.50332  1.0000
  C   C5208     1.0  0.79829  0.17928  0.90106  1.0000
  H   H4178     1.0  0.97847  0.13670  0.73067  1.0000
  C   C5209     1.0  0.88789  0.47466  0.80610  1.0000
  C   C5210     1.0  0.90380  0.47821  0.77229  1.0000
  H   H4179     1.0  0.86815  0.99409  0.81052  1.0000
  C   C5211     1.0  0.78914  0.04777  0.80173  1.0000
  H   H4180     1.0  0.78795  0.18340  0.59559  1.0000
  H   H4181     1.0  0.98049  0.31584  0.90550  1.0000
  C   C5212     1.0  0.98766  0.11353  0.91521  1.0000
  H   H4182     1.0  0.80318  0.50068  0.11511  1.0000
  S   S687      1.0  0.80518  0.85956  0.36079  1.0000
  C   C5213     1.0  0.87849  0.92973  0.44964  1.0000
  H   H4183     1.0  0.83125  0.69384  0.24567  1.0000
  C   C5214     1.0  0.81870  0.58826  0.25147  1.0000
  H   H4184     1.0  0.81016  0.95282  0.30516  1.0000
  S   S688      1.0  0.79376  0.57037  0.32497  1.0000
  Fe  Fe341     1.0  0.80468  0.87247  0.30601  1.0000
  C   C5215     1.0  0.80633  0.79739  0.20914  1.0000
  C   C5216     1.0  0.84715  0.76779  0.34299  1.0000
  S   S689      1.0  0.81787  0.88900  0.31918  1.0000
  Fe  Fe342     1.0  0.82265  0.60087  0.45975  1.0000
  Fe  Fe343     1.0  0.83031  0.86020  0.33571  1.0000
  S   S690      1.0  0.85978  0.85381  0.34265  1.0000
  H   H4185     1.0  0.95749  0.70833  0.44128  1.0000
  C   C5217     1.0  0.86940  0.90982  0.36170  1.0000
  S   S691      1.0  0.81675  0.63107  0.44267  1.0000
  H   H4186     1.0  0.89973  0.52016  0.36496  1.0000
  Fe  Fe344     1.0  0.84580  0.63220  0.44621  1.0000
  S   S692      1.0  0.86891  0.64107  0.42133  1.0000
  C   C5218     1.0  0.85650  0.78267  0.34104  1.0000
  Fe  Fe345     1.0  0.92567  0.71371  0.33476  1.0000
  S   S693      1.0  0.92754  0.70888  0.36564  1.0000
  S   S694      1.0  0.93247  0.68734  0.32213  1.0000
  Fe  Fe346     1.0  0.91620  0.75693  0.33043  1.0000
  S   S695      1.0  0.91672  0.75572  0.36126  1.0000
  S   S696      1.0  0.91051  0.78317  0.30717  1.0000
  Fe  Fe347     1.0  0.94365  0.73288  0.35618  1.0000
  S   S697      1.0  0.97012  0.72653  0.36907  1.0000
  Fe  Fe348     1.0  0.90057  0.73179  0.36806  1.0000
  S   S698      1.0  0.87437  0.72855  0.39217  1.0000
  S   S699      1.0  0.94408  0.73573  0.32497  1.0000
  S   S700      1.0  0.89766  0.73504  0.33768  1.0000
  Fe  Fe349     1.0  0.81407  0.54199  0.32319  1.0000
  C   C5219     1.0  0.89110  0.78140  0.47151  1.0000
  S   S701      1.0  0.84164  0.53408  0.30223  1.0000
  C   C5220     1.0  0.85880  0.96055  0.30294  1.0000
  C   C5221     1.0  0.81805  0.96588  0.39301  1.0000
  C   C5222     1.0  0.81666  0.63853  0.02322  1.0000
  C   C5223     1.0  0.79111  0.49706  0.15754  1.0000
  Fe  Fe350     1.0  0.88519  0.65671  0.25947  1.0000
  S   S702      1.0  0.91347  0.63613  0.26097  1.0000
  S   S703      1.0  0.87163  0.67713  0.27992  1.0000
  Fe  Fe351     1.0  0.88053  0.64456  0.22417  1.0000
  S   S704      1.0  0.85640  0.64947  0.20802  1.0000
  Fe  Fe352     1.0  0.89944  0.61527  0.25488  1.0000
  S   S705      1.0  0.90536  0.58448  0.27086  1.0000
  S   S706      1.0  0.87042  0.63496  0.25614  1.0000
  S   S707      1.0  0.89291  0.66824  0.22763  1.0000
  Fe  Fe353     1.0  0.80487  0.64934  0.09653  1.0000
  S   S708      1.0  0.83461  0.63264  0.08739  1.0000
  S   S709      1.0  0.83305  0.97103  0.34453  1.0000
  H   H4187     1.0  0.79772  0.55141  0.40397  1.0000
  S   S710      1.0  0.82314  0.59714  0.12265  1.0000
  C   C5224     1.0  0.87282  0.53779  0.34482  1.0000
  Fe  Fe354     1.0  0.83508  0.62346  0.11908  1.0000
  S   S711      1.0  0.86131  0.62260  0.13059  1.0000
  Fe  Fe355     1.0  0.81980  0.60822  0.09167  1.0000
  S   S712      1.0  0.82928  0.59052  0.06844  1.0000
  S   S713      1.0  0.80650  0.64239  0.12777  1.0000
  C   C5225     1.0  0.80631  0.69248  0.18770  1.0000
  C   C5226     1.0  0.84432  0.49255  0.13086  1.0000
  H   H4188     1.0  0.80349  0.51912  0.97666  1.0000
  C   C5227     1.0  0.79745  0.84460  0.27517  1.0000
  C   C5228     1.0  0.80235  0.70972  0.25439  1.0000
  H   H4189     1.0  0.81224  0.61937  0.00775  1.0000
  C   C5229     1.0  0.86199  0.94075  0.38036  1.0000
  C   C5230     1.0  0.79959  0.68028  0.16299  1.0000
  H   H4190     1.0  0.92724  0.69657  0.45422  1.0000
  H   H4191     1.0  0.84123  0.59467  0.16149  1.0000
  C   C5231     1.0  0.85655  0.69553  0.33647  1.0000
  H   H4192     1.0  0.85196  0.51971  0.41391  1.0000
  C   C5232     1.0  0.87607  0.93996  0.36329  1.0000
  H   H4193     1.0  0.82758  0.71990  0.38992  1.0000
  C   C5233     1.0  0.82022  0.78255  0.36522  1.0000
  C   C5234     1.0  0.82901  0.76750  0.35528  1.0000
  C   C5235     1.0  0.85978  0.63009  0.15217  1.0000
  C   C5236     1.0  0.87676  0.62850  0.15849  1.0000
  C   C5237     1.0  0.87606  0.63424  0.17562  1.0000
  C   C5238     1.0  0.85829  0.64143  0.18669  1.0000
  C   C5239     1.0  0.84134  0.64297  0.18039  1.0000
  C   C5240     1.0  0.84206  0.63752  0.16315  1.0000
  H   H4194     1.0  0.89056  0.62289  0.15003  1.0000
  H   H4195     1.0  0.88925  0.63327  0.18013  1.0000
  H   H4196     1.0  0.82758  0.64847  0.18888  1.0000
  H   H4197     1.0  0.82890  0.63901  0.15841  1.0000
  C   C5241     1.0  0.87963  0.92463  0.35395  1.0000
  H   H4198     1.0  0.88323  0.52632  0.33877  1.0000
  C   C5242     1.0  0.86154  0.70415  0.34882  1.0000
  H   H4199     1.0  0.87190  0.89810  0.35430  1.0000
  C   C5243     1.0  0.85850  0.54901  0.29444  1.0000
  C   C5244     1.0  0.85302  0.56917  0.29080  1.0000
  C   C5245     1.0  0.86720  0.58046  0.28312  1.0000
  C   C5246     1.0  0.88679  0.57149  0.27967  1.0000
  C   C5247     1.0  0.89208  0.55139  0.28382  1.0000
  C   C5248     1.0  0.87801  0.54022  0.29078  1.0000
  H   H4200     1.0  0.83790  0.57598  0.29348  1.0000
  H   H4201     1.0  0.86300  0.59598  0.28002  1.0000
  H   H4202     1.0  0.90717  0.54442  0.28126  1.0000
  H   H4203     1.0  0.88229  0.52467  0.29346  1.0000
  C   C5249     1.0  0.91532  0.68487  0.31051  1.0000
  C   C5250     1.0  0.90029  0.70021  0.30575  1.0000
  C   C5251     1.0  0.88688  0.69778  0.29637  1.0000
  C   C5252     1.0  0.88835  0.67995  0.29191  1.0000
  C   C5253     1.0  0.90314  0.66454  0.29706  1.0000
  C   C5254     1.0  0.91673  0.66706  0.30608  1.0000
  H   H4204     1.0  0.89924  0.71407  0.30883  1.0000
  H   H4205     1.0  0.87550  0.70978  0.29241  1.0000
  H   H4206     1.0  0.90401  0.65058  0.29436  1.0000
  H   H4207     1.0  0.92829  0.65512  0.30970  1.0000
  C   C5255     1.0  0.87204  0.55677  0.33449  1.0000
  H   H4208     1.0  0.89023  0.92428  0.34061  1.0000
  H   H4209     1.0  0.90865  0.59979  0.30831  1.0000
  H   H4210     1.0  0.83303  0.61892  0.38445  1.0000
  H   H4211     1.0  0.86444  0.54766  0.42017  1.0000
  C   C5256     1.0  0.86014  0.53366  0.36263  1.0000
  H   H4212     1.0  0.87500  0.69816  0.35371  1.0000
  H   H4213     1.0  0.87981  0.54869  0.38559  1.0000
  C   C5257     1.0  0.81894  0.53911  0.16227  1.0000
  C   C5258     1.0  0.80917  0.57833  0.42958  1.0000
  C   C5259     1.0  0.80533  0.56241  0.42510  1.0000
  C   C5260     1.0  0.80057  0.56380  0.40727  1.0000
  C   C5261     1.0  0.79910  0.58136  0.39399  1.0000
  C   C5262     1.0  0.80259  0.59736  0.39862  1.0000
  C   C5263     1.0  0.80787  0.59580  0.41617  1.0000
  C   C5264     1.0  0.84759  0.79766  0.35083  1.0000
  C   C5265     1.0  0.79282  0.92973  0.35350  1.0000
  H   H4214     1.0  0.86523  0.95533  0.31556  1.0000
  H   H4215     1.0  0.81059  0.60819  0.41947  1.0000
  C   C5266     1.0  0.86932  0.66559  0.41323  1.0000
  C   C5267     1.0  0.88392  0.67095  0.39780  1.0000
  C   C5268     1.0  0.88491  0.69031  0.39091  1.0000
  C   C5269     1.0  0.87184  0.70446  0.39989  1.0000
  C   C5270     1.0  0.85694  0.69920  0.41522  1.0000
  C   C5271     1.0  0.85548  0.67974  0.42168  1.0000
  H   H4216     1.0  0.89437  0.66013  0.39090  1.0000
  H   H4217     1.0  0.89573  0.69421  0.37850  1.0000
  H   H4218     1.0  0.84660  0.71018  0.42201  1.0000
  H   H4219     1.0  0.84376  0.67559  0.43309  1.0000
  C   C5272     1.0  0.87578  0.83596  0.33117  1.0000
  C   C5273     1.0  0.89062  0.82365  0.33989  1.0000
  C   C5274     1.0  0.90155  0.80745  0.33249  1.0000
  C   C5275     1.0  0.89823  0.80409  0.31583  1.0000
  C   C5276     1.0  0.88420  0.81708  0.30644  1.0000
  C   C5277     1.0  0.87275  0.83280  0.31431  1.0000
  H   H4220     1.0  0.89316  0.82621  0.35278  1.0000
  H   H4221     1.0  0.91253  0.79758  0.33964  1.0000
  H   H4222     1.0  0.88157  0.81445  0.29359  1.0000
  H   H4223     1.0  0.86135  0.84226  0.30754  1.0000
  C   C5278     1.0  0.81713  0.95569  0.34761  1.0000
  C   C5279     1.0  0.82488  0.93664  0.34550  1.0000
  C   C5280     1.0  0.81281  0.92371  0.34843  1.0000
  C   C5281     1.0  0.83696  0.71204  0.46968  1.0000
  C   C5282     1.0  0.81944  0.92465  0.19085  1.0000
  H   H4224     1.0  0.81664  0.65961  0.03891  1.0000
  H   H4225     1.0  0.84030  0.93184  0.34154  1.0000
  H   H4226     1.0  0.81905  0.90900  0.34700  1.0000
  C   C5283     1.0  0.87057  0.97896  0.38053  1.0000
  C   C5284     1.0  0.84033  0.51380  0.41279  1.0000
  H   H4227     1.0  0.80416  0.97554  0.21683  1.0000
  C   C5285     1.0  0.80871  0.58123  0.02598  1.0000
  C   C5286     1.0  0.82096  0.58251  0.03733  1.0000
  C   C5287     1.0  0.81342  0.59014  0.05406  1.0000
  C   C5288     1.0  0.85238  0.94715  0.43326  1.0000
  C   C5289     1.0  0.91611  0.48811  0.40256  1.0000
  H   H4228     1.0  0.81469  0.57528  0.01314  1.0000
  H   H4229     1.0  0.83636  0.57753  0.03312  1.0000
  C   C5290     1.0  0.78874  0.58719  0.03154  1.0000
  C   C5291     1.0  0.83118  0.59528  0.17518  1.0000
  H   H4230     1.0  0.81116  0.74270  0.20363  1.0000
  C   C5292     1.0  0.84546  0.56783  0.35906  1.0000
  C   C5293     1.0  0.84933  0.72060  0.35465  1.0000
  H   H4231     1.0  0.90665  0.92426  0.43138  1.0000
  C   C5294     1.0  0.83978  0.70384  0.32924  1.0000
  C   C5295     1.0  0.84287  0.90774  0.21072  1.0000
  C   C5296     1.0  0.83850  0.91612  0.19253  1.0000
  H   H4232     1.0  0.90527  0.70245  0.25316  1.0000
  H   H4233     1.0  0.90553  0.60191  0.34216  1.0000
  S   S714      1.0  0.81400  0.53346  0.35480  1.0000
  C   C5297     1.0  0.82945  0.79764  0.36289  1.0000
  C   C5298     1.0  0.81992  0.70594  0.24147  1.0000
  H   H4234     1.0  0.85400  0.75686  0.33452  1.0000
  H   H4235     1.0  0.83140  0.90070  0.24125  1.0000
  H   H4236     1.0  0.85755  0.90079  0.21206  1.0000
  H   H4237     1.0  0.84982  0.91561  0.17972  1.0000
  C   C5299     1.0  0.82289  0.51337  0.24864  1.0000
  C   C5300     1.0  0.81324  0.72791  0.39447  1.0000
  C   C5301     1.0  0.89151  0.93070  0.43191  1.0000
  H   H4238     1.0  0.84132  0.68388  0.38401  1.0000
  H   H4239     1.0  0.95535  0.62942  0.25108  1.0000
  C   C5302     1.0  0.98052  0.68418  0.34475  1.0000
  H   H4240     1.0  0.81217  0.68353  0.46022  1.0000
  S   S715      1.0  0.85266  0.60138  0.46143  1.0000
  H   H4241     1.0  0.81483  0.72668  0.32893  1.0000
  C   C5303     1.0  0.83231  0.97190  0.39822  1.0000
  H   H4242     1.0  0.80372  0.69370  0.35250  1.0000
  C   C5304     1.0  0.85135  0.95256  0.21204  1.0000
  C   C5305     1.0  0.81577  0.55249  0.17383  1.0000
  H   H4243     1.0  0.79103  0.97638  0.35469  1.0000
  H   H4244     1.0  0.96189  0.78416  0.36231  1.0000
  C   C5306     1.0  0.82489  0.52204  0.26267  1.0000
  C   C5307     1.0  0.82760  0.54099  0.25767  1.0000
  H   H4245     1.0  0.85333  0.51472  0.33752  1.0000
  C   C5308     1.0  0.81212  0.74464  0.16013  1.0000
  H   H4246     1.0  0.80582  0.54904  0.43559  1.0000
  C   C5309     1.0  0.80855  0.73358  0.21784  1.0000
  C   C5310     1.0  0.81483  0.69564  0.46428  1.0000
  H   H4247     1.0  0.90131  0.64133  0.43658  1.0000
  H   H4248     1.0  0.89941  0.71783  0.47109  1.0000
  C   C5311     1.0  0.91585  0.50259  0.38592  1.0000
  C   C5312     1.0  0.95258  0.68547  0.25512  1.0000
  H   H4249     1.0  0.82665  0.56061  0.17213  1.0000
  H   H4250     1.0  0.85733  0.58635  0.33317  1.0000
  C   C5313     1.0  0.84643  0.54892  0.36966  1.0000
  H   H4251     1.0  0.83115  0.49540  0.17834  1.0000
  C   C5314     1.0  0.89942  0.50900  0.37785  1.0000
  H   H4252     1.0  0.87050  0.78274  0.33157  1.0000
  H   H4253     1.0  0.82164  0.95403  0.38570  1.0000
  Fe  Fe356     1.0  0.79211  0.88760  0.34333  1.0000
  H   H4254     1.0  0.80861  0.75574  0.44405  1.0000
  C   C5315     1.0  0.83989  0.49151  0.16500  1.0000
  C   C5316     1.0  0.85824  0.57175  0.34148  1.0000
  H   H4255     1.0  0.81773  0.71773  0.08134  1.0000
  C   C5317     1.0  0.98308  0.64828  0.30165  1.0000
  C   C5318     1.0  0.81749  0.96683  0.22079  1.0000
  C   C5319     1.0  0.80582  0.52544  0.12432  1.0000
  H   H4256     1.0  0.85107  0.49219  0.31915  1.0000
  C   C5320     1.0  0.82334  0.70821  0.09353  1.0000
  C   C5321     1.0  0.83312  0.68940  0.09216  1.0000
  C   C5322     1.0  0.84018  0.67696  0.10787  1.0000
  C   C5323     1.0  0.83704  0.68316  0.12510  1.0000
  C   C5324     1.0  0.82661  0.70181  0.12686  1.0000
  C   C5325     1.0  0.82025  0.71451  0.11074  1.0000
  P   P175      1.0  0.82189  0.70864  0.14987  1.0000
  Fe  Fe357     1.0  0.79176  0.56071  0.35715  1.0000
  C   C5326     1.0  0.84538  0.70707  0.15431  1.0000
  C   C5327     1.0  0.85302  0.69227  0.16841  1.0000
  C   C5328     1.0  0.87141  0.69102  0.17136  1.0000
  C   C5329     1.0  0.88241  0.70442  0.16011  1.0000
  C   C5330     1.0  0.87504  0.71904  0.14579  1.0000
  C   C5331     1.0  0.85664  0.72030  0.14281  1.0000
  H   H4257     1.0  0.82531  0.49583  0.38195  1.0000
  H   H4258     1.0  0.80315  0.77960  0.41447  1.0000
  C   C5332     1.0  0.79712  0.96177  0.35284  1.0000
  S   S716      1.0  0.81511  0.57593  0.45219  1.0000
  C   C5333     1.0  0.79940  0.71044  0.46930  1.0000
  S   S717      1.0  0.80251  0.88059  0.27462  1.0000
  C   C5334     1.0  0.95629  0.70086  0.26069  1.0000
  C   C5335     1.0  0.92292  0.71734  0.26103  1.0000
  H   H4259     1.0  0.82439  0.51683  0.44134  1.0000
  S   S718      1.0  0.94940  0.65437  0.21392  1.0000
  C   C5336     1.0  0.80244  0.94529  0.29982  1.0000
  H   H4260     1.0  0.83404  0.97002  0.19165  1.0000
  H   H4261     1.0  0.83503  0.68439  0.07899  1.0000
  H   H4262     1.0  0.84790  0.66239  0.10681  1.0000
  H   H4263     1.0  0.84255  0.67327  0.13717  1.0000
  C   C5337     1.0  0.91951  0.70212  0.25510  1.0000
  H   H4264     1.0  0.84503  0.68146  0.17699  1.0000
  H   H4265     1.0  0.87724  0.67943  0.18223  1.0000
  H   H4266     1.0  0.89673  0.70328  0.16236  1.0000
  H   H4267     1.0  0.88371  0.72924  0.13687  1.0000
  H   H4268     1.0  0.85122  0.73149  0.13146  1.0000
  P   P176      1.0  0.85744  0.96006  0.39316  1.0000
  H   H4269     1.0  0.88384  0.57948  0.36362  1.0000
  H   H4270     1.0  0.79009  0.89302  0.20929  1.0000
  C   C5338     1.0  0.96560  0.70140  0.46888  1.0000
  H   H4271     1.0  0.82875  0.54771  0.26868  1.0000
  S   S719      1.0  0.83491  0.64394  0.47324  1.0000
  H   H4272     1.0  0.96088  0.67079  0.29121  1.0000
  C   C5339     1.0  0.80470  0.92536  0.20741  1.0000
  C   C5340     1.0  0.94121  0.71671  0.26388  1.0000
  Fe  Fe358     1.0  0.79438  0.61682  0.12946  1.0000
  H   H4273     1.0  0.80505  0.83931  0.28693  1.0000
  H   H4274     1.0  0.85155  0.71271  0.46953  1.0000
  H   H4275     1.0  0.84771  0.89883  0.38481  1.0000
  C   C5341     1.0  0.80319  0.51594  0.11114  1.0000
  H   H4276     1.0  0.82086  0.62214  0.27456  1.0000
  P   P177      1.0  0.83547  0.93820  0.27094  1.0000
  C   C5342     1.0  0.83495  0.94770  0.24573  1.0000
  C   C5343     1.0  0.85234  0.91516  0.27288  1.0000
  C   C5344     1.0  0.84609  0.89799  0.27563  1.0000
  C   C5345     1.0  0.85903  0.88025  0.27737  1.0000
  C   C5346     1.0  0.87845  0.87942  0.27642  1.0000
  C   C5347     1.0  0.88500  0.89644  0.27326  1.0000
  C   C5348     1.0  0.87206  0.91425  0.27133  1.0000
  C   C5349     1.0  0.88348  0.48635  0.40312  1.0000
  C   C5350     1.0  0.86290  0.48128  0.13086  1.0000
  H   H4277     1.0  0.83653  0.69757  0.31890  1.0000
  H   H4278     1.0  0.80009  0.70051  0.26859  1.0000
  C   C5351     1.0  0.98425  0.62936  0.25290  1.0000
  C   C5352     1.0  0.81124  0.93635  0.28403  1.0000
  C   C5353     1.0  0.82878  0.55129  0.23858  1.0000
  H   H4279     1.0  0.88169  0.61517  0.29175  1.0000
  H   H4280     1.0  0.89960  0.64409  0.34336  1.0000
  C   C5354     1.0  0.80924  0.50522  0.42697  1.0000
  C   C5355     1.0  0.82299  0.71783  0.22318  1.0000
  C   C5356     1.0  0.80735  0.73255  0.15081  1.0000
  C   C5357     1.0  0.79081  0.96956  0.18397  1.0000
  H   H4281     1.0  0.85385  0.93294  0.30337  1.0000
  C   C5358     1.0  0.83354  0.69628  0.46481  1.0000
  H   H4282     1.0  0.83118  0.89807  0.27683  1.0000
  H   H4283     1.0  0.85385  0.86711  0.27978  1.0000
  H   H4284     1.0  0.88836  0.86557  0.27828  1.0000
  H   H4285     1.0  0.90008  0.89578  0.27251  1.0000
  H   H4286     1.0  0.87745  0.92726  0.26879  1.0000
  C   C5359     1.0  0.79916  0.60614  0.19308  1.0000
  S   S720      1.0  0.81972  0.84369  0.32019  1.0000
  S   S721      1.0  0.90895  0.62334  0.22268  1.0000
  C   C5360     1.0  0.82468  0.51227  0.42833  1.0000
  H   H4287     1.0  0.80586  0.78319  0.37406  1.0000
  C   C5361     1.0  0.85224  0.92547  0.38835  1.0000
  H   H4288     1.0  0.80732  0.55321  0.12851  1.0000
  C   C5362     1.0  0.80961  0.49939  0.41018  1.0000
  H   H4289     1.0  0.79760  0.49404  0.40898  1.0000
  C   C5363     1.0  0.80019  0.54585  0.08741  1.0000
  C   C5364     1.0  0.80047  0.92699  0.27760  1.0000
  C   C5365     1.0  0.86543  0.94839  0.41542  1.0000
  H   H4290     1.0  0.83938  0.60593  0.24811  1.0000
  C   C5366     1.0  0.79879  0.78078  0.21729  1.0000
  H   H4291     1.0  0.80744  0.61187  0.16212  1.0000
  H   H4292     1.0  0.80669  0.92057  0.26514  1.0000
  H   H4293     1.0  0.79518  0.57326  0.25873  1.0000
  P   P178      1.0  0.80862  0.51224  0.14832  1.0000
  H   H4294     1.0  0.80119  0.61105  0.38854  1.0000
  H   H4295     1.0  0.98680  0.70026  0.30149  1.0000
  H   H4296     1.0  0.80894  0.78652  0.32849  1.0000
  C   C5367     1.0  0.98466  0.74849  0.29039  1.0000
  H   H4297     1.0  0.87236  0.65775  0.45644  1.0000
  H   H4298     1.0  0.81277  0.72916  0.11131  1.0000
  H   H4299     1.0  0.92844  0.50884  0.37919  1.0000
  H   H4300     1.0  0.85624  0.60375  0.21054  1.0000
  C   C5368     1.0  0.85575  0.91023  0.37892  1.0000
  S   S722      1.0  0.79254  0.58438  0.37163  1.0000
  H   H4301     1.0  0.80484  0.96184  0.25093  1.0000
  C   C5369     1.0  0.79148  0.77847  0.42701  1.0000
  C   C5370     1.0  0.97771  0.66589  0.34561  1.0000
  H   H4302     1.0  0.88440  0.95103  0.35711  1.0000
  C   C5371     1.0  0.88481  0.59131  0.21532  1.0000
  C   C5372     1.0  0.89674  0.57586  0.22504  1.0000
  C   C5373     1.0  0.88920  0.56023  0.23696  1.0000
  C   C5374     1.0  0.86971  0.56008  0.23931  1.0000
  C   C5375     1.0  0.85770  0.57550  0.22942  1.0000
  C   C5376     1.0  0.86533  0.59131  0.21774  1.0000
  H   H4303     1.0  0.79413  0.81648  0.27450  1.0000
  S   S723      1.0  0.79095  0.52649  0.32486  1.0000
  H   H4304     1.0  0.78957  0.61403  0.29342  1.0000
  C   C5377     1.0  0.79191  0.66865  0.35685  1.0000
  H   H4305     1.0  0.79513  0.59842  0.22387  1.0000
  C   C5378     1.0  0.90282  0.64839  0.44723  1.0000
  C   C5379     1.0  0.82386  0.52359  0.22958  1.0000
  C   C5380     1.0  0.82706  0.54239  0.22450  1.0000
  P   P179      1.0  0.83244  0.57572  0.23247  1.0000
  H   H4306     1.0  0.83667  0.71485  0.21324  1.0000
  C   C5381     1.0  0.82819  0.90785  0.22720  1.0000
  C   C5382     1.0  0.85894  0.93791  0.45030  1.0000
  C   C5383     1.0  0.88297  0.50108  0.38650  1.0000
  C   C5384     1.0  0.85173  0.94459  0.23149  1.0000
  H   H4307     1.0  0.91126  0.72944  0.26381  1.0000
  C   C5385     1.0  0.79752  0.60711  0.28152  1.0000
  H   H4308     1.0  0.80530  0.64256  0.39767  1.0000
  H   H4309     1.0  0.93163  0.67421  0.24795  1.0000
  H   H4310     1.0  0.81304  0.70175  0.19197  1.0000
  H   H4311     1.0  0.89057  0.60346  0.20609  1.0000
  H   H4312     1.0  0.91171  0.57620  0.22367  1.0000
  H   H4313     1.0  0.89839  0.54844  0.24477  1.0000
  H   H4314     1.0  0.86413  0.54806  0.24907  1.0000
  C   C5386     1.0  0.79345  0.59639  0.05945  1.0000
  C   C5387     1.0  0.82756  0.72039  0.33496  1.0000
  C   C5388     1.0  0.97111  0.76704  0.40743  1.0000
  H   H4315     1.0  0.89522  0.94052  0.40117  1.0000
  H   H4316     1.0  0.82198  0.51701  0.21875  1.0000
  H   H4317     1.0  0.82809  0.54990  0.20965  1.0000
  P   P180      1.0  0.81587  0.74947  0.35653  1.0000
  C   C5389     1.0  0.83204  0.72871  0.34805  1.0000
  C   C5390     1.0  0.96825  0.63489  0.24397  1.0000
  C   C5391     1.0  0.79127  0.83169  0.26813  1.0000
  H   H4318     1.0  0.79799  0.91580  0.23850  1.0000
  H   H4319     1.0  0.94336  0.72848  0.26884  1.0000
  C   C5392     1.0  0.82158  0.72695  0.47457  1.0000
  H   H4320     1.0  0.83181  0.63204  0.02255  1.0000
  C   C5393     1.0  0.80846  0.69249  0.16812  1.0000
  C   C5394     1.0  0.93431  0.68614  0.25228  1.0000
  H   H4321     1.0  0.79324  0.67245  0.44069  1.0000
  C   C5395     1.0  0.96914  0.64719  0.22579  1.0000
  C   C5396     1.0  0.80260  0.55541  0.10050  1.0000
  C   C5397     1.0  0.82569  0.60229  0.25595  1.0000
  H   H4322     1.0  0.85462  0.80942  0.34893  1.0000
  H   H4323     1.0  0.94259  0.63823  0.37559  1.0000
  H   H4324     1.0  0.97998  0.69301  0.22519  1.0000
  C   C5398     1.0  0.81514  0.61163  0.27096  1.0000
  H   H4325     1.0  0.83468  0.57946  0.36444  1.0000
  H   H4326     1.0  0.83618  0.54638  0.38312  1.0000
  H   H4327     1.0  0.83232  0.53708  0.15173  1.0000
  H   H4328     1.0  0.97895  0.70652  0.46314  1.0000
  H   H4329     1.0  0.86601  0.68271  0.33204  1.0000
  C   C5399     1.0  0.80918  0.91659  0.22558  1.0000
  H   H4330     1.0  0.85354  0.72714  0.36415  1.0000
  H   H4331     1.0  0.86904  0.66050  0.37076  1.0000
  Fe  Fe359     1.0  0.92062  0.64607  0.22898  1.0000
  H   H4332     1.0  0.89584  0.60886  0.40085  1.0000
  H   H4333     1.0  0.85136  0.63340  0.30848  1.0000
  H   H4334     1.0  0.85815  0.60874  0.41111  1.0000
  H   H4335     1.0  0.84749  0.63509  0.34250  1.0000
  Fe  Fe360     1.0  0.78944  0.51975  0.35660  1.0000
  H   H4336     1.0  0.92552  0.61684  0.40311  1.0000
  C   C5400     1.0  0.95351  0.70242  0.45660  1.0000
  H   H4337     1.0  0.85394  0.57766  0.43270  1.0000
  H   H4338     1.0  0.82228  0.80961  0.36996  1.0000
  H   H4339     1.0  0.81611  0.93042  0.17665  1.0000
  H   H4340     1.0  0.83714  0.95317  0.43410  1.0000
  H   H4341     1.0  0.80955  0.67486  0.39806  1.0000
  H   H4342     1.0  0.98296  0.76330  0.41485  1.0000
  C   C5401     1.0  0.95273  0.76425  0.41759  1.0000
  C   C5402     1.0  0.93743  0.76876  0.40788  1.0000
  C   C5403     1.0  0.94093  0.77599  0.38786  1.0000
  P   P181      1.0  0.91411  0.76322  0.42024  1.0000
  C   C5404     1.0  0.91422  0.73851  0.42047  1.0000
  C   C5405     1.0  0.90890  0.76516  0.44525  1.0000
  C   C5406     1.0  0.89518  0.78054  0.45198  1.0000
  H   H4343     1.0  0.96387  0.67291  0.25294  1.0000
  P   P182      1.0  0.86157  0.50905  0.37623  1.0000
  C   C5407     1.0  0.79848  0.55559  0.18728  1.0000
  C   C5408     1.0  0.91817  0.75057  0.45844  1.0000
  C   C5409     1.0  0.89811  0.73050  0.43057  1.0000
  C   C5410     1.0  0.89796  0.71151  0.43052  1.0000
  C   C5411     1.0  0.91396  0.70031  0.42059  1.0000
  C   C5412     1.0  0.93029  0.70795  0.41111  1.0000
  C   C5413     1.0  0.93040  0.72699  0.41096  1.0000
  C   C5414     1.0  0.89614  0.78001  0.40784  1.0000
  C   C5415     1.0  0.88295  0.77352  0.40152  1.0000
  C   C5416     1.0  0.86949  0.78660  0.39153  1.0000
  C   C5417     1.0  0.86912  0.80633  0.38767  1.0000
  C   C5418     1.0  0.88233  0.81295  0.39370  1.0000
  C   C5419     1.0  0.89588  0.79986  0.40362  1.0000
  C   C5420     1.0  0.79447  0.76490  0.44387  1.0000
  H   H4344     1.0  0.96337  0.66393  0.34638  1.0000
  C   C5421     1.0  0.79261  0.68597  0.36092  1.0000
  H   H4345     1.0  0.95071  0.75835  0.43287  1.0000
  H   H4346     1.0  0.92962  0.77917  0.37984  1.0000
  H   H4347     1.0  0.88751  0.79187  0.44234  1.0000
  C   C5422     1.0  0.84091  0.50776  0.39594  1.0000
  H   H4348     1.0  0.92952  0.65161  0.34587  1.0000
  H   H4349     1.0  0.92858  0.73847  0.45362  1.0000
  H   H4350     1.0  0.88541  0.73919  0.43785  1.0000
  H   H4351     1.0  0.88516  0.70569  0.43744  1.0000
  H   H4352     1.0  0.91354  0.68587  0.41990  1.0000
  H   H4353     1.0  0.94269  0.69941  0.40320  1.0000
  H   H4354     1.0  0.94302  0.73272  0.40308  1.0000
  H   H4355     1.0  0.88323  0.75837  0.40372  1.0000
  H   H4356     1.0  0.85965  0.78129  0.38646  1.0000
  H   H4357     1.0  0.85894  0.81650  0.37957  1.0000
  H   H4358     1.0  0.88229  0.82823  0.39022  1.0000
  H   H4359     1.0  0.90630  0.80519  0.40781  1.0000
  C   C5423     1.0  0.92220  0.64214  0.35776  1.0000
  C   C5424     1.0  0.92961  0.63453  0.37451  1.0000
  C   C5425     1.0  0.92006  0.62246  0.38994  1.0000
  C   C5426     1.0  0.90318  0.61789  0.38856  1.0000
  C   C5427     1.0  0.89575  0.62533  0.37168  1.0000
  C   C5428     1.0  0.90525  0.63775  0.35638  1.0000
  P   P183      1.0  0.87388  0.61963  0.36979  1.0000
  C   C5429     1.0  0.87611  0.61830  0.34503  1.0000
  C   C5430     1.0  0.87113  0.59662  0.38558  1.0000
  C   C5431     1.0  0.87737  0.57944  0.37862  1.0000
  C   C5432     1.0  0.87510  0.56183  0.39108  1.0000
  C   C5433     1.0  0.86651  0.56121  0.41053  1.0000
  C   C5434     1.0  0.86052  0.57816  0.41760  1.0000
  C   C5435     1.0  0.86283  0.59578  0.40525  1.0000
  C   C5436     1.0  0.86088  0.62723  0.33535  1.0000
  C   C5437     1.0  0.86295  0.62624  0.31611  1.0000
  C   C5438     1.0  0.88008  0.61615  0.30655  1.0000
  C   C5439     1.0  0.89533  0.60738  0.31599  1.0000
  C   C5440     1.0  0.89345  0.60859  0.33511  1.0000
  C   C5441     1.0  0.85318  0.63781  0.37705  1.0000
  C   C5442     1.0  0.85519  0.65645  0.37637  1.0000
  C   C5443     1.0  0.83943  0.66981  0.38380  1.0000
  C   C5444     1.0  0.82155  0.66472  0.39173  1.0000
  C   C5445     1.0  0.81920  0.64649  0.39160  1.0000
  C   C5446     1.0  0.83493  0.63313  0.38416  1.0000
  H   H4360     1.0  0.82494  0.74020  0.16616  1.0000
  H   H4361     1.0  0.84544  0.68467  0.46124  1.0000
  H   H4362     1.0  0.80082  0.68005  0.14804  1.0000
  S   S724      1.0  0.79448  0.67813  0.07841  1.0000
  C   C5447     1.0  0.79033  0.59337  0.27695  1.0000
  C   C5448     1.0  0.80466  0.52896  0.16384  1.0000
  H   H4363     1.0  0.81795  0.79961  0.21435  1.0000
  H   H4364     1.0  0.82033  0.49887  0.25257  1.0000
  C   C5449     1.0  0.83735  0.58640  0.19243  1.0000
  C   C5450     1.0  0.80047  0.52611  0.09274  1.0000
  H   H4365     1.0  0.88190  0.55987  0.32083  1.0000
  C   C5451     1.0  0.88643  0.65781  0.45843  1.0000
  C   C5452     1.0  0.79821  0.81162  0.19505  1.0000
  H   H4366     1.0  0.86435  0.95016  0.20113  1.0000
  H   H4367     1.0  0.96840  0.69631  0.34506  1.0000
  C   C5453     1.0  0.81787  0.95894  0.24021  1.0000
  C   C5454     1.0  0.85688  0.49946  0.34339  1.0000
  C   C5455     1.0  0.98086  0.71904  0.27456  1.0000
  H   H4368     1.0  0.93376  0.64023  0.44146  1.0000
  Fe  Fe361     1.0  0.80638  0.63940  0.47153  1.0000
  H   H4369     1.0  0.82401  0.51431  0.27754  1.0000
  H   H4370     1.0  0.83926  0.49729  0.11746  1.0000
  C   C5456     1.0  0.82542  0.50050  0.39478  1.0000
  C   C5457     1.0  0.92109  0.64779  0.44998  1.0000
  C   C5458     1.0  0.80086  0.58400  0.26197  1.0000
  C   C5459     1.0  0.86206  0.49258  0.36146  1.0000
  H   H4371     1.0  0.86514  0.93617  0.23537  1.0000
  C   C5460     1.0  0.92301  0.65672  0.46385  1.0000
  C   C5461     1.0  0.84380  0.95464  0.27978  1.0000
  H   H4372     1.0  0.80545  0.96260  0.18502  1.0000
  C   C5462     1.0  0.80534  0.59749  0.21041  1.0000
  C   C5463     1.0  0.88500  0.93993  0.41485  1.0000
  H   H4373     1.0  0.88354  0.92257  0.46287  1.0000
  H   H4374     1.0  0.84172  0.92546  0.40177  1.0000
  C   C5464     1.0  0.82452  0.58762  0.21020  1.0000
  C   C5465     1.0  0.85236  0.94791  0.29597  1.0000
  C   C5466     1.0  0.80409  0.72343  0.41384  1.0000
  H   H4375     1.0  0.81124  0.71185  0.42375  1.0000
  H   H4376     1.0  0.81126  0.48760  0.33497  1.0000
  C   C5467     1.0  0.83271  0.49784  0.14793  1.0000
  H   H4377     1.0  0.79498  0.67965  0.21703  1.0000
  C   C5468     1.0  0.79781  0.77875  0.32989  1.0000
  C   C5469     1.0  0.80396  0.74274  0.38144  1.0000
  C   C5470     1.0  0.97626  0.66596  0.29028  1.0000
  C   C5471     1.0  0.80812  0.65398  0.03246  1.0000
  C   C5472     1.0  0.83425  0.96371  0.20669  1.0000
  H   H4378     1.0  0.85214  0.57865  0.19181  1.0000
  H   H4379     1.0  0.80249  0.66302  0.34521  1.0000
  H   H4380     1.0  0.97559  0.75842  0.33602  1.0000
  C   C5473     1.0  0.81212  0.60508  0.17552  1.0000
  C   C5474     1.0  0.80559  0.63126  0.01506  1.0000
  C   C5475     1.0  0.79768  0.76050  0.34209  1.0000
  C   C5476     1.0  0.80260  0.72600  0.47494  1.0000
  C   C5477     1.0  0.93636  0.69570  0.46399  1.0000
  H   H4381     1.0  0.80483  0.77034  0.22874  1.0000
  H   H4382     1.0  0.92887  0.48315  0.40878  1.0000
  H   H4383     1.0  0.97300  0.63954  0.31069  1.0000
  C   C5478     1.0  0.95925  0.77887  0.37780  1.0000
  C   C5479     1.0  0.78846  0.66197  0.03377  1.0000
  H   H4384     1.0  0.93729  0.65575  0.46604  1.0000
  S   S725      1.0  0.78987  0.62558  0.09904  1.0000
  C   C5480     1.0  0.80555  0.54529  0.11879  1.0000
  H   H4385     1.0  0.83312  0.98012  0.25962  1.0000
  C   C5481     1.0  0.79595  0.68006  0.20194  1.0000
  H   H4386     1.0  0.79819  0.55376  0.07311  1.0000
  C   C5482     1.0  0.79885  0.97576  0.39643  1.0000
  H   H4387     1.0  0.79693  0.50440  0.43885  1.0000
  C   C5483     1.0  0.79010  0.73852  0.14400  1.0000
  H   H4388     1.0  0.98702  0.66348  0.20268  1.0000
  H   H4389     1.0  0.84882  0.93705  0.46404  1.0000
  H   H4390     1.0  0.80366  0.82476  0.18924  1.0000
  C   C5484     1.0  0.85548  0.48665  0.33291  1.0000
  C   C5485     1.0  0.84059  0.97441  0.27148  1.0000
  H   H4391     1.0  0.80376  0.77172  0.16944  1.0000
  P   P184      1.0  0.98037  0.70006  0.26327  1.0000
  H   H4392     1.0  0.80229  0.57074  0.09643  1.0000
  C   C5486     1.0  0.97437  0.77429  0.38754  1.0000
  Fe  Fe362     1.0  0.79328  0.84571  0.34379  1.0000
  C   C5487     1.0  0.79431  0.86419  0.26657  1.0000
  C   C5488     1.0  0.78923  0.66788  0.17724  1.0000
  C   C5489     1.0  0.98015  0.75286  0.27217  1.0000
  H   H4393     1.0  0.98345  0.61973  0.26688  1.0000
  C   C5490     1.0  0.98716  0.72949  0.30077  1.0000
  C   C5491     1.0  0.80004  0.76251  0.16218  1.0000
  H   H4394     1.0  0.97518  0.74174  0.24994  1.0000
  C   C5492     1.0  0.97839  0.73819  0.26421  1.0000
  H   H4395     1.0  0.97799  0.76764  0.26423  1.0000
  H   H4396     1.0  0.79854  0.51875  0.08255  1.0000
  C   C5493     1.0  0.88826  0.66690  0.47225  1.0000
  C   C5494     1.0  0.98504  0.71482  0.29304  1.0000
  C   C5495     1.0  0.79085  0.73749  0.23075  1.0000
  H   H4397     1.0  0.79208  0.68098  0.11740  1.0000
  H   H4398     1.0  0.79589  0.56617  0.19604  1.0000
  H   H4399     1.0  0.98604  0.75983  0.29660  1.0000
  C   C5496     1.0  0.98616  0.65399  0.21674  1.0000
  C   C5497     1.0  0.90662  0.66664  0.47486  1.0000
  H   H4400     1.0  0.78804  0.97127  0.39195  1.0000
  C   C5498     1.0  0.85595  0.98013  0.29439  1.0000
  H   H4401     1.0  0.81693  0.57211  0.61065  1.0000
  H   H4402     1.0  0.84515  0.69950  0.57601  1.0000
  H   H4403     1.0  0.89744  0.76763  0.49957  1.0000
  Fe  Fe363     1.0  0.80800  0.88700  0.67937  1.0000
  S   S726      1.0  0.82965  0.87054  0.69759  1.0000
  C   C5499     1.0  0.79024  0.52228  0.95273  1.0000
  C   C5500     1.0  0.82306  0.77847  0.63597  1.0000
  S   S727      1.0  0.81259  0.83182  0.70135  1.0000
  H   H4404     1.0  0.89968  0.56717  0.66275  1.0000
  Fe  Fe364     1.0  0.83482  0.84733  0.68083  1.0000
  S   S728      1.0  0.86452  0.83222  0.66765  1.0000
  S   S729      1.0  0.81498  0.86490  0.66077  1.0000
  Fe  Fe365     1.0  0.84774  0.68396  0.62197  1.0000
  S   S730      1.0  0.87474  0.67901  0.59944  1.0000
  S   S731      1.0  0.83221  0.71324  0.62799  1.0000
  Fe  Fe366     1.0  0.84809  0.64130  0.63583  1.0000
  S   S732      1.0  0.87510  0.63241  0.61437  1.0000
  S   S733      1.0  0.82852  0.62516  0.65972  1.0000
  Fe  Fe367     1.0  0.88573  0.65499  0.62236  1.0000
  S   S734      1.0  0.91459  0.64995  0.63040  1.0000
  Fe  Fe368     1.0  0.86189  0.65725  0.59301  1.0000
  S   S735      1.0  0.85973  0.66195  0.56165  1.0000
  S   S736      1.0  0.85975  0.66175  0.64527  1.0000
  S   S737      1.0  0.83410  0.66413  0.61397  1.0000
  Fe  Fe369     1.0  0.93899  0.74136  0.69670  1.0000
  S   S738      1.0  0.95393  0.75235  0.66648  1.0000
  S   S739      1.0  0.91213  0.75742  0.71398  1.0000
  Fe  Fe370     1.0  0.96554  0.70162  0.69838  1.0000
  H   H4405     1.0  0.80466  0.94948  0.74151  1.0000
  S   S740      1.0  0.97507  0.67189  0.71562  1.0000
  C   C5501     1.0  0.82739  0.62357  0.59277  1.0000
  Fe  Fe371     1.0  0.95305  0.72389  0.66098  1.0000
  S   S741      1.0  0.94181  0.72366  0.63509  1.0000
  S   S742      1.0  0.96660  0.72812  0.70751  1.0000
  S   S743      1.0  0.93658  0.71379  0.69056  1.0000
  Fe  Fe372     1.0  0.81225  0.58289  0.94957  1.0000
  S   S744      1.0  0.84007  0.56617  0.93480  1.0000
  H   H4406     1.0  0.84505  0.56827  0.57584  1.0000
  S   S745      1.0  0.82821  0.50869  0.74064  1.0000
  Fe  Fe373     1.0  0.87251  0.52308  0.74932  1.0000
  S   S746      1.0  0.84818  0.54475  0.73830  1.0000
  S   S747      1.0  0.89811  0.53440  0.74991  1.0000
  Fe  Fe374     1.0  0.82912  0.52694  0.76064  1.0000
  H   H4407     1.0  0.95930  0.69227  0.75706  1.0000
  Fe  Fe375     1.0  0.84983  0.52472  0.71943  1.0000
  S   S748      1.0  0.85217  0.53508  0.68740  1.0000
  S   S749      1.0  0.87565  0.50401  0.72879  1.0000
  Fe  Fe376     1.0  0.95236  0.59359  0.82557  1.0000
  S   S750      1.0  0.93546  0.62283  0.83002  1.0000
  Fe  Fe377     1.0  0.91643  0.57964  0.82605  1.0000
  S   S751      1.0  0.89698  0.60789  0.83042  1.0000
  S   S752      1.0  0.90068  0.55667  0.82685  1.0000
  Fe  Fe378     1.0  0.91966  0.62127  0.80828  1.0000
  S   S753      1.0  0.90996  0.64767  0.78653  1.0000
  Fe  Fe379     1.0  0.91426  0.60673  0.85180  1.0000
  S   S754      1.0  0.89838  0.61679  0.87932  1.0000
  S   S755      1.0  0.93792  0.59310  0.80199  1.0000
  S   S756      1.0  0.93244  0.57741  0.84922  1.0000
  Fe  Fe380     1.0  0.83968  0.61302  0.48850  1.0000
  C   C5502     1.0  0.89947  0.48592  0.80873  1.0000
  S   S757      1.0  0.85358  0.60283  0.51470  1.0000
  C   C5503     1.0  0.89807  0.54149  0.77106  1.0000
  C   C5504     1.0  0.88369  0.53843  0.78755  1.0000
  C   C5505     1.0  0.88461  0.54316  0.80463  1.0000
  C   C5506     1.0  0.89953  0.55165  0.80504  1.0000
  C   C5507     1.0  0.91362  0.55520  0.78836  1.0000
  C   C5508     1.0  0.91304  0.54982  0.77151  1.0000
  H   H4408     1.0  0.87202  0.53225  0.78711  1.0000
  H   H4409     1.0  0.87368  0.54043  0.81751  1.0000
  H   H4410     1.0  0.92526  0.56155  0.78862  1.0000
  H   H4411     1.0  0.92433  0.55194  0.75883  1.0000
  C   C5509     1.0  0.85632  0.58024  0.91959  1.0000
  C   C5510     1.0  0.85561  0.59861  0.92220  1.0000
  C   C5511     1.0  0.86879  0.60956  0.90995  1.0000
  C   C5512     1.0  0.88221  0.60257  0.89459  1.0000
  C   C5513     1.0  0.88273  0.58431  0.89181  1.0000
  C   C5514     1.0  0.87005  0.57302  0.90453  1.0000
  H   H4412     1.0  0.84514  0.60423  0.93385  1.0000
  H   H4413     1.0  0.86854  0.62345  0.91242  1.0000
  H   H4414     1.0  0.89310  0.57874  0.88008  1.0000
  H   H4415     1.0  0.87078  0.55872  0.90267  1.0000
  C   C5515     1.0  0.88290  0.68309  0.81623  1.0000
  H   H4416     1.0  0.89183  0.52178  0.85378  1.0000
  H   H4417     1.0  0.86430  0.54518  0.52450  1.0000
  H   H4418     1.0  0.96108  0.71963  0.80131  1.0000
  C   C5516     1.0  0.80707  0.49450  0.89967  1.0000
  C   C5517     1.0  0.95663  0.66483  0.73472  1.0000
  C   C5518     1.0  0.93911  0.67769  0.73880  1.0000
  C   C5519     1.0  0.92485  0.67222  0.75470  1.0000
  C   C5520     1.0  0.92806  0.65397  0.76666  1.0000
  C   C5521     1.0  0.94555  0.64104  0.76256  1.0000
  C   C5522     1.0  0.95971  0.64639  0.74641  1.0000
  H   H4419     1.0  0.93668  0.69202  0.72998  1.0000
  H   H4420     1.0  0.91149  0.68231  0.75792  1.0000
  H   H4421     1.0  0.94808  0.62687  0.77168  1.0000
  H   H4422     1.0  0.97301  0.63625  0.74293  1.0000
  H   H4423     1.0  0.82443  0.76996  0.62547  1.0000
  H   H4424     1.0  0.88059  0.79337  0.47657  1.0000
  C   C5523     1.0  0.85793  0.64495  0.54933  1.0000
  C   C5524     1.0  0.86355  0.62506  0.55577  1.0000
  C   C5525     1.0  0.86223  0.61226  0.54500  1.0000
  C   C5526     1.0  0.85519  0.61924  0.52785  1.0000
  C   C5527     1.0  0.84947  0.63911  0.52157  1.0000
  C   C5528     1.0  0.85100  0.65185  0.53217  1.0000
  H   H4425     1.0  0.86905  0.61956  0.56891  1.0000
  H   H4426     1.0  0.86667  0.59690  0.54999  1.0000
  H   H4427     1.0  0.84400  0.64469  0.50848  1.0000
  H   H4428     1.0  0.84674  0.66715  0.52708  1.0000
  C   C5529     1.0  0.83678  0.60042  0.66789  1.0000
  C   C5530     1.0  0.85106  0.58942  0.65609  1.0000
  C   C5531     1.0  0.85571  0.56930  0.66213  1.0000
  C   C5532     1.0  0.84675  0.56029  0.68033  1.0000
  C   C5533     1.0  0.83310  0.57142  0.69245  1.0000
  C   C5534     1.0  0.82792  0.59143  0.68612  1.0000
  H   H4429     1.0  0.85807  0.59629  0.64208  1.0000
  H   H4430     1.0  0.86636  0.56071  0.65278  1.0000
  H   H4431     1.0  0.82602  0.56453  0.70642  1.0000
  H   H4432     1.0  0.81688  0.59991  0.69528  1.0000
  C   C5535     1.0  0.92161  0.67054  0.63236  1.0000
  C   C5536     1.0  0.91227  0.68909  0.62476  1.0000
  C   C5537     1.0  0.91854  0.70526  0.62580  1.0000
  C   C5538     1.0  0.93365  0.70307  0.63511  1.0000
  C   C5539     1.0  0.94265  0.68456  0.64323  1.0000
  C   C5540     1.0  0.93692  0.66833  0.64146  1.0000
  H   H4433     1.0  0.90056  0.69093  0.61768  1.0000
  H   H4434     1.0  0.91174  0.71955  0.61933  1.0000
  H   H4435     1.0  0.95443  0.68273  0.65029  1.0000
  H   H4436     1.0  0.94431  0.65404  0.64726  1.0000
  C   C5541     1.0  0.87770  0.81221  0.68151  1.0000
  C   C5542     1.0  0.86918  0.80276  0.69965  1.0000
  C   C5543     1.0  0.87990  0.78606  0.70961  1.0000
  C   C5544     1.0  0.89911  0.77867  0.70145  1.0000
  C   C5545     1.0  0.90767  0.78839  0.68352  1.0000
  C   C5546     1.0  0.89705  0.80514  0.67368  1.0000
  H   H4437     1.0  0.85432  0.80817  0.70589  1.0000
  H   H4438     1.0  0.87322  0.77874  0.72356  1.0000
  H   H4439     1.0  0.92252  0.78311  0.67726  1.0000
  H   H4440     1.0  0.90384  0.81256  0.65987  1.0000
  H   H4441     1.0  0.90978  0.62430  0.56443  1.0000
  H   H4442     1.0  0.81630  0.80974  0.67328  1.0000
  S   S758      1.0  0.85340  0.50645  0.77322  1.0000
  C   C5547     1.0  0.80636  0.68360  0.51986  1.0000
  C   C5548     1.0  0.80002  0.75017  0.52864  1.0000
  C   C5549     1.0  0.79025  0.63239  0.52947  1.0000
  C   C5550     1.0  0.80773  0.93533  0.67937  1.0000
  C   C5551     1.0  0.80249  0.95536  0.67274  1.0000
  C   C5552     1.0  0.80663  0.96837  0.68150  1.0000
  C   C5553     1.0  0.81634  0.96143  0.69680  1.0000
  C   C5554     1.0  0.82160  0.94141  0.70341  1.0000
  C   C5555     1.0  0.81718  0.92843  0.69486  1.0000
  H   H4443     1.0  0.86047  0.70830  0.81157  1.0000
  C   C5556     1.0  0.96100  0.70666  0.79700  1.0000
  H   H4444     1.0  0.82923  0.93584  0.71515  1.0000
  H   H4445     1.0  0.82127  0.91309  0.70013  1.0000
  P   P185      1.0  0.81388  0.53102  0.89504  1.0000
  C   C5557     1.0  0.82358  0.52335  0.94950  1.0000
  C   C5558     1.0  0.86610  0.51007  0.86247  1.0000
  H   H4446     1.0  0.80820  0.96843  0.83596  1.0000
  H   H4447     1.0  0.79827  0.71844  0.72911  1.0000
  H   H4448     1.0  0.95836  0.72170  0.76798  1.0000
  H   H4449     1.0  0.79791  0.55085  0.57159  1.0000
  C   C5559     1.0  0.81463  0.67377  0.86844  1.0000
  H   H4450     1.0  0.80625  0.98048  0.74733  1.0000
  C   C5560     1.0  0.87715  0.52309  0.86204  1.0000
  H   H4451     1.0  0.79213  0.56514  0.91168  1.0000
  C   C5561     1.0  0.89502  0.57512  0.67426  1.0000
  C   C5562     1.0  0.83659  0.78980  0.63373  1.0000
  H   H4452     1.0  0.83444  0.97805  0.77811  1.0000
  H   H4453     1.0  0.80670  0.57798  0.53687  1.0000
  C   C5563     1.0  0.79270  0.52561  0.79854  1.0000
  C   C5564     1.0  0.83418  0.80084  0.64754  1.0000
  H   H4454     1.0  0.85800  0.66123  0.93855  1.0000
  C   C5565     1.0  0.81550  0.49654  0.84358  1.0000
  C   C5566     1.0  0.81955  0.58660  0.60555  1.0000
  H   H4455     1.0  0.83534  0.52322  0.95596  1.0000
  C   C5567     1.0  0.85191  0.64562  0.72748  1.0000
  C   C5568     1.0  0.93253  0.73904  0.84354  1.0000
  C   C5569     1.0  0.82089  0.82287  0.57526  1.0000
  C   C5570     1.0  0.83259  0.83457  0.56190  1.0000
  H   H4456     1.0  0.84602  0.70821  0.52772  1.0000
  C   C5571     1.0  0.84669  0.80821  0.59294  1.0000
  C   C5572     1.0  0.82792  0.80966  0.59065  1.0000
  P   P186      1.0  0.85592  0.79076  0.61256  1.0000
  C   C5573     1.0  0.87670  0.79734  0.61611  1.0000
  C   C5574     1.0  0.78916  0.55503  0.58477  1.0000
  C   C5575     1.0  0.87528  0.81577  0.61926  1.0000
  C   C5576     1.0  0.89134  0.82092  0.62186  1.0000
  C   C5577     1.0  0.90909  0.80794  0.62081  1.0000
  C   C5578     1.0  0.91082  0.78979  0.61711  1.0000
  C   C5579     1.0  0.89474  0.78450  0.61472  1.0000
  C   C5580     1.0  0.86329  0.76730  0.60657  1.0000
  C   C5581     1.0  0.86749  0.76534  0.58730  1.0000
  C   C5582     1.0  0.87406  0.74706  0.58281  1.0000
  C   C5583     1.0  0.87648  0.73073  0.59751  1.0000
  C   C5584     1.0  0.87223  0.73259  0.61671  1.0000
  C   C5585     1.0  0.86576  0.75081  0.62126  1.0000
  C   C5586     1.0  0.79673  0.73659  0.62641  1.0000
  H   H4457     1.0  0.80554  0.68768  0.63697  1.0000
  H   H4458     1.0  0.81847  0.80085  0.60080  1.0000
  C   C5587     1.0  0.80330  0.68705  0.53839  1.0000
  H   H4459     1.0  0.86175  0.82618  0.61988  1.0000
  H   H4460     1.0  0.88987  0.83486  0.62517  1.0000
  H   H4461     1.0  0.92141  0.81184  0.62320  1.0000
  H   H4462     1.0  0.92453  0.77959  0.61658  1.0000
  H   H4463     1.0  0.89655  0.77023  0.61215  1.0000
  H   H4464     1.0  0.86591  0.77786  0.57574  1.0000
  H   H4465     1.0  0.87740  0.74553  0.56796  1.0000
  H   H4466     1.0  0.88174  0.71661  0.59404  1.0000
  H   H4467     1.0  0.87391  0.71987  0.62811  1.0000
  H   H4468     1.0  0.86286  0.75204  0.63621  1.0000
  H   H4469     1.0  0.83858  0.50223  0.87229  1.0000
  C   C5588     1.0  0.81551  0.59767  0.58775  1.0000
  H   H4470     1.0  0.79519  0.96082  0.66075  1.0000
  C   C5589     1.0  0.79416  0.56905  0.89610  1.0000
  C   C5590     1.0  0.85704  0.72819  0.50251  1.0000
  C   C5591     1.0  0.85765  0.71035  0.51529  1.0000
  C   C5592     1.0  0.87345  0.69521  0.51228  1.0000
  C   C5593     1.0  0.88892  0.69779  0.49659  1.0000
  H   H4471     1.0  0.80120  0.58460  0.84036  1.0000
  P   P187      1.0  0.90933  0.67814  0.49271  1.0000
  C   C5594     1.0  0.88795  0.71560  0.48354  1.0000
  C   C5595     1.0  0.91294  0.49340  0.79318  1.0000
  C   C5596     1.0  0.83651  0.96730  0.84012  1.0000
  H   H4472     1.0  0.79656  0.77029  0.65262  1.0000
  H   H4473     1.0  0.96891  0.73827  0.86472  1.0000
  H   H4474     1.0  0.87228  0.49867  0.85449  1.0000
  C   C5597     1.0  0.82396  0.57466  0.55792  1.0000
  C   C5598     1.0  0.80153  0.51419  0.89180  1.0000
  H   H4475     1.0  0.82144  0.70374  0.91420  1.0000
  C   C5599     1.0  0.82018  0.90980  0.76842  1.0000
  C   C5600     1.0  0.84943  0.63513  0.69968  1.0000
  C   C5601     1.0  0.91038  0.66080  0.51525  1.0000
  C   C5602     1.0  0.90938  0.66698  0.53217  1.0000
  C   C5603     1.0  0.90949  0.65378  0.54975  1.0000
  C   C5604     1.0  0.91027  0.63438  0.55068  1.0000
  C   C5605     1.0  0.91105  0.62812  0.53401  1.0000
  C   C5606     1.0  0.91114  0.64123  0.51635  1.0000
  C   C5607     1.0  0.84509  0.60961  0.84989  1.0000
  H   H4476     1.0  0.84487  0.73998  0.50496  1.0000
  H   H4477     1.0  0.87361  0.68154  0.52237  1.0000
  C   C5608     1.0  0.79169  0.74624  0.89930  1.0000
  C   C5609     1.0  0.83018  0.70668  0.57677  1.0000
  C   C5610     1.0  0.83528  0.57735  0.77515  1.0000
  C   C5611     1.0  0.81727  0.51568  0.83631  1.0000
  C   C5612     1.0  0.83838  0.59706  0.86671  1.0000
  C   C5613     1.0  0.83089  0.61264  0.61063  1.0000
  C   C5614     1.0  0.84197  0.56631  0.56292  1.0000
  H   H4478     1.0  0.91113  0.61315  0.53486  1.0000
  H   H4479     1.0  0.80391  0.74844  0.62363  1.0000
  H   H4480     1.0  0.90809  0.68206  0.53189  1.0000
  H   H4481     1.0  0.90832  0.65868  0.56282  1.0000
  H   H4482     1.0  0.91138  0.63601  0.50378  1.0000
  C   C5615     1.0  0.80081  0.66716  0.86317  1.0000
  C   C5616     1.0  0.85779  0.63191  0.71576  1.0000
  C   C5617     1.0  0.82415  0.72555  0.57964  1.0000
  C   C5618     1.0  0.80821  0.71430  0.91271  1.0000
  C   C5619     1.0  0.96260  0.68878  0.81002  1.0000
  C   C5620     1.0  0.81087  0.52765  0.92085  1.0000
  H   H4483     1.0  0.84191  0.96392  0.74932  1.0000
  H   H4484     1.0  0.83522  0.95650  0.85338  1.0000
  H   H4485     1.0  0.87684  0.59360  0.76407  1.0000
  H   H4486     1.0  0.85733  0.64293  0.74055  1.0000
  S   S759      1.0  0.98509  0.58747  0.81883  1.0000
  H   H4487     1.0  0.81081  0.50059  0.78829  1.0000
  C   C5621     1.0  0.84186  0.59298  0.74142  1.0000
  H   H4488     1.0  0.92126  0.50277  0.79505  1.0000
  C   C5622     1.0  0.81837  0.80078  0.66302  1.0000
  C   C5623     1.0  0.86000  0.48808  0.67304  1.0000
  H   H4489     1.0  0.83658  0.69607  0.83939  1.0000
  H   H4490     1.0  0.84422  0.80965  0.64655  1.0000
  H   H4491     1.0  0.79003  0.69504  0.93072  1.0000
  Fe  Fe381     1.0  0.79235  0.85081  0.68251  1.0000
  H   H4492     1.0  0.91893  0.74799  0.84055  1.0000
  C   C5624     1.0  0.79776  0.70235  0.63355  1.0000
  C   C5625     1.0  0.81680  0.69676  0.57557  1.0000
  H   H4493     1.0  0.79275  0.88964  0.79570  1.0000
  C   C5626     1.0  0.86916  0.53815  0.87191  1.0000
  P   P188      1.0  0.87372  0.60928  0.72300  1.0000
  H   H4494     1.0  0.82451  0.73924  0.47799  1.0000
  H   H4495     1.0  0.87860  0.49250  0.64506  1.0000
  H   H4496     1.0  0.83656  0.61852  0.61959  1.0000
  H   H4497     1.0  0.82013  0.69722  0.87756  1.0000
  H   H4498     1.0  0.88708  0.55087  0.69608  1.0000
  C   C5627     1.0  0.80716  0.90743  0.75856  1.0000
  C   C5628     1.0  0.93121  0.68760  0.48372  1.0000
  C   C5629     1.0  0.84702  0.51207  0.87279  1.0000
  H   H4499     1.0  0.89089  0.61973  0.68206  1.0000
  C   C5630     1.0  0.87439  0.65782  0.84341  1.0000
  C   C5631     1.0  0.85102  0.50491  0.82288  1.0000
  H   H4500     1.0  0.80419  0.65318  0.85940  1.0000
  H   H4501     1.0  0.81669  0.65763  0.90836  1.0000
  H   H4502     1.0  0.93069  0.71655  0.83075  1.0000
  H   H4503     1.0  0.79342  0.67906  0.49877  1.0000
  C   C5632     1.0  0.88788  0.66494  0.82773  1.0000
  C   C5633     1.0  0.83004  0.58345  0.75719  1.0000
  H   H4504     1.0  0.79989  0.74893  0.58419  1.0000
  C   C5634     1.0  0.79904  0.50582  0.79925  1.0000
  C   C5635     1.0  0.89528  0.61139  0.72912  1.0000
  C   C5636     1.0  0.89933  0.62939  0.72788  1.0000
  C   C5637     1.0  0.91604  0.63044  0.73302  1.0000
  C   C5638     1.0  0.92897  0.61359  0.73905  1.0000
  C   C5639     1.0  0.92526  0.59566  0.73991  1.0000
  C   C5640     1.0  0.90854  0.59454  0.73487  1.0000
  H   H4505     1.0  0.88987  0.64264  0.72278  1.0000
  H   H4506     1.0  0.91902  0.64433  0.73236  1.0000
  H   H4507     1.0  0.94191  0.61442  0.74301  1.0000
  H   H4508     1.0  0.93531  0.58262  0.74458  1.0000
  H   H4509     1.0  0.81888  0.48947  0.90725  1.0000
  H   H4510     1.0  0.82259  0.73632  0.89366  1.0000
  H   H4511     1.0  0.81720  0.58007  0.75533  1.0000
  C   C5641     1.0  0.84931  0.48562  0.83006  1.0000
  C   C5642     1.0  0.86389  0.59087  0.76180  1.0000
  H   H4512     1.0  0.82699  0.84496  0.55015  1.0000
  C   C5643     1.0  0.93929  0.72128  0.83791  1.0000
  C   C5644     1.0  0.84610  0.97729  0.74836  1.0000
  C   C5645     1.0  0.84508  0.62849  0.85045  1.0000
  C   C5646     1.0  0.79660  0.97189  0.75753  1.0000
  H   H4513     1.0  0.81629  0.61487  0.53766  1.0000
  H   H4514     1.0  0.81550  0.91926  0.77860  1.0000
  H   H4515     1.0  0.96209  0.66067  0.77984  1.0000
  H   H4516     1.0  0.90582  0.58049  0.73567  1.0000
  C   C5647     1.0  0.96309  0.67219  0.80366  1.0000
  H   H4517     1.0  0.91127  0.65255  0.85867  1.0000
  H   H4518     1.0  0.85020  0.63795  0.83715  1.0000
  C   C5648     1.0  0.80723  0.71759  0.62962  1.0000
  C   C5649     1.0  0.85856  0.81966  0.57913  1.0000
  H   H4519     1.0  0.82161  0.68188  0.57412  1.0000
  C   C5650     1.0  0.88979  0.60478  0.68524  1.0000
  H   H4520     1.0  0.87047  0.54966  0.55457  1.0000
  H   H4521     1.0  0.87659  0.56869  0.72240  1.0000
  H   H4522     1.0  0.90181  0.60163  0.65588  1.0000
  H   H4523     1.0  0.85264  0.62438  0.69098  1.0000
  C   C5651     1.0  0.96175  0.67350  0.78467  1.0000
  S   S760      1.0  0.81025  0.60910  0.48867  1.0000
  C   C5652     1.0  0.79118  0.60748  0.55863  1.0000
  C   C5653     1.0  0.91505  0.48960  0.77497  1.0000
  H   H4524     1.0  0.87327  0.81848  0.58019  1.0000
  H   H4525     1.0  0.81560  0.68751  0.54357  1.0000
  C   C5654     1.0  0.80882  0.73265  0.90119  1.0000
  C   C5655     1.0  0.80472  0.73454  0.58121  1.0000
  C   C5656     1.0  0.88189  0.59585  0.70397  1.0000
  H   H4526     1.0  0.83051  0.63789  0.58780  1.0000
  H   H4527     1.0  0.86452  0.50853  0.81468  1.0000
  H   H4528     1.0  0.86055  0.84196  0.55340  1.0000
  C   C5657     1.0  0.79119  0.70330  0.87305  1.0000
  C   C5658     1.0  0.85294  0.55303  0.53402  1.0000
  H   H4529     1.0  0.93804  0.75902  0.85738  1.0000
  P   P189      1.0  0.83868  0.65941  0.86861  1.0000
  C   C5659     1.0  0.84499  0.66000  0.89071  1.0000
  C   C5660     1.0  0.83881  0.63486  0.86799  1.0000
  C   C5661     1.0  0.83185  0.62218  0.88479  1.0000
  C   C5662     1.0  0.83160  0.60339  0.88409  1.0000
  H   H4530     1.0  0.80404  0.89274  0.73774  1.0000
  S   S761      1.0  0.78831  0.56767  0.96672  1.0000
  C   C5663     1.0  0.80562  0.52116  0.96115  1.0000
  C   C5664     1.0  0.86356  0.66178  0.89087  1.0000
  C   C5665     1.0  0.86815  0.66247  0.90801  1.0000
  C   C5666     1.0  0.85431  0.66126  0.92516  1.0000
  C   C5667     1.0  0.83581  0.65956  0.92514  1.0000
  C   C5668     1.0  0.83111  0.65906  0.90800  1.0000
  C   C5669     1.0  0.85579  0.66893  0.84800  1.0000
  C   C5670     1.0  0.85084  0.68724  0.83641  1.0000
  C   C5671     1.0  0.85896  0.59662  0.74357  1.0000
  H   H4531     1.0  0.83788  0.59714  0.72745  1.0000
  H   H4532     1.0  0.82644  0.56933  0.78713  1.0000
  H   H4533     1.0  0.79344  0.67798  0.61085  1.0000
  C   C5672     1.0  0.95960  0.70791  0.77803  1.0000
  H   H4534     1.0  0.85623  0.57647  0.79139  1.0000
  H   H4535     1.0  0.79469  0.84309  0.64109  1.0000
  H   H4536     1.0  0.96461  0.65818  0.81331  1.0000
  H   H4537     1.0  0.82681  0.62657  0.89852  1.0000
  H   H4538     1.0  0.82658  0.59354  0.89718  1.0000
  C   C5673     1.0  0.89612  0.59451  0.67039  1.0000
  C   C5674     1.0  0.82048  0.57174  0.54103  1.0000
  H   H4539     1.0  0.83860  0.58239  0.86631  1.0000
  H   H4540     1.0  0.87476  0.66216  0.87801  1.0000
  H   H4541     1.0  0.88265  0.66328  0.90807  1.0000
  H   H4542     1.0  0.83436  0.73290  0.58151  1.0000
  H   H4543     1.0  0.82517  0.65826  0.93852  1.0000
  C   C5675     1.0  0.80485  0.78975  0.66492  1.0000
  C   C5676     1.0  0.82131  0.97399  0.83030  1.0000
  Fe  Fe382     1.0  0.80553  0.85649  0.71633  1.0000
  H   H4544     1.0  0.94031  0.68019  0.51111  1.0000
  H   H4545     1.0  0.90214  0.65618  0.82423  1.0000
  C   C5677     1.0  0.80724  0.77853  0.65143  1.0000
  C   C5678     1.0  0.96010  0.69132  0.77184  1.0000
  H   H4546     1.0  0.84029  0.52829  0.92087  1.0000
  H   H4547     1.0  0.87769  0.54848  0.87113  1.0000
  H   H4548     1.0  0.82985  0.58565  0.63083  1.0000
  H   H4549     1.0  0.86514  0.96939  0.84049  1.0000
  C   C5679     1.0  0.80627  0.56122  0.86443  1.0000
  H   H4550     1.0  0.80339  0.72789  0.51338  1.0000
  C   C5680     1.0  0.85017  0.54008  0.88241  1.0000
  H   H4551     1.0  0.84417  0.55189  0.88995  1.0000
  C   C5681     1.0  0.86612  0.76889  0.67478  1.0000
  C   C5682     1.0  0.88397  0.76859  0.66219  1.0000
  C   C5683     1.0  0.89671  0.75108  0.66024  1.0000
  C   C5684     1.0  0.89174  0.73375  0.67114  1.0000
  C   C5685     1.0  0.87391  0.73398  0.68410  1.0000
  C   C5686     1.0  0.86106  0.75168  0.68567  1.0000
  P   P190      1.0  0.86781  0.71234  0.70020  1.0000
  C   C5687     1.0  0.84294  0.71397  0.69984  1.0000
  C   C5688     1.0  0.88360  0.69093  0.69295  1.0000
  C   C5689     1.0  0.90185  0.68476  0.69779  1.0000
  C   C5690     1.0  0.91442  0.66826  0.69246  1.0000
  C   C5691     1.0  0.90868  0.65749  0.68265  1.0000
  C   C5692     1.0  0.89050  0.66337  0.67796  1.0000
  C   C5693     1.0  0.87797  0.68004  0.68301  1.0000
  C   C5694     1.0  0.83740  0.71730  0.68210  1.0000
  C   C5695     1.0  0.81794  0.72063  0.68140  1.0000
  C   C5696     1.0  0.80385  0.72093  0.69836  1.0000
  C   C5697     1.0  0.80922  0.71782  0.71603  1.0000
  C   C5698     1.0  0.82868  0.71445  0.71679  1.0000
  C   C5699     1.0  0.87082  0.71169  0.72407  1.0000
  C   C5700     1.0  0.87601  0.72710  0.72811  1.0000
  C   C5701     1.0  0.87908  0.72601  0.74642  1.0000
  C   C5702     1.0  0.87702  0.70955  0.76082  1.0000
  C   C5703     1.0  0.87210  0.69403  0.75687  1.0000
  C   C5704     1.0  0.86908  0.69505  0.73853  1.0000
  H   H4552     1.0  0.85657  0.78256  0.67663  1.0000
  H   H4553     1.0  0.88810  0.78203  0.65442  1.0000
  H   H4554     1.0  0.91070  0.75099  0.65068  1.0000
  H   H4555     1.0  0.90202  0.72038  0.66967  1.0000
  H   H4556     1.0  0.84740  0.75227  0.69586  1.0000
  H   H4557     1.0  0.90644  0.69278  0.70564  1.0000
  H   H4558     1.0  0.92869  0.66394  0.69578  1.0000
  H   H4559     1.0  0.91847  0.64479  0.67830  1.0000
  H   H4560     1.0  0.88639  0.65517  0.66996  1.0000
  H   H4561     1.0  0.86407  0.68427  0.67903  1.0000
  H   H4562     1.0  0.84808  0.71775  0.66872  1.0000
  H   H4563     1.0  0.81387  0.72325  0.66758  1.0000
  H   H4564     1.0  0.83243  0.71276  0.73053  1.0000
  H   H4565     1.0  0.87832  0.73982  0.71713  1.0000
  H   H4566     1.0  0.88364  0.73781  0.74913  1.0000
  H   H4567     1.0  0.87992  0.70857  0.77480  1.0000
  H   H4568     1.0  0.87135  0.68094  0.76783  1.0000
  H   H4569     1.0  0.86585  0.68272  0.73547  1.0000
  C   C5705     1.0  0.85145  0.83290  0.56378  1.0000
  C   C5706     1.0  0.81982  0.61612  0.58129  1.0000
  H   H4570     1.0  0.82978  0.65447  0.68253  1.0000
  C   C5707     1.0  0.82704  0.59414  0.61698  1.0000
  P   P191      1.0  0.80498  0.58804  0.57352  1.0000
  S   S762      1.0  0.80201  0.91949  0.66809  1.0000
  H   H4571     1.0  0.89339  0.68824  0.80382  1.0000
  H   H4572     1.0  0.87844  0.64355  0.85196  1.0000
  C   C5708     1.0  0.94353  0.68656  0.49594  1.0000
  C   C5709     1.0  0.81366  0.89495  0.74556  1.0000
  C   C5710     1.0  0.83282  0.88492  0.74257  1.0000
  C   C5711     1.0  0.84572  0.88748  0.75228  1.0000
  C   C5712     1.0  0.83941  0.89994  0.76519  1.0000
  H   H4573     1.0  0.79420  0.64687  0.63406  1.0000
  C   C5713     1.0  0.83875  0.66274  0.72260  1.0000
  H   H4574     1.0  0.83638  0.53469  0.81989  1.0000
  H   H4575     1.0  0.79573  0.83257  0.61126  1.0000
  C   C5714     1.0  0.83495  0.56101  0.52912  1.0000
  C   C5715     1.0  0.88156  0.57619  0.70789  1.0000
  C   C5716     1.0  0.82627  0.52648  0.92943  1.0000
  S   S763      1.0  0.98201  0.70949  0.66813  1.0000
  C   C5717     1.0  0.79792  0.74304  0.51355  1.0000
  C   C5718     1.0  0.85643  0.55562  0.55094  1.0000
  C   C5719     1.0  0.83504  0.51987  0.82593  1.0000
  H   H4576     1.0  0.85063  0.60458  0.83647  1.0000
  S   S764      1.0  0.82227  0.97708  0.70814  1.0000
  H   H4577     1.0  0.98082  0.70681  0.85516  1.0000
  C   C5720     1.0  0.79186  0.76933  0.52996  1.0000
  C   C5721     1.0  0.83897  0.52699  0.88304  1.0000
  C   C5722     1.0  0.96058  0.69352  0.48854  1.0000
  H   H4578     1.0  0.80745  0.74070  0.53965  1.0000
  H   H4579     1.0  0.83763  0.87503  0.73280  1.0000
  H   H4580     1.0  0.86057  0.87973  0.74978  1.0000
  H   H4581     1.0  0.84942  0.90191  0.77270  1.0000
  Fe  Fe383     1.0  0.98151  0.73692  0.67670  1.0000
  C   C5723     1.0  0.86437  0.69426  0.82057  1.0000
  C   C5724     1.0  0.87214  0.73078  0.48656  1.0000
  C   C5725     1.0  0.85209  0.58123  0.77749  1.0000
  H   H4582     1.0  0.94765  0.64575  0.89827  1.0000
  C   C5726     1.0  0.80968  0.69192  0.87339  1.0000
  S   S765      1.0  0.79708  0.85327  0.74857  1.0000
  H   H4583     1.0  0.81392  0.55098  0.85533  1.0000
  C   C5727     1.0  0.79913  0.58025  0.85591  1.0000
  H   H4584     1.0  0.80475  0.52721  0.83830  1.0000
  C   C5728     1.0  0.94407  0.65189  0.88421  1.0000
  C   C5729     1.0  0.92355  0.65577  0.86187  1.0000
  C   C5730     1.0  0.92825  0.64785  0.87996  1.0000
  C   C5731     1.0  0.79281  0.52559  0.93267  1.0000
  S   S766      1.0  0.80779  0.60236  0.97017  1.0000
  C   C5732     1.0  0.95119  0.67104  0.85178  1.0000
  C   C5733     1.0  0.93486  0.66745  0.84783  1.0000
  P   P192      1.0  0.96548  0.68679  0.83423  1.0000
  C   C5734     1.0  0.95706  0.70975  0.84142  1.0000
  H   H4585     1.0  0.82073  0.68162  0.51097  1.0000
  C   C5735     1.0  0.83099  0.66607  0.70625  1.0000
  H   H4586     1.0  0.96742  0.66685  0.87389  1.0000
  H   H4587     1.0  0.93083  0.67351  0.83398  1.0000
  H   H4588     1.0  0.91966  0.63847  0.89066  1.0000
  H   H4589     1.0  0.97716  0.59145  0.85909  1.0000
  C   C5736     1.0  0.96751  0.71581  0.85148  1.0000
  C   C5737     1.0  0.96070  0.73357  0.85711  1.0000
  C   C5738     1.0  0.94328  0.74524  0.85304  1.0000
  C   C5739     1.0  0.88786  0.56594  0.69302  1.0000
  Fe  Fe384     1.0  0.85408  0.48934  0.75147  1.0000
  H   H4590     1.0  0.83438  0.67326  0.73166  1.0000
  S   S767      1.0  0.80362  0.54210  0.77978  1.0000
  H   H4591     1.0  0.81741  0.62487  0.56748  1.0000
  H   H4592     1.0  0.85316  0.50318  0.67194  1.0000
  C   C5740     1.0  0.80377  0.55547  0.88459  1.0000
  H   H4593     1.0  0.87538  0.67381  0.48105  1.0000
  H   H4594     1.0  0.97008  0.69253  0.49804  1.0000
  H   H4595     1.0  0.92142  0.74016  0.48797  1.0000
  C   C5741     1.0  0.90057  0.76690  0.48447  1.0000
  C   C5742     1.0  0.78997  0.49275  0.81408  1.0000
  H   H4596     1.0  0.83239  0.55935  0.51579  1.0000
  C   C5743     1.0  0.83618  0.65219  0.69493  1.0000
  H   H4597     1.0  0.80621  0.82414  0.57392  1.0000
  C   C5744     1.0  0.79542  0.95444  0.75414  1.0000
  H   H4598     1.0  0.82073  0.67924  0.70245  1.0000
  H   H4599     1.0  0.89769  0.48944  0.82262  1.0000
  C   C5745     1.0  0.80072  0.61802  0.54166  1.0000
  C   C5746     1.0  0.85336  0.97457  0.83287  1.0000
  C   C5747     1.0  0.95534  0.66368  0.87027  1.0000
  C   C5748     1.0  0.79731  0.70576  0.57673  1.0000
  H   H4600     1.0  0.92497  0.49603  0.76276  1.0000
  H   H4601     1.0  0.87165  0.74457  0.47656  1.0000
  S   S768      1.0  0.79409  0.60434  0.93032  1.0000
  C   C5749     1.0  0.78894  0.64907  0.62094  1.0000
  C   C5750     1.0  0.79048  0.70942  0.92208  1.0000
  C   C5751     1.0  0.78955  0.59370  0.86747  1.0000
  C   C5752     1.0  0.78964  0.57225  0.58942  1.0000
  H   H4602     1.0  0.80163  0.49325  0.85109  1.0000
  H   H4603     1.0  0.78878  0.72382  0.69784  1.0000
  H   H4604     1.0  0.79281  0.77472  0.54205  1.0000
  C   C5753     1.0  0.78874  0.66660  0.60767  1.0000
  C   C5754     1.0  0.91409  0.75146  0.47793  1.0000
  H   H4605     1.0  0.79228  0.79038  0.67658  1.0000
  C   C5755     1.0  0.79130  0.72464  0.58003  1.0000
  H   H4606     1.0  0.79248  0.76019  0.88996  1.0000
  C   C5756     1.0  0.79094  0.68229  0.51284  1.0000
  H   H4607     1.0  0.79776  0.64014  0.51619  1.0000
  C   C5757     1.0  0.78795  0.75517  0.49939  1.0000
  H   H4608     1.0  0.85832  0.98045  0.71793  1.0000
  C   C5758     1.0  0.87434  0.48201  0.65788  1.0000
  C   C5759     1.0  0.79715  0.48127  0.89815  1.0000
  C   C5760     1.0  0.83139  0.48158  0.84047  1.0000
