data_image0
_chemical_formula_structural       CH2SC2H2C4HCH3C3HCFeSCHC3H2CHC3HC2PC3H2C2SHCHCH2CH3CFeH2CHC4HC2SHC3HCHSHC2HCH2CHC6H2CH2C2HC2HC2HC2SC2H2CHC2HCHC5H2C2H2CHC3H2PHCH2S2CH2CHCSH2SCH2PCFeHFeC2FeC2HCHSH2CFeC5H4C5HCH4C3HCH2CHCH2C3H2SC6HC2H4CH3S2FeHFe2C5HCS2CFeCHCHCSCSC2H6CHC2SCHC2H2CSC2H3SHC3PCSH2CFeH5C2HCFeSHCH3CHC2HCHC5HCH3CH2C2HCSHCH2SH2SCSC3FeC4H2FeCHC3H3CHCHC2H3C2HFeH3CPSH3CHC2FeSCFeC3HCSCHFeCHCH2C2HCHCHS2H3CHCH2CH3CFeCHCSC5SC3H2CHCHSCFeC4HCSCHCH2SC3HC2HC2H2CHC2H3C2PHCH3CHFeC2SC3HCHCH3CH3CHC3HS2C2HC2HCSC3HFeHCHC3H2SH3CHC3FeC3HCHCHC4HC2HC2PC2H2CHCHC2HC2S2HCHC3H5C2HCPCHC9HC4HC2H4PCHCHC2H3SH4CFeH2C7HSHC2H2PC2HCHCH2CH2C3HC6H2C3H2CH5CHCH2C2H2C2PSC2H4C4H2CSHC3H2CPC2
_chemical_formula_sum              "C360 H288 S48 Fe24 P12"
_cell_length_a       19.7417
_cell_length_b       19.4552
_cell_length_c       27.402
_cell_angle_alpha    90.2691
_cell_angle_beta     86.1285
_cell_angle_gamma    117.418

_space_group_name_H-M_alt    "P 1"
_space_group_IT_number       1

loop_
  _space_group_symop_operation_xyz
  'x, y, z'

loop_
  _atom_site_type_symbol
  _atom_site_label
  _atom_site_symmetry_multiplicity
  _atom_site_fract_x
  _atom_site_fract_y
  _atom_site_fract_z
  _atom_site_occupancy
  C   C1        1.0  0.25913  0.18837  0.71060  1.0000
  H   H1        1.0  0.24540  0.32658  0.66254  1.0000
  H   H2        1.0  0.49585  0.19385  0.66859  1.0000
  S   S1        1.0  0.08134  0.41556  0.75465  1.0000
  C   C2        1.0  0.21116  0.54471  0.62870  1.0000
  C   C3        1.0  0.16920  0.41930  0.73544  1.0000
  H   H3        1.0  0.14665  0.13998  0.74721  1.0000
  H   H4        1.0  0.36632  0.22197  0.67102  1.0000
  C   C4        1.0  0.47799  0.28301  0.54695  1.0000
  C   C5        1.0  0.24312  0.36925  0.68709  1.0000
  C   C6        1.0  0.29163  0.09871  0.66489  1.0000
  C   C7        1.0  0.49991  0.29614  0.74966  1.0000
  H   H5        1.0  0.30545  0.24330  0.59124  1.0000
  C   C8        1.0  0.54093  0.29543  0.62140  1.0000
  H   H6        1.0  0.30604  0.51882  0.62373  1.0000
  H   H7        1.0  0.27563  0.24635  0.72347  1.0000
  H   H8        1.0  0.09896  0.34842  0.59035  1.0000
  C   C9        1.0  0.31718  0.34957  0.55980  1.0000
  C   C10       1.0  0.28089  0.26920  0.56787  1.0000
  C   C11       1.0  0.30789  0.48687  0.73183  1.0000
  H   H9        1.0  0.56650  0.41496  0.72868  1.0000
  C   C12       1.0  0.42704  0.53291  0.53620  1.0000
  Fe  Fe1       1.0  0.49748  0.53149  0.71346  1.0000
  S   S2        1.0  0.39913  0.44125  0.67587  1.0000
  C   C13       1.0  0.26370  0.51696  0.55276  1.0000
  H   H10       1.0  0.11992  0.31497  0.69433  1.0000
  C   C14       1.0  0.49234  0.21734  0.63360  1.0000
  C   C15       1.0  0.17216  0.36266  0.70506  1.0000
  C   C16       1.0  0.23695  0.48123  0.74893  1.0000
  H   H11       1.0  0.36016  0.53496  0.74204  1.0000
  H   H12       1.0  0.38479  0.17239  0.53474  1.0000
  C   C17       1.0  0.31113  0.17385  0.68096  1.0000
  H   H13       1.0  0.45631  0.28802  0.72526  1.0000
  C   C18       1.0  0.31097  0.43123  0.70058  1.0000
  C   C19       1.0  0.53343  0.32838  0.57827  1.0000
  C   C20       1.0  0.26474  0.52663  0.60350  1.0000
  H   H14       1.0  0.36912  0.38454  0.57752  1.0000
  C   C21       1.0  0.43463  0.17209  0.60311  1.0000
  C   C22       1.0  0.18658  0.12836  0.72399  1.0000
  P   P1        1.0  0.35894  0.07983  0.62601  1.0000
  C   C23       1.0  0.21281  0.22282  0.54630  1.0000
  C   C24       1.0  0.28547  0.38387  0.52988  1.0000
  C   C25       1.0  0.42896  0.20508  0.55902  1.0000
  H   H15       1.0  0.49146  0.05185  0.60601  1.0000
  H   H16       1.0  0.18442  0.16076  0.55259  1.0000
  C   C26       1.0  0.56234  0.36883  0.75208  1.0000
  C   C27       1.0  0.15101  0.53778  0.55362  1.0000
  S   S3        1.0  0.41368  0.14499  0.77357  1.0000
  H   H17       1.0  0.23742  0.07879  0.57114  1.0000
  C   C28       1.0  0.16591  0.05360  0.70767  1.0000
  H   H18       1.0  0.23446  0.52470  0.77263  1.0000
  C   C29       1.0  0.20442  0.51980  0.52839  1.0000
  H   H19       1.0  0.10550  0.53948  0.53439  1.0000
  H   H20       1.0  0.07677  0.07993  0.94974  1.0000
  C   C30       1.0  0.32248  0.41567  0.00986  1.0000
  H   H21       1.0  0.33683  0.39450  0.97628  1.0000
  H   H22       1.0  0.54413  0.19862  0.83411  1.0000
  H   H23       1.0  0.25563  0.16685  0.96499  1.0000
  C   C31       1.0  0.21613  0.25442  0.96352  1.0000
  Fe  Fe2       1.0  0.38385  0.06425  0.83781  1.0000
  H   H24       1.0  0.50401  0.26091  0.91108  1.0000
  H   H25       1.0  0.18465  0.34446  0.94683  1.0000
  C   C32       1.0  0.49287  0.23491  0.77922  1.0000
  H   H26       1.0  0.23632  0.23899  0.82180  1.0000
  C   C33       1.0  0.24133  0.20316  0.94269  1.0000
  C   C34       1.0  0.49763  0.41970  0.94493  1.0000
  C   C35       1.0  0.20137  0.30228  0.93210  1.0000
  C   C36       1.0  0.45920  0.24273  0.98646  1.0000
  H   H27       1.0  0.26573  0.15653  0.87600  1.0000
  C   C37       1.0  0.11761  0.54881  0.88547  1.0000
  C   C38       1.0  0.51692  0.26137  0.94892  1.0000
  S   S4        1.0  0.51993  0.51291  0.78987  1.0000
  H   H28       1.0  0.53931  0.43327  0.86928  1.0000
  C   C39       1.0  0.23136  0.24390  0.86117  1.0000
  C   C40       1.0  0.51766  0.43471  0.99321  1.0000
  C   C41       1.0  0.54919  0.24643  0.81146  1.0000
  H   H29       1.0  0.40137  0.22743  0.97781  1.0000
  C   C42       1.0  0.36522  0.49378  0.02011  1.0000
  H   H30       1.0  0.43880  0.38366  0.93696  1.0000
  S   S5        1.0  0.37152  0.09535  0.91528  1.0000
  H   H31       1.0  0.19614  0.33307  0.85731  1.0000
  C   C43       1.0  0.55424  0.44789  0.90656  1.0000
  C   C44       1.0  0.24818  0.19758  0.89182  1.0000
  H   H32       1.0  0.06837  0.24726  0.98310  1.0000
  C   C45       1.0  0.20848  0.29663  0.88128  1.0000
  H   H33       1.0  0.47363  0.41088  0.02289  1.0000
  H   H34       1.0  0.41131  0.53175  0.99427  1.0000
  C   C46       1.0  0.51539  0.44783  0.13852  1.0000
  H   H35       1.0  0.35174  0.22328  0.15843  1.0000
  C   C47       1.0  0.08727  0.20956  0.10157  1.0000
  C   C48       1.0  0.10942  0.23230  0.05201  1.0000
  C   C49       1.0  0.29340  0.24258  0.10029  1.0000
  C   C50       1.0  0.51503  0.37993  0.12124  1.0000
  C   C51       1.0  0.30889  0.44329  0.21555  1.0000
  C   C52       1.0  0.26159  0.36596  0.04243  1.0000
  H   H36       1.0  0.27278  0.49791  0.12820  1.0000
  H   H37       1.0  0.25563  0.43436  0.20164  1.0000
  C   C53       1.0  0.28619  0.11824  0.12077  1.0000
  H   H38       1.0  0.30246  0.08326  0.14311  1.0000
  H   H39       1.0  0.20105  0.35826  0.11292  1.0000
  C   C54       1.0  0.38467  0.38989  0.25030  1.0000
  C   C55       1.0  0.31830  0.37919  0.22903  1.0000
  H   H40       1.0  0.51689  0.24363  0.21424  1.0000
  C   C56       1.0  0.49063  0.18946  0.19539  1.0000
  C   C57       1.0  0.44262  0.46492  0.25687  1.0000
  H   H41       1.0  0.09736  0.54740  0.20775  1.0000
  C   C58       1.0  0.44183  0.12159  0.22240  1.0000
  C   C59       1.0  0.31434  0.19725  0.12912  1.0000
  H   H42       1.0  0.47336  0.46479  0.12758  1.0000
  C   C60       1.0  0.36697  0.51855  0.22201  1.0000
  C   C61       1.0  0.24208  0.20851  0.06375  1.0000
  S   S6        1.0  0.24590  0.28562  0.22107  1.0000
  C   C62       1.0  0.43408  0.52923  0.24244  1.0000
  C   C63       1.0  0.34767  0.52303  0.06310  1.0000
  H   H43       1.0  0.31539  0.30334  0.10815  1.0000
  H   H44       1.0  0.39159  0.34036  0.26153  1.0000
  C   C64       1.0  0.50711  0.18651  0.14497  1.0000
  H   H45       1.0  0.48652  0.11077  0.08343  1.0000
  C   C65       1.0  0.47388  0.11485  0.12207  1.0000
  C   C66       1.0  0.47567  0.24234  0.03515  1.0000
  H   H46       1.0  0.12824  0.21029  0.12633  1.0000
  C   C67       1.0  0.08524  0.41475  0.12298  1.0000
  H   H47       1.0  0.47280  0.34582  0.09656  1.0000
  C   C68       1.0  0.08164  0.44530  0.16876  1.0000
  C   C69       1.0  0.09848  0.52310  0.17218  1.0000
  C   C70       1.0  0.10653  0.46216  0.08064  1.0000
  C   C71       1.0  0.12058  0.53969  0.08368  1.0000
  C   C72       1.0  0.24529  0.39560  0.08598  1.0000
  H   H48       1.0  0.16160  0.10530  0.18242  1.0000
  H   H49       1.0  0.11297  0.43848  0.04583  1.0000
  C   C73       1.0  0.28710  0.47430  0.09555  1.0000
  C   C74       1.0  0.21081  0.12828  0.05768  1.0000
  H   H50       1.0  0.42996  0.22499  0.06350  1.0000
  H   H51       1.0  0.07309  0.35471  0.12049  1.0000
  C   C75       1.0  0.55057  0.26380  0.04703  1.0000
  H   H52       1.0  0.43026  0.12391  0.26146  1.0000
  C   C76       1.0  0.23455  0.08379  0.08495  1.0000
  C   C77       1.0  0.10826  0.05324  0.19061  1.0000
  C   C78       1.0  0.40890  0.05052  0.19930  1.0000
  H   H53       1.0  0.49402  0.47302  0.27336  1.0000
  H   H54       1.0  0.16767  0.09990  0.03193  1.0000
  P   P2        1.0  0.20805  0.26437  0.02949  1.0000
  H   H55       1.0  0.42363  0.36955  0.38036  1.0000
  C   C79       1.0  0.55510  0.32203  0.42256  1.0000
  H   H56       1.0  0.19793  0.50650  0.49003  1.0000
  H   H57       1.0  0.12829  0.22100  0.49979  1.0000
  S   S7        1.0  0.18735  0.10106  0.41213  1.0000
  S   S8        1.0  0.29679  0.15123  0.30814  1.0000
  C   C80       1.0  0.48366  0.31363  0.41113  1.0000
  H   H58       1.0  0.55924  0.27392  0.43919  1.0000
  H   H59       1.0  0.54025  0.49578  0.36481  1.0000
  C   C81       1.0  0.18095  0.25676  0.51665  1.0000
  H   H60       1.0  0.45812  0.46232  0.48729  1.0000
  C   C82       1.0  0.54451  0.44737  0.38096  1.0000
  S   S9        1.0  0.12073  0.12399  0.31186  1.0000
  H   H61       1.0  0.19186  0.36273  0.48578  1.0000
  H   H62       1.0  0.15017  0.33353  0.40824  1.0000
  S   S10       1.0  0.24865  0.27508  0.36351  1.0000
  C   C83       1.0  0.09645  0.33319  0.40286  1.0000
  H   H63       1.0  0.34073  0.40726  0.43178  1.0000
  H   H64       1.0  0.47563  0.05947  0.50097  1.0000
  P   P3        1.0  0.32857  0.48740  0.52044  1.0000
  C   C84       1.0  0.47811  0.50922  0.51280  1.0000
  Fe  Fe3       1.0  0.18127  0.05908  0.33578  1.0000
  H   H65       1.0  0.07034  0.35587  0.50404  1.0000
  Fe  Fe4       1.0  0.23610  0.22001  0.29032  1.0000
  C   C85       1.0  0.47848  0.37604  0.38973  1.0000
  C   C86       1.0  0.34050  0.46060  0.42097  1.0000
  Fe  Fe5       1.0  0.30019  0.19833  0.38348  1.0000
  C   C87       1.0  0.34630  0.54784  0.35633  1.0000
  C   C88       1.0  0.09397  0.40343  0.39679  1.0000
  H   H66       1.0  0.47096  0.30899  0.51408  1.0000
  C   C89       1.0  0.34611  0.47930  0.37120  1.0000
  H   H67       1.0  0.14589  0.45768  0.39779  1.0000
  S   S11       1.0  0.40150  0.22620  0.42720  1.0000
  H   H68       1.0  0.35020  0.44069  0.34398  1.0000
  H   H69       1.0  0.48514  0.07668  0.41101  1.0000
  C   C90       1.0  0.33500  0.51068  0.45619  1.0000
  Fe  Fe6       1.0  0.13550  0.17389  0.38592  1.0000
  C   C91       1.0  0.21704  0.33698  0.50863  1.0000
  C   C92       1.0  0.55587  0.54707  0.52108  1.0000
  C   C93       1.0  0.38219  0.73298  0.61918  1.0000
  C   C94       1.0  0.24571  0.76710  0.70486  1.0000
  C   C95       1.0  0.21814  0.03872  0.67823  1.0000
  H   H70       1.0  0.20148  0.98052  0.66629  1.0000
  H   H71       1.0  0.36083  0.91615  0.76358  1.0000
  H   H72       1.0  0.29294  0.75844  0.71611  1.0000
  H   H73       1.0  0.31283  0.99433  0.72175  1.0000
  C   C96       1.0  0.17504  0.73109  0.73183  1.0000
  C   C97       1.0  0.36130  0.98935  0.70467  1.0000
  C   C98       1.0  0.12518  0.79463  0.67971  1.0000
  C   C99       1.0  0.25594  0.81588  0.66480  1.0000
  C   C100      1.0  0.11396  0.74398  0.71923  1.0000
  H   H74       1.0  0.31108  0.84431  0.64421  1.0000
  C   C101      1.0  0.19602  0.83036  0.65262  1.0000
  H   H75       1.0  0.10952  0.00727  0.71840  1.0000
  H   H76       1.0  0.16822  0.69322  0.76274  1.0000
  H   H77       1.0  0.33797  0.70064  0.64765  1.0000
  H   H78       1.0  0.20479  0.86996  0.62246  1.0000
  C   C102      1.0  0.25238  0.03581  0.55592  1.0000
  C   C103      1.0  0.30924  0.02266  0.57566  1.0000
  C   C104      1.0  0.36294  0.73625  0.57139  1.0000
  H   H79       1.0  0.30370  0.70638  0.56279  1.0000
  C   C105      1.0  0.32952  0.96851  0.55382  1.0000
  H   H80       1.0  0.10876  0.79927  0.56626  1.0000
  H   H81       1.0  0.21402  0.76372  0.55869  1.0000
  C   C106      1.0  0.17192  0.74511  0.53179  1.0000
  H   H82       1.0  0.41807  0.61578  0.58573  1.0000
  C   C107      1.0  0.11275  0.76592  0.53565  1.0000
  H   H83       1.0  0.07555  0.58960  0.70448  1.0000
  H   H84       1.0  0.07981  0.80707  0.66995  1.0000
  C   C108      1.0  0.42030  0.77678  0.53449  1.0000
  C   C109      1.0  0.53286  0.63174  0.57715  1.0000
  C   C110      1.0  0.38875  0.94516  0.72888  1.0000
  H   H85       1.0  0.37375  0.95757  0.56738  1.0000
  H   H86       1.0  0.51089  0.96562  0.53838  1.0000
  S   S12       1.0  0.52755  0.65650  0.72434  1.0000
  C   C111      1.0  0.39717  0.02736  0.65974  1.0000
  C   C112      1.0  0.45522  0.59497  0.56814  1.0000
  C   C113      1.0  0.45171  0.93790  0.70841  1.0000
  C   C114      1.0  0.45879  0.76989  0.63009  1.0000
  C   C115      1.0  0.49759  0.81286  0.54502  1.0000
  C   C116      1.0  0.48803  0.97568  0.66382  1.0000
  H   H87       1.0  0.47353  0.76681  0.66715  1.0000
  C   C117      1.0  0.46178  0.02143  0.64000  1.0000
  C   C118      1.0  0.51646  0.80932  0.59310  1.0000
  H   H88       1.0  0.53761  0.97080  0.64837  1.0000
  H   H89       1.0  0.47273  0.90377  0.72761  1.0000
  H   H90       1.0  0.55434  0.67891  0.60238  1.0000
  H   H91       1.0  0.11303  0.56426  0.62312  1.0000
  C   C119      1.0  0.15489  0.55109  0.60365  1.0000
  H   H92       1.0  0.21226  0.55208  0.66791  1.0000
  H   H93       1.0  0.14425  0.80555  0.90520  1.0000
  H   H94       1.0  0.31336  0.65590  0.79481  1.0000
  S   S13       1.0  0.28449  0.77776  0.83315  1.0000
  S   S14       1.0  0.30982  0.91262  0.94424  1.0000
  Fe  Fe7       1.0  0.42334  0.01822  0.93250  1.0000
  H   H95       1.0  0.17886  0.86797  0.01103  1.0000
  Fe  Fe8       1.0  0.56138  0.63941  0.79845  1.0000
  Fe  Fe9       1.0  0.25931  0.98810  0.92149  1.0000
  C   C120      1.0  0.25311  0.64575  0.02505  1.0000
  C   C121      1.0  0.41271  0.66619  0.82894  1.0000
  C   C122      1.0  0.35282  0.74862  0.84562  1.0000
  C   C123      1.0  0.10137  0.99362  0.91495  1.0000
  C   C124      1.0  0.29247  0.62320  0.98909  1.0000
  H   H96       1.0  0.50557  0.79846  0.91367  1.0000
  C   C125      1.0  0.14565  0.58768  0.92841  1.0000
  S   S15       1.0  0.50371  0.04751  0.99189  1.0000
  S   S16       1.0  0.44288  0.99355  0.85416  1.0000
  C   C126      1.0  0.41352  0.71892  0.01608  1.0000
  Fe  Fe10      1.0  0.32407  0.89480  0.86443  1.0000
  C   C127      1.0  0.16757  0.75302  0.02070  1.0000
  H   H97       1.0  0.14614  0.57504  0.85019  1.0000
  C   C128      1.0  0.46751  0.70735  0.86190  1.0000
  H   H98       1.0  0.13074  0.80660  0.81636  1.0000
  C   C129      1.0  0.35511  0.68678  0.82083  1.0000
  S   S17       1.0  0.15517  0.98727  0.96110  1.0000
  C   C130      1.0  0.46389  0.76772  0.88765  1.0000
  S   S18       1.0  0.54125  0.68406  0.87012  1.0000
  C   C131      1.0  0.09298  0.75544  0.83846  1.0000
  C   C132      1.0  0.09514  0.95099  0.87300  1.0000
  H   H99       1.0  0.40242  0.64418  0.95577  1.0000
  H   H100      1.0  0.22490  0.76956  0.00497  1.0000
  H   H101      1.0  0.40447  0.83589  0.89912  1.0000
  H   H102      1.0  0.19529  0.64438  0.92549  1.0000
  H   H103      1.0  0.41456  0.61824  0.80997  1.0000
  H   H104      1.0  0.11567  0.90848  0.87171  1.0000
  C   C133      1.0  0.10046  0.75531  0.88878  1.0000
  H   H105      1.0  0.26226  0.57701  0.96461  1.0000
  C   C134      1.0  0.40665  0.78867  0.87938  1.0000
  C   C135      1.0  0.37233  0.66064  0.98423  1.0000
  S   S19       1.0  0.26704  0.96382  0.84189  1.0000
  C   C136      1.0  0.11056  0.55324  0.97441  1.0000
  H   H106      1.0  0.47524  0.74788  0.01172  1.0000
  C   C137      1.0  0.07088  0.04585  0.91757  1.0000
  C   C138      1.0  0.14137  0.80873  0.02312  1.0000
  H   H107      1.0  0.56657  0.61015  0.96945  1.0000
  H   H108      1.0  0.21152  0.02218  0.07895  1.0000
  C   C139      1.0  0.54810  0.62456  0.04669  1.0000
  S   S20       1.0  0.33943  0.83234  0.16706  1.0000
  C   C140      1.0  0.11944  0.67659  0.03759  1.0000
  C   C141      1.0  0.23964  0.79315  0.18030  1.0000
  H   H109      1.0  0.35972  0.56813  0.21146  1.0000
  H   H110      1.0  0.40642  0.78308  0.07908  1.0000
  H   H111      1.0  0.38036  0.58361  0.07132  1.0000
  S   S21       1.0  0.50858  0.62229  0.24954  1.0000
  H   H112      1.0  0.26595  0.71930  0.08710  1.0000
  C   C142      1.0  0.19807  0.81594  0.15078  1.0000
  C   C143      1.0  0.42478  0.04731  0.14912  1.0000
  C   C144      1.0  0.11841  0.78372  0.15898  1.0000
  P   P4        1.0  0.14997  0.60258  0.02977  1.0000
  C   C145      1.0  0.07900  0.72651  0.19554  1.0000
  S   S22       1.0  0.52004  0.81919  0.21285  1.0000
  H   H113      1.0  0.13112  0.63043  0.13350  1.0000
  H   H114      1.0  0.08721  0.80330  0.13693  1.0000
  C   C146      1.0  0.20068  0.73830  0.21845  1.0000
  Fe  Fe11      1.0  0.40367  0.81356  0.22580  1.0000
  H   H115      1.0  0.15680  0.97522  0.17589  1.0000
  H   H116      1.0  0.47795  0.93170  0.09519  1.0000
  H   H117      1.0  0.39906  0.99224  0.13119  1.0000
  H   H118      1.0  0.22755  0.85894  0.12165  1.0000
  H   H119      1.0  0.09065  0.66154  0.25495  1.0000
  C   C147      1.0  0.12036  0.70445  0.22582  1.0000
  C   C148      1.0  0.10561  0.98033  0.18698  1.0000
  H   H120      1.0  0.23186  0.72126  0.24216  1.0000
  C   C149      1.0  0.37488  0.73884  0.05360  1.0000
  Fe  Fe12      1.0  0.47149  0.71410  0.26276  1.0000
  S   S23       1.0  0.35340  0.70376  0.27141  1.0000
  H   H121      1.0  0.53226  0.88107  0.03002  1.0000
  C   C150      1.0  0.53763  0.94460  0.09453  1.0000
  H   H122      1.0  0.37125  0.99776  0.22024  1.0000
  H   H123      1.0  0.51744  0.56309  0.05539  1.0000
  H   H124      1.0  0.55770  0.01010  0.15986  1.0000
  C   C151      1.0  0.29495  0.70231  0.05817  1.0000
  H   H125      1.0  0.53604  0.65712  0.12088  1.0000
  C   C152      1.0  0.55896  0.67756  0.08362  1.0000
  C   C153      1.0  0.11751  0.57004  0.12989  1.0000
  H   H126      1.0  0.20623  0.90867  0.46349  1.0000
  C   C154      1.0  0.34236  0.59859  0.39114  1.0000
  H   H127      1.0  0.34947  0.94031  0.40252  1.0000
  C   C155      1.0  0.12301  0.67680  0.45809  1.0000
  C   C156      1.0  0.52790  0.71797  0.45597  1.0000
  C   C157      1.0  0.33773  0.58078  0.44091  1.0000
  C   C158      1.0  0.52922  0.99502  0.39752  1.0000
  C   C159      1.0  0.29765  0.90476  0.38505  1.0000
  H   H128      1.0  0.27478  0.00023  0.36891  1.0000
  C   C160      1.0  0.53977  0.66638  0.42507  1.0000
  H   H129      1.0  0.30963  0.88742  0.49565  1.0000
  H   H130      1.0  0.34295  0.65178  0.37937  1.0000
  H   H131      1.0  0.12716  0.64238  0.42784  1.0000
  C   C161      1.0  0.29290  0.92800  0.51325  1.0000
  H   H132      1.0  0.47884  0.69520  0.48210  1.0000
  H   H133      1.0  0.49940  0.60534  0.42670  1.0000
  C   C162      1.0  0.55094  0.94323  0.41829  1.0000
  C   C163      1.0  0.25566  0.93872  0.36572  1.0000
  H   H134      1.0  0.53473  0.00384  0.35815  1.0000
  C   C164      1.0  0.17759  0.70145  0.49261  1.0000
  S   S24       1.0  0.50722  0.78179  0.33067  1.0000
  H   H135      1.0  0.11442  0.77827  0.31919  1.0000
  C   C165      1.0  0.54485  0.93205  0.46921  1.0000
  H   H136      1.0  0.17384  0.00711  0.49955  1.0000
  H   H137      1.0  0.33583  0.62163  0.46723  1.0000
  S   S25       1.0  0.32751  0.78350  0.40317  1.0000
  H   H138      1.0  0.40466  0.77917  0.49751  1.0000
  H   H139      1.0  0.22449  0.68700  0.48845  1.0000
  S   S26       1.0  0.43871  0.89229  0.28923  1.0000
  C   C166      1.0  0.21585  0.99505  0.51553  1.0000
  S   S27       1.0  0.13391  0.93346  0.32017  1.0000
  C   C167      1.0  0.51664  0.97368  0.49900  1.0000
  C   C168      1.0  0.49615  0.02638  0.47811  1.0000
  C   C169      1.0  0.20770  0.77993  0.35667  1.0000
  Fe  Fe13      1.0  0.39487  0.78309  0.33443  1.0000
  C   C170      1.0  0.27279  0.82509  0.38143  1.0000
  C   C171      1.0  0.23536  0.94060  0.49456  1.0000
  C   C172      1.0  0.18906  0.89289  0.34246  1.0000
  C   C173      1.0  0.16529  0.81359  0.33781  1.0000
  H   H140      1.0  0.19019  0.71900  0.35170  1.0000
  H   H141      1.0  0.34984  0.56186  0.31783  1.0000
  Fe  Fe14      1.0  0.54967  0.88676  0.28165  1.0000
  C   C174      1.0  0.50183  0.03653  0.42734  1.0000
  H   H142      1.0  0.69769  0.15858  0.58364  1.0000
  C   C175      1.0  0.02755  0.34638  0.53357  1.0000
  C   C176      1.0  0.74193  0.27999  0.60027  1.0000
  C   C177      1.0  0.85617  0.47458  0.73004  1.0000
  H   H143      1.0  0.77631  0.39378  0.62970  1.0000
  H   H144      1.0  0.85367  0.05337  0.67777  1.0000
  H   H145      1.0  0.69716  0.37788  0.55157  1.0000
  C   C178      1.0  0.65012  0.22539  0.68821  1.0000
  H   H146      1.0  0.88293  0.52023  0.61321  1.0000
  C   C179      1.0  0.69641  0.20025  0.60943  1.0000
  H   H147      1.0  0.87102  0.30336  0.63855  1.0000
  C   C180      1.0  0.97602  0.48162  0.69802  1.0000
  C   C181      1.0  0.04329  0.34165  0.58200  1.0000
  H   H148      1.0  0.86877  0.37706  0.70318  1.0000
  H   H149      1.0  0.79578  0.44068  0.73962  1.0000
  H   H150      1.0  0.69288  0.34467  0.70618  1.0000
  C   C182      1.0  0.65082  0.17340  0.65324  1.0000
  C   C183      1.0  0.89745  0.43868  0.70913  1.0000
  H   H151      1.0  0.61549  0.20389  0.72249  1.0000
  Fe  Fe15      1.0  0.63969  0.54684  0.76001  1.0000
  H   H152      1.0  0.58176  0.33143  0.64661  1.0000
  H   H153      1.0  0.00835  0.45357  0.68235  1.0000
  H   H154      1.0  0.61895  0.11204  0.66145  1.0000
  C   C184      1.0  0.91471  0.31799  0.60895  1.0000
  P   P5        1.0  0.80655  0.31448  0.54592  1.0000
  S   S28       1.0  0.95674  0.18907  0.72475  1.0000
  H   H155      1.0  0.99867  0.32258  0.65720  1.0000
  H   H156      1.0  0.56918  0.38946  0.56967  1.0000
  H   H157      1.0  0.76882  0.53006  0.64969  1.0000
  C   C185      1.0  0.89938  0.32559  0.56044  1.0000
  H   H158      1.0  0.77808  0.08795  0.57276  1.0000
  C   C186      1.0  0.69472  0.30477  0.67921  1.0000
  C   C187      1.0  0.98673  0.32720  0.61966  1.0000
  Fe  Fe16      1.0  0.99322  0.29316  0.77163  1.0000
  S   S29       1.0  0.73561  0.09350  0.71299  1.0000
  C   C188      1.0  0.74090  0.33218  0.63557  1.0000
  Fe  Fe17      1.0  0.83794  0.15729  0.75579  1.0000
  C   C189      1.0  0.74788  0.41772  0.52977  1.0000
  C   C190      1.0  0.01505  0.44379  0.93336  1.0000
  C   C191      1.0  0.04278  0.48269  0.97640  1.0000
  H   H159      1.0  0.96446  0.38788  0.93514  1.0000
  C   C192      1.0  0.75989  0.17055  0.95019  1.0000
  S   S30       1.0  0.69211  0.47586  0.78814  1.0000
  C   C193      1.0  0.60181  0.09890  0.97482  1.0000
  H   H160      1.0  0.01150  0.45707  0.01097  1.0000
  Fe  Fe18      1.0  0.88892  0.20295  0.85854  1.0000
  C   C194      1.0  0.59081  0.27859  0.96015  1.0000
  H   H161      1.0  0.67326  0.51383  0.88564  1.0000
  C   C195      1.0  0.62984  0.12387  0.92640  1.0000
  H   H162      1.0  0.80595  0.54361  0.87524  1.0000
  H   H163      1.0  0.77072  0.15424  0.02603  1.0000
  C   C196      1.0  0.59464  0.47741  0.00306  1.0000
  C   C197      1.0  0.80254  0.37731  0.95449  1.0000
  H   H164      1.0  0.83297  0.33796  0.88700  1.0000
  C   C198      1.0  0.65290  0.11115  0.01062  1.0000
  H   H165      1.0  0.03165  0.44605  0.85462  1.0000
  C   C199      1.0  0.82112  0.38197  0.90417  1.0000
  H   H166      1.0  0.65591  0.32987  0.83894  1.0000
  S   S31       1.0  0.87322  0.26759  0.79669  1.0000
  S   S32       1.0  0.01074  0.23406  0.83579  1.0000
  H   H167      1.0  0.83389  0.44386  0.83662  1.0000
  H   H168      1.0  0.59052  0.11467  0.89852  1.0000
  H   H169      1.0  0.93758  0.20858  0.01667  1.0000
  C   C200      1.0  0.61248  0.32024  0.81393  1.0000
  H   H170      1.0  0.66435  0.29026  0.01661  1.0000
  C   C201      1.0  0.80616  0.49839  0.89809  1.0000
  H   H171      1.0  0.01391  0.09819  0.87886  1.0000
  H   H172      1.0  0.76350  0.42370  0.01443  1.0000
  C   C202      1.0  0.60753  0.27945  0.00898  1.0000
  H   H173      1.0  0.63480  0.28994  0.93096  1.0000
  H   H174      1.0  0.73096  0.17752  0.87644  1.0000
  H   H175      1.0  0.79978  0.32940  0.97612  1.0000
  C   C203      1.0  0.78373  0.43193  0.97639  1.0000
  Fe  Fe19      1.0  0.96284  0.12705  0.79150  1.0000
  C   C204      1.0  0.63061  0.49281  0.91614  1.0000
  H   H176      1.0  0.95666  0.07371  0.99097  1.0000
  C   C205      1.0  0.61816  0.38163  0.78447  1.0000
  S   S33       1.0  0.85904  0.21533  0.93692  1.0000
  C   C206      1.0  0.82224  0.44203  0.87593  1.0000
  C   C207      1.0  0.78710  0.49401  0.94873  1.0000
  C   C208      1.0  0.65177  0.50853  0.96440  1.0000
  C   C209      1.0  0.73162  0.14681  0.99841  1.0000
  C   C210      1.0  0.70921  0.15927  0.91394  1.0000
  S   S34       1.0  0.84278  0.09062  0.82035  1.0000
  C   C211      1.0  0.05285  0.47646  0.88796  1.0000
  C   C212      1.0  0.03677  0.05732  0.87714  1.0000
  C   C213      1.0  0.05458  0.23156  0.02151  1.0000
  H   H177      1.0  0.60912  0.48429  0.04069  1.0000
  H   H178      1.0  0.85470  0.53854  0.04337  1.0000
  C   C214      1.0  0.95819  0.18660  0.08960  1.0000
  H   H179      1.0  0.72585  0.40818  0.10301  1.0000
  C   C215      1.0  0.56841  0.49267  0.17138  1.0000
  H   H180      1.0  0.82471  0.19093  0.18667  1.0000
  S   S35       1.0  0.93915  0.48116  0.26170  1.0000
  C   C216      1.0  0.97955  0.20924  0.04043  1.0000
  Fe  Fe20      1.0  0.81148  0.41237  0.27129  1.0000
  C   C217      1.0  0.61697  0.39907  0.17244  1.0000
  C   C218      1.0  0.73313  0.35666  0.10572  1.0000
  C   C219      1.0  0.95469  0.15695  0.27247  1.0000
  C   C220      1.0  0.91700  0.24391  0.23335  1.0000
  H   H181      1.0  0.65485  0.37989  0.18751  1.0000
  C   C221      1.0  0.96242  0.23140  0.26549  1.0000
  S   S36       1.0  0.73708  0.31172  0.22780  1.0000
  C   C222      1.0  0.86330  0.18173  0.20867  1.0000
  H   H182      1.0  0.92057  0.30097  0.22943  1.0000
  C   C223      1.0  0.63242  0.08149  0.25393  1.0000
  H   H183      1.0  0.04859  0.11686  0.21362  1.0000
  H   H184      1.0  0.65511  0.49950  0.21733  1.0000
  S   S37       1.0  0.79310  0.51615  0.26127  1.0000
  C   C224      1.0  0.64923  0.15581  0.23723  1.0000
  C   C225      1.0  0.71125  0.22075  0.25414  1.0000
  C   C226      1.0  0.85577  0.10715  0.21525  1.0000
  H   H185      1.0  0.76199  0.17343  0.11361  1.0000
  C   C227      1.0  0.80720  0.36395  0.10338  1.0000
  C   C228      1.0  0.56816  0.35666  0.13639  1.0000
  H   H186      1.0  0.63123  0.09120  0.04771  1.0000
  C   C229      1.0  0.81780  0.29794  0.10622  1.0000
  C   C230      1.0  0.75431  0.22481  0.11162  1.0000
  H   H187      1.0  0.63210  0.16037  0.11865  1.0000
  H   H188      1.0  0.61437  0.16295  0.21107  1.0000
  C   C231      1.0  0.68036  0.21749  0.11443  1.0000
  H   H189      1.0  0.99626  0.17076  0.15842  1.0000
  C   C232      1.0  0.61750  0.46711  0.18945  1.0000
  C   C233      1.0  0.66905  0.28333  0.11177  1.0000
  H   H190      1.0  0.89986  0.16872  0.10393  1.0000
  H   H191      1.0  0.87507  0.30355  0.10481  1.0000
  H   H192      1.0  0.85629  0.42074  0.10026  1.0000
  C   C234      1.0  0.01215  0.18702  0.12014  1.0000
  C   C235      1.0  0.90244  0.09452  0.24663  1.0000
  P   P6        1.0  0.57337  0.27309  0.11043  1.0000
  H   H193      1.0  0.56922  0.54546  0.18474  1.0000
  C   C236      1.0  0.04337  0.05964  0.20826  1.0000
  H   H194      1.0  0.81237  0.05947  0.19696  1.0000
  H   H195      1.0  0.06700  0.40922  0.20175  1.0000
  H   H196      1.0  0.69676  0.48967  0.51002  1.0000
  C   C237      1.0  0.87268  0.51617  0.46730  1.0000
  H   H197      1.0  0.78748  0.09629  0.44456  1.0000
  Fe  Fe21      1.0  0.79308  0.52347  0.34261  1.0000
  C   C238      1.0  0.76883  0.24536  0.49829  1.0000
  C   C239      1.0  0.87435  0.45414  0.49153  1.0000
  S   S38       1.0  0.69902  0.54395  0.38025  1.0000
  C   C240      1.0  0.67978  0.07194  0.28575  1.0000
  C   C241      1.0  0.81187  0.40400  0.52297  1.0000
  C   C242      1.0  0.95988  0.26315  0.39569  1.0000
  H   H198      1.0  0.80325  0.26165  0.30211  1.0000
  C   C243      1.0  0.80906  0.52932  0.47430  1.0000
  H   H199      1.0  0.63747  0.19131  0.41241  1.0000
  C   C244      1.0  0.68095  0.19061  0.43428  1.0000
  H   H200      1.0  0.92345  0.44446  0.48369  1.0000
  H   H201      1.0  0.77873  0.12960  0.32752  1.0000
  H   H202      1.0  0.98915  0.14815  0.29845  1.0000
  C   C245      1.0  0.74116  0.13684  0.30340  1.0000
  H   H203      1.0  0.84133  0.19081  0.50860  1.0000
  H   H204      1.0  0.90404  0.33315  0.38159  1.0000
  H   H205      1.0  0.68435  0.09424  0.39741  1.0000
  C   C246      1.0  0.95784  0.33336  0.38728  1.0000
  H   H206      1.0  0.59486  0.52954  0.50174  1.0000
  C   C247      1.0  0.76552  0.13705  0.45234  1.0000
  C   C248      1.0  0.02456  0.40367  0.38964  1.0000
  C   C249      1.0  0.61615  0.45523  0.39169  1.0000
  H   H207      1.0  0.94473  0.34042  0.48511  1.0000
  S   S39       1.0  0.03028  0.17657  0.42045  1.0000
  S   S40       1.0  0.80465  0.41511  0.35310  1.0000
  C   C250      1.0  0.62129  0.39223  0.41217  1.0000
  C   C251      1.0  0.75537  0.21154  0.28883  1.0000
  H   H208      1.0  0.68855  0.28547  0.47720  1.0000
  C   C252      1.0  0.95615  0.33837  0.52288  1.0000
  C   C253      1.0  0.74697  0.48064  0.50594  1.0000
  H   H209      1.0  0.90801  0.20891  0.39552  1.0000
  C   C254      1.0  0.70774  0.13636  0.42547  1.0000
  S   S41       1.0  0.02146  0.49221  0.38839  1.0000
  C   C255      1.0  0.79618  0.19130  0.48857  1.0000
  C   C256      1.0  0.02903  0.26318  0.40436  1.0000
  C   C257      1.0  0.71075  0.24448  0.47087  1.0000
  H   H210      1.0  0.67618  0.39788  0.42071  1.0000
  Fe  Fe22      1.0  0.93131  0.49312  0.34318  1.0000
  H   H211      1.0  0.00238  0.27897  0.28602  1.0000
  C   C258      1.0  0.87399  0.81665  0.73275  1.0000
  H   H212      1.0  0.86478  0.02837  0.57167  1.0000
  C   C259      1.0  0.79413  0.63351  0.60771  1.0000
  C   C260      1.0  0.97282  0.59597  0.73160  1.0000
  C   C261      1.0  0.79624  0.93129  0.66451  1.0000
  H   H213      1.0  0.85427  0.76496  0.66275  1.0000
  H   H214      1.0  0.96994  0.61539  0.55102  1.0000
  S   S42       1.0  0.72184  0.77690  0.64524  1.0000
  H   H215      1.0  0.01407  0.92805  0.65245  1.0000
  H   H216      1.0  0.83489  0.73843  0.56486  1.0000
  H   H217      1.0  0.99097  0.80593  0.61216  1.0000
  C   C262      1.0  0.96350  0.74118  0.74563  1.0000
  H   H218      1.0  0.64335  0.63734  0.56023  1.0000
  C   C263      1.0  0.65962  0.86675  0.68478  1.0000
  C   C264      1.0  0.73242  0.00505  0.69604  1.0000
  C   C265      1.0  0.68788  0.99127  0.53943  1.0000
  Fe  Fe23      1.0  0.64661  0.68046  0.69849  1.0000
  C   C266      1.0  0.02878  0.99065  0.58471  1.0000
  C   C267      1.0  0.88207  0.77044  0.69614  1.0000
  C   C268      1.0  0.02951  0.98692  0.53373  1.0000
  H   H219      1.0  0.93160  0.69641  0.67383  1.0000
  C   C269      1.0  0.92618  0.73232  0.70254  1.0000
  H   H220      1.0  0.82010  0.89367  0.54443  1.0000
  C   C270      1.0  0.72614  0.86395  0.66650  1.0000
  H   H221      1.0  0.83985  0.84623  0.72777  1.0000
  C   C271      1.0  0.89322  0.55306  0.74084  1.0000
  C   C272      1.0  0.78391  0.92157  0.54188  1.0000
  C   C273      1.0  0.01537  0.92531  0.61285  1.0000
  C   C274      1.0  0.84480  0.68963  0.57357  1.0000
  H   H222      1.0  0.84804  0.92933  0.65091  1.0000
  C   C275      1.0  0.76006  0.03110  0.55772  1.0000
  C   C276      1.0  0.79950  0.00155  0.67988  1.0000
  H   H223      1.0  0.60572  0.81473  0.68728  1.0000
  C   C277      1.0  0.58320  0.60807  0.55349  1.0000
  C   C278      1.0  0.80889  0.99724  0.55751  1.0000
  P   P7        1.0  0.02199  0.69339  0.75316  1.0000
  C   C279      1.0  0.66246  0.93749  0.69856  1.0000
  C   C280      1.0  0.92155  0.62198  0.56666  1.0000
  H   H224      1.0  0.61088  0.93967  0.71220  1.0000
  H   H225      1.0  0.57556  0.83642  0.60208  1.0000
  C   C281      1.0  0.00189  0.85610  0.59001  1.0000
  H   H226      1.0  0.74583  0.63950  0.62389  1.0000
  C   C282      1.0  0.90841  0.68387  0.55210  1.0000
  H   H227      1.0  0.65195  0.01952  0.53912  1.0000
  C   C283      1.0  0.80757  0.57243  0.62225  1.0000
  C   C284      1.0  0.87169  0.56703  0.60189  1.0000
  H   H228      1.0  0.03844  0.04403  0.60249  1.0000
  C   C285      1.0  0.00102  0.85128  0.53892  1.0000
  C   C286      1.0  0.01398  0.55946  0.71023  1.0000
  S   S43       1.0  0.68273  0.67277  0.77330  1.0000
  S   S44       1.0  0.61460  0.55674  0.68257  1.0000
  H   H229      1.0  0.86013  0.57906  0.75850  1.0000
  C   C287      1.0  0.90961  0.82453  0.77603  1.0000
  H   H230      1.0  0.94734  0.57283  0.83081  1.0000
  C   C288      1.0  0.57629  0.65094  0.99858  1.0000
  C   C289      1.0  0.62688  0.94066  0.93512  1.0000
  C   C290      1.0  0.06408  0.96453  0.83217  1.0000
  H   H231      1.0  0.81882  0.03440  0.98967  1.0000
  H   H232      1.0  0.96160  0.57331  0.91932  1.0000
  H   H233      1.0  0.74274  0.89368  0.83224  1.0000
  H   H234      1.0  0.97905  0.81128  0.94211  1.0000
  H   H235      1.0  0.75630  0.87124  0.91889  1.0000
  C   C291      1.0  0.62023  0.95409  0.88597  1.0000
  C   C292      1.0  0.91975  0.77497  0.93477  1.0000
  H   H236      1.0  0.77858  0.77888  0.87195  1.0000
  C   C293      1.0  0.95380  0.78658  0.78277  1.0000
  P   P8        1.0  0.75228  0.55798  0.97549  1.0000
  C   C294      1.0  0.67493  0.90930  0.94775  1.0000
  H   H237      1.0  0.59442  0.95528  0.96253  1.0000
  C   C295      1.0  0.93997  0.96294  0.01815  1.0000
  C   C296      1.0  0.76659  0.68206  0.91597  1.0000
  C   C297      1.0  0.03673  0.69021  0.81709  1.0000
  C   C298      1.0  0.78291  0.91697  0.01602  1.0000
  C   C299      1.0  0.66134  0.93648  0.84896  1.0000
  C   C300      1.0  0.91521  0.01568  0.00310  1.0000
  C   C301      1.0  0.05178  0.69026  0.91780  1.0000
  C   C302      1.0  0.88283  0.80413  0.90576  1.0000
  C   C303      1.0  0.71015  0.90636  0.86106  1.0000
  H   H238      1.0  0.63807  0.74920  0.95005  1.0000
  C   C304      1.0  0.71749  0.89359  0.91017  1.0000
  C   C305      1.0  0.80679  0.75716  0.89559  1.0000
  C   C306      1.0  0.88020  0.69936  0.95444  1.0000
  C   C307      1.0  0.62817  0.78420  0.02432  1.0000
  H   H239      1.0  0.90946  0.67785  0.97721  1.0000
  C   C308      1.0  0.80317  0.65245  0.94551  1.0000
  C   C309      1.0  0.83703  0.99308  0.00226  1.0000
  H   H240      1.0  0.65621  0.94723  0.81092  1.0000
  H   H241      1.0  0.90382  0.86146  0.80389  1.0000
  H   H242      1.0  0.91339  0.86315  0.89110  1.0000
  H   H243      1.0  0.70710  0.64832  0.90875  1.0000
  P   P9        1.0  0.68252  0.88713  0.01081  1.0000
  C   C310      1.0  0.98969  0.62434  0.84647  1.0000
  H   H244      1.0  0.00070  0.98053  0.01850  1.0000
  C   C311      1.0  0.99719  0.62451  0.89673  1.0000
  H   H245      1.0  0.98063  0.79378  0.81681  1.0000
  C   C312      1.0  0.61670  0.73037  0.98750  1.0000
  C   C313      1.0  0.03502  0.01769  0.83407  1.0000
  H   H246      1.0  0.58287  0.97804  0.87656  1.0000
  H   H247      1.0  0.05681  0.69016  0.95651  1.0000
  H   H248      1.0  0.06421  0.93503  0.79874  1.0000
  S   S45       1.0  0.99770  0.03363  0.78186  1.0000
  H   H249      1.0  0.60575  0.79709  0.10167  1.0000
  H   H250      1.0  0.69348  0.63084  0.04756  1.0000
  H   H251      1.0  0.58401  0.03144  0.24131  1.0000
  H   H252      1.0  0.85372  0.95018  0.15554  1.0000
  C   C314      1.0  0.68540  0.79668  0.19558  1.0000
  Fe  Fe24      1.0  0.92039  0.58613  0.25840  1.0000
  H   H253      1.0  0.96286  0.69914  0.07576  1.0000
  H   H254      1.0  0.04733  0.83232  0.04350  1.0000
  C   C315      1.0  0.88647  0.88698  0.03159  1.0000
  C   C316      1.0  0.65973  0.00563  0.13012  1.0000
  C   C317      1.0  0.74473  0.84822  0.16317  1.0000
  C   C318      1.0  0.97245  0.91988  0.21730  1.0000
  C   C319      1.0  0.81038  0.92420  0.23148  1.0000
  C   C320      1.0  0.69182  0.97858  0.09229  1.0000
  C   C321      1.0  0.04498  0.65706  0.05720  1.0000
  H   H255      1.0  0.92149  0.86766  0.22960  1.0000
  S   S46       1.0  0.97815  0.68195  0.20094  1.0000
  H   H256      1.0  0.71508  0.66088  0.13465  1.0000
  C   C322      1.0  0.59866  0.75706  0.07251  1.0000
  C   C323      1.0  0.68782  0.80941  0.24570  1.0000
  H   H257      1.0  0.64134  0.77002  0.27084  1.0000
  H   H258      1.0  0.74261  0.83852  0.12441  1.0000
  P   P10       1.0  0.89578  0.99952  0.25482  1.0000
  C   C324      1.0  0.79384  0.61342  0.13832  1.0000
  C   C325      1.0  0.80721  0.91172  0.18096  1.0000
  H   H259      1.0  0.90581  0.84580  0.04243  1.0000
  C   C326      1.0  0.97522  0.99301  0.22238  1.0000
  H   H260      1.0  0.69378  0.03863  0.15929  1.0000
  C   C327      1.0  0.74981  0.87302  0.26353  1.0000
  H   H261      1.0  0.03603  0.85745  0.19948  1.0000
  H   H262      1.0  0.63700  0.74705  0.18223  1.0000
  C   C328      1.0  0.56907  0.91668  0.05718  1.0000
  H   H263      1.0  0.80434  0.62767  0.17634  1.0000
  H   H264      1.0  0.75100  0.99082  0.09290  1.0000
  C   C329      1.0  0.03752  0.91376  0.20006  1.0000
  C   C330      1.0  0.74381  0.63228  0.11473  1.0000
  C   C331      1.0  0.73109  0.61437  0.06562  1.0000
  H   H265      1.0  0.00731  0.59890  0.07126  1.0000
  C   C332      1.0  0.64664  0.93410  0.05519  1.0000
  C   C333      1.0  0.83206  0.57787  0.11260  1.0000
  C   C334      1.0  0.01895  0.71302  0.05902  1.0000
  C   C335      1.0  0.06680  0.78852  0.04138  1.0000
  C   C336      1.0  0.82063  0.56137  0.06313  1.0000
  C   C337      1.0  0.76721  0.57619  0.03981  1.0000
  H   H266      1.0  0.76815  0.80392  0.03917  1.0000
  H   H267      1.0  0.87243  0.56548  0.13097  1.0000
  C   C338      1.0  0.58281  0.98899  0.13098  1.0000
  C   C339      1.0  0.80824  0.86367  0.02998  1.0000
  C   C340      1.0  0.64364  0.82397  0.41914  1.0000
  H   H268      1.0  0.70666  0.79200  0.36423  1.0000
  H   H269      1.0  0.84817  0.75540  0.32850  1.0000
  C   C341      1.0  0.06386  0.69744  0.46183  1.0000
  H   H270      1.0  0.57249  0.91241  0.39438  1.0000
  H   H271      1.0  0.80688  0.57566  0.45396  1.0000
  H   H272      1.0  0.91982  0.55218  0.44160  1.0000
  H   H273      1.0  0.98792  0.80551  0.33107  1.0000
  H   H274      1.0  0.61343  0.65272  0.36844  1.0000
  C   C342      1.0  0.60416  0.69310  0.39205  1.0000
  H   H275      1.0  0.04438  0.81178  0.40944  1.0000
  C   C343      1.0  0.93531  0.76016  0.45267  1.0000
  H   H276      1.0  0.99377  0.95668  0.31150  1.0000
  H   H277      1.0  0.68429  0.88489  0.41609  1.0000
  C   C344      1.0  0.82514  0.73243  0.40627  1.0000
  C   C345      1.0  0.05901  0.74348  0.50023  1.0000
  H   H278      1.0  0.02217  0.67692  0.43464  1.0000
  H   H279      1.0  0.81517  0.99604  0.43013  1.0000
  C   C346      1.0  0.84966  0.99707  0.35367  1.0000
  C   C347      1.0  0.85615  0.73331  0.45076  1.0000
  P   P11       1.0  0.97601  0.75951  0.51003  1.0000
  S   S47       1.0  0.91970  0.60254  0.33934  1.0000
  C   C348      1.0  0.95928  0.95878  0.38625  1.0000
  C   C349      1.0  0.57972  0.79743  0.45324  1.0000
  H   H280      1.0  0.00436  0.94733  0.39779  1.0000
  H   H281      1.0  0.76381  0.70905  0.40490  1.0000
  H   H282      1.0  0.01859  0.91605  0.47172  1.0000
  H   H283      1.0  0.91361  0.96445  0.45892  1.0000
  C   C350      1.0  0.89904  0.98483  0.31947  1.0000
  C   C351      1.0  0.87253  0.75824  0.36318  1.0000
  C   C352      1.0  0.95132  0.78631  0.36471  1.0000
  C   C353      1.0  0.85359  0.98746  0.40381  1.0000
  H   H284      1.0  0.80843  0.01421  0.34149  1.0000
  H   H285      1.0  0.74981  0.88227  0.30227  1.0000
  C   C354      1.0  0.90885  0.96898  0.42014  1.0000
  S   S48       1.0  0.66394  0.97894  0.30215  1.0000
  H   H286      1.0  0.81733  0.71103  0.48294  1.0000
  C   C355      1.0  0.98288  0.78856  0.40928  1.0000
  C   C356      1.0  0.65633  0.77178  0.38937  1.0000
  C   C357      1.0  0.95343  0.96497  0.33633  1.0000
  H   H287      1.0  0.04058  0.03778  0.51167  1.0000
  H   H288      1.0  0.69201  0.82119  0.51452  1.0000
  C   C358      1.0  0.01628  0.91764  0.51101  1.0000
  P   P12       1.0  0.57098  0.86402  0.49679  1.0000
  C   C359      1.0  0.71097  0.88064  0.52500  1.0000
  C   C360      1.0  0.66319  0.91604  0.52206  1.0000
