data_image0
_chemical_formula_structural       CHCHC2HC4H2CH2SFeSH2CHC5HC3HC2H2C3HCH2CHCH7S2C5HC3FeH2C2HC3H2C5SC2HPC6H3C5HSPCHC3H2C2HCH4CHC2H2CH3C2H2C2HFeH2C4H6FeS2FeS2FeSFeS4H3SHC2HC4HFeS2FeS2CH2CHSCHSH2C4HSHCHC2H2S2CHCHC2H2C2H2SC12H4C6H4C6H4CHCHC3H3CH4CH4C9PCHC3SHCH2C3PCHC6PC15H17CH2CHSPC12H6CH2SC2H2CHC4PC18H2CH17CHC6H2FeH4CH3C9HCHSCH3CH6C3H2CH2CSH2C2H3C2HPHCHC4H2CHC4H2C2HCSCH2FeHCH4C8H2C2H5C2HC2H4PSC9HFeC6H3C3HCH7CH2CHC2HPH3CHFeHFeC5H3C4H9CHC5HC3HFeS2FeS2FeSFeS4FeS2HSCSHFeSFeCHFeS2FeSCFeCFeS3H2C4HCHCHCHCHC3HC4H2C3HC3HCHCSCH2CHC2HC6H4C6H4C6H5FePH3C6H2FeCH4CSC3H3FeH6C3HCH2SC3PC7HC4HC2H6FeCH3CHC4H2CH2CH5C5PC19HSH15CH2C2HC6HCHCHCSC3HSHC2HCH3CSFeHC2HCHCHC2H2C2HCHPCH5SHC2SCH2C2HC2HCSHSCH3C4H2C6PC16H2CH8CH8C2SC3H2SC2PH2CH2C2H2C2HSC2HCHCH3FeHFeHC2SC2HC8HC2H3SH2CHC3H2SCHC3SHFeCHC2PFeHC3FeCHSC5H3CH2C3H2C2H3C2FeCHCH2CFeC6HFeCPSHCH2CHCSH2C2HPH3CHC5H2C9H4CH2CH4C5HC3H2CHC4H2C6H4C2HCH2C3HPCHPHC3H2C4HC2H2C7H7SHCH2C3H3CSCHCHSC3H2CH2C3H3CH3C3HCHC2SCHCHSCH3CHSHC3PCHCSFeS2CH3CSC2FeS2FeS2FeSFeS3FeS2FeS2FeSFeS3FeS2FeS2FeSFeHS2C6H4C6H4C6H4C7HC5H2C2HC6H4PC3SC2HC8H4C2HC3HC2H2SC2HCPH2C2H4C5PC18H18C2HCH2CHSC2H3C3HCH6CH2CH3CH3C3HFeC4HC2H6C2PCSHPHC7H2C5H5C4H2C3H3CH3C2H2C3HCH2C3H4C3FeC4HC3FeCHCSCHCHC2SH2C2H2CHCS2C3HSH4CSHCHC3HCHCHC2HFeHC3PC3H2C2H2CFeC2HFeSH2CSCHCHC6PCH2CH2C3HCHCHCH2C4HPC2H6Fe2CHC3H7CHCH2C3HC4H2C3HCH2CHCHC3SFeS2FeSHCSH2C2FeCSC4SHFeS2PCH3FeS3HC8H4C5SC3HC3HCH3C3HC2HSC7H4CHFeHC2HCH2C2H2CHC3H4C2HC2HC4H7FeHC5H2C2HCHC2HCH7C3SCSHPC2PC4H2PC2HC4H2C3HCHC4HCHC2HCPC2HC2H3C5H2CH2CHCH2CHCH3C2H2C2H3C2HC3H2C3HC2H3CH7CH2CHCPC8HC3HC2SCHCHC4HC3H3CH3CHCHC2HCH6C2FeHC2HFeCHC3H3CHC2HC2HCHC2HC4SCH2SCHCH3CH2C3PC2HCHCPHC3H3CHC4SHCHC2SH2CPC6H4C3SCSCH3CHCSC6H4CHFeCHCHFeH2C6HCH3C2HCHCH3CFeCHC6H2C2H3CH3CHC3H2C2PC2H3C3HC10HC3HCHC2HC2H3CH9C5H3C2HSCSHCH2CSH2C4HCH3C3HCHCH3FeS2FeSPFe2CSHCSCSFeSCFeSFeSFeSFeSFeSFeS3FeS2FeS2FeSFeS3C2HSC2H4C6H4CSHFe2HC6H4CHC4S2H2C3HPHCH2CHSHSC4HC6H4CHCHC2HC4H2C5FeHCHFeCH2CSCH6CHC7SH4C2HCH2CH3C5FeC2HCH2C2SCHCH2SCFeH2CSH2C2H4CHC3HC2HCHC7PC15HSH9CH3PCH2SH2C8SPC9HC8HCH10CHPH5C7HCHCH4CSC2H3CHSH2CH3CHC17HCH7C4H2CPSC6HFeCHC2HSCHS2CHFeHC2H4CHFeHCHC2H2CH4C2HCH2C3H4CH2C2H4C2SHC2HCH2PC4HC2H3C2HCH3SC4HC3H4CHCHC3HCHCHC3HC7H7FeS2CHS2FeSFeS2FeS2FeS2FeSFeS3H4CHCHC3HC6H4C3H2C6H4C6H2FeHC6H4CH3CSH2SC3HPC18PCH9C4HC3HC6H3CHC2HC3HC2HCHSCH3CHCHCPHCHC2H2CSHC2HCHC3H2SC7FeCSFeH6C2H3C2HSHC2SC7H3C4H2C2H2FeHFeCHFeCSHCHC3PC8H2C6H7C2H3C2HC3PC12H3C2HC3H14C3H2CH3SH3C3HCHSH5C2HC4H2CHCHC2HCH2CH4C2HCFePC3H2SC2HC2H2C2H3SCSHCFeCH2C3HC3HCPHFeH2CH2CHCHCH2FeH2CH5CHCPCHC2H2CH2SHSFeS2CH2CHCSC3H5CHC2H3FeHSFe2SHSCHCHC4SH2C4HSC2H2SHCHSHSC4H5CH2C2SC2SHCHC2H2C6H5C5HC3FeCHCHCHC2H2CH4FeCH2CHSC3SHC2FeCHSCH2CHCFeC2SC2H2C2H2C2H2C6PCHC2H2C2SC9H6CHCHC4H6C11H5CH4CHS2H2CH2C2H3P2CFe2HC5H2CHFeSC6PC11H2CHCH8CHC3FeHC5HC2H2SHCHFeCHCHC4H2SCPHCH3C2HC5HSHCH2PC2H3C3FeCSH2C2H2C2H2C2HC2HC3HC3SCHC2HCH2S2CSHPHFeS2FeSHFeSFeS3PCFeHCSFeSCSCFeS2H2SFeSFeS2C2HCHC3FeH2C3HCFeCHC5HFeC6SH4CH3C6H3CH2CHC2PHSC2HSH3C2HSHCHCH2CH3CHCH3C2HFeCH2C2H2SC3HC2HC2HSH2CH2CH2CH3CHFeHC3HC2H2C2HCHSCH4C2FeH2SH2CHC8HCFeCHC2H2CH2C2HC7HC7H5CHCH4C6PC18H20C2HCH2C3HC4HC5SC2HCH2PHCSH2C5HC3SCFeSCFeSFeS2CSHSCFeSHFeSFeSHSFeS2FeSCFeSFeS3FeS2FeS2C8H6CHC6HCH2CHC5H3C6H2CHC6H4CHC3HCHCHCHC10PC2H2C2HCHC7HC2H2CH4CHCH2SH2CHSHC2PC8H2C10H8C2H2CH2C3HCH2C3HCHCH2CFeC2HCHPCH3C2H4C3HCH3C2FeC2HCH5SHC2H5C4HC2HCHC4HC2HPC2HCSHCHC5H2C3HCH4C3H4C4H2CH2C2HCH2C2H3CPC2HFePCH2CH2C3PCHCHCHCH2CSHCHC2HCH3CHC3H4C4SC4HC2H2SHC5HCHCHFeCFeHSC2H2CH2SPSHC2HCHC3HC2H3CHC6HC3HC6H4CHCH4CSC2HCH3C2HCH2C5H2CH2SH2C2H7C2HCHCH2PCHC2HCHC2SHC5HC3H2C2H3CH2CHFeSH2C4HCHCHC2PH3C2FeHCSC3HCSCHFeS2Fe2S3FeS2FeS2FeSFeS3FeSFeS2FeCFeS3FeS2FeS2FeSFeS3PHCHC2HC2HC2H3C3H3C5HC3H2CHC5H3C6H4C6H4C6H4C6H4C4H4CH5C3H2CHCH2C3HSHC8PC18H20CH2C4H2C2HC2FeHC2HCH2PCHCHPC12PSCH10C5HC2HCH2CH2CHC2HCH2CHC2HC3H3C3HCHC2H2C6PC10HC7H11CHCH4CH2PH2CHCHC4HCHC2HC2HC2H2CH2C4H2CHC3HCFeC3SCH2CHC2H2C6H2CH4C2H2SHC2HC3SH4CHSC2H3C2H3CHSCHCH2CH2C4SC3SHC3HC2FeCH3C2SC2HCHC4H3CH2C2H3CHCHCH6C2H2CH2FeS2CH3PCHFeS2FeS2FeSFeS3FeS2HSFe2CSHFeS2FeS2CHSC2HC7H4CH2C8H5CHCHPH2CH2C5H3C6H5C6H4SCH3C3H2C2HC2H2C2HC2HC4H2C2HCHC3HCSCFeCSH3C3H2CH4CH5CH3CHC2PC4HC3HC9H2CHC3HCH2C3H6C6PC2H2CH2C11H3C3PC2H11SHCHCH2C7H2C4H3CHC2H3CHCH3C3HC2H3C4SC7H2CH3C2HSH3C2HSHSFeC9PC18H20CPH2C2HC2HC2HFeCHC2H4C3SHC3PC4HCH3C3HC4H2CH2C2HCH2CHC4H2CH3C6H2CHCHC5HCH2C2HC3H2CHC2HC3HCHCHC3HC2HCHC2H4C5HC2H3PH2CHC2H4C4H5C3H2CPC2H3SC2HCHC3HC5H4C4HPCHC2H3C2HC3SHCH2C3H3CH8C3HCH2C6HC2HSC2PC6H3C2H4C2SCH3C2HCH2CH2C3H5C2H4CH2CHC4H2C3H2
_chemical_formula_sum              "C2880 H2304 S384 Fe192 P96"
_cell_length_a       54.656
_cell_length_b       54.2487
_cell_length_c       71.6824
_cell_angle_alpha    81.2728
_cell_angle_beta     81.0239
_cell_angle_gamma    106.682

_space_group_name_H-M_alt    "P 1"
_space_group_IT_number       1

loop_
  _space_group_symop_operation_xyz
  'x, y, z'

loop_
  _atom_site_type_symbol
  _atom_site_label
  _atom_site_symmetry_multiplicity
  _atom_site_fract_x
  _atom_site_fract_y
  _atom_site_fract_z
  _atom_site_occupancy
  C   C1        1.0  0.40777  0.04659  0.14335  1.0000
  H   H1        1.0  0.42173  0.03274  0.21367  1.0000
  C   C2        1.0  0.46012  0.06612  0.05424  1.0000
  H   H2        1.0  0.38049  0.07970  0.17285  1.0000
  C   C3        1.0  0.45446  0.48515  0.07242  1.0000
  C   C4        1.0  0.39154  0.42165  0.22944  1.0000
  H   H3        1.0  0.02677  0.45538  0.21150  1.0000
  C   C5        1.0  0.46615  0.06172  0.02083  1.0000
  C   C6        1.0  0.40495  0.99736  0.20348  1.0000
  C   C7        1.0  0.45453  0.01487  0.16676  1.0000
  C   C8        1.0  0.43188  0.15091  0.06462  1.0000
  H   H4        1.0  0.42358  0.44639  0.16309  1.0000
  H   H5        1.0  0.43861  0.44209  0.98808  1.0000
  C   C9        1.0  0.36166  0.05926  0.15281  1.0000
  H   H6        1.0  0.38956  0.45416  0.18729  1.0000
  H   H7        1.0  0.27928  0.43073  0.21184  1.0000
  S   S1        1.0  0.46695  0.18500  0.18765  1.0000
  Fe  Fe1       1.0  0.42143  0.08802  0.21747  1.0000
  S   S2        1.0  0.38419  0.06160  0.21221  1.0000
  H   H8        1.0  0.34379  0.06390  0.15672  1.0000
  H   H9        1.0  0.34741  0.02420  0.19812  1.0000
  C   C10       1.0  0.46840  0.07786  0.03447  1.0000
  H   H10       1.0  0.46987  0.31283  0.11152  1.0000
  C   C11       1.0  0.36353  0.01678  0.19963  1.0000
  C   C12       1.0  0.38459  0.03133  0.20645  1.0000
  C   C13       1.0  0.40542  0.02165  0.20834  1.0000
  C   C14       1.0  0.46806  0.17827  0.12498  1.0000
  C   C15       1.0  0.46838  0.01464  0.18156  1.0000
  H   H11       1.0  0.45155  0.25405  0.15735  1.0000
  C   C16       1.0  0.46839  0.26107  0.14546  1.0000
  C   C17       1.0  0.12390  0.47053  0.21345  1.0000
  C   C18       1.0  0.45001  0.16025  0.15918  1.0000
  H   H12       1.0  0.04792  0.42296  0.22384  1.0000
  C   C19       1.0  0.43171  0.31529  0.20154  1.0000
  C   C20       1.0  0.47186  0.30505  0.19353  1.0000
  H   H13       1.0  0.43665  0.14466  0.17062  1.0000
  H   H14       1.0  0.43823  0.14074  0.13642  1.0000
  C   C21       1.0  0.03504  0.46050  0.18062  1.0000
  C   C22       1.0  0.47428  0.33920  0.13137  1.0000
  C   C23       1.0  0.47871  0.36535  0.13356  1.0000
  H   H15       1.0  0.44694  0.48635  0.10260  1.0000
  C   C24       1.0  0.45473  0.03885  0.15602  1.0000
  H   H16       1.0  0.43884  0.28089  0.21586  1.0000
  H   H17       1.0  0.44337  0.99623  0.16414  1.0000
  C   C25       1.0  0.46184  0.39632  0.15970  1.0000
  H   H18       1.0  0.42447  0.42597  0.20695  1.0000
  C   C26       1.0  0.06811  0.47339  0.19951  1.0000
  H   H19       1.0  0.46147  0.07813  0.06505  1.0000
  H   H20       1.0  0.42067  0.06851  0.16494  1.0000
  H   H21       1.0  0.45269  0.19977  0.99013  1.0000
  H   H22       1.0  0.34788  0.03711  0.13192  1.0000
  H   H23       1.0  0.40620  0.40687  0.14967  1.0000
  H   H24       1.0  0.39668  0.98965  0.15186  1.0000
  H   H25       1.0  0.34921  0.45890  0.20541  1.0000
  S   S3        1.0  0.46987  0.17490  0.10090  1.0000
  S   S4        1.0  0.45735  0.10899  0.19427  1.0000
  C   C27       1.0  0.32519  0.40824  0.22928  1.0000
  C   C28       1.0  0.45947  0.06650  0.11727  1.0000
  C   C29       1.0  0.46913  0.06250  0.16027  1.0000
  C   C30       1.0  0.98891  0.48282  0.22723  1.0000
  C   C31       1.0  0.44178  0.33821  0.18710  1.0000
  H   H26       1.0  0.00232  0.46400  0.14552  1.0000
  C   C32       1.0  0.47298  0.33291  0.11327  1.0000
  C   C33       1.0  0.36398  0.04415  0.13889  1.0000
  C   C34       1.0  0.98774  0.46017  0.13678  1.0000
  Fe  Fe2       1.0  0.45685  0.14475  0.20621  1.0000
  H   H27       1.0  0.42615  0.09470  0.04787  1.0000
  H   H28       1.0  0.46619  0.18493  0.05749  1.0000
  C   C35       1.0  0.45745  0.43648  0.16868  1.0000
  C   C36       1.0  0.46012  0.13291  0.99695  1.0000
  H   H29       1.0  0.46073  0.12383  0.08928  1.0000
  C   C37       1.0  0.45077  0.15813  0.13983  1.0000
  C   C38       1.0  0.43537  0.11420  0.05013  1.0000
  C   C39       1.0  0.42064  0.12551  0.06184  1.0000
  H   H30       1.0  0.99376  0.42381  0.13212  1.0000
  H   H31       1.0  0.30412  0.39963  0.20674  1.0000
  C   C40       1.0  0.30718  0.41100  0.21785  1.0000
  C   C41       1.0  0.46167  0.12809  0.04144  1.0000
  C   C42       1.0  0.05425  0.47005  0.16361  1.0000
  C   C43       1.0  0.47132  0.41861  0.16744  1.0000
  C   C44       1.0  0.45763  0.16519  0.05539  1.0000
  S   S5        1.0  0.41902  0.12478  0.22738  1.0000
  C   C45       1.0  0.38481  0.47211  0.18375  1.0000
  C   C46       1.0  0.08724  0.48341  0.18231  1.0000
  H   H32       1.0  0.44294  0.02989  0.07548  1.0000
  P   P1        1.0  0.07596  0.47912  0.22238  1.0000
  C   C47       1.0  0.43399  0.43225  0.16233  1.0000
  C   C48       1.0  0.45574  0.03435  0.02688  1.0000
  C   C49       1.0  0.43814  0.39210  0.15343  1.0000
  C   C50       1.0  0.47247  0.15394  0.04377  1.0000
  C   C51       1.0  0.46699  0.34465  0.17573  1.0000
  C   C52       1.0  0.44840  0.00410  0.11409  1.0000
  H   H33       1.0  0.44646  0.24624  0.12475  1.0000
  H   H34       1.0  0.40052  0.11461  0.06878  1.0000
  H   H35       1.0  0.38858  0.02655  0.12306  1.0000
  C   C53       1.0  0.36208  0.47474  0.19400  1.0000
  C   C54       1.0  0.43117  0.00835  0.12903  1.0000
  C   C55       1.0  0.46549  0.25666  0.12709  1.0000
  C   C56       1.0  0.38236  0.06821  0.16189  1.0000
  C   C57       1.0  0.98292  0.43735  0.12923  1.0000
  H   H36       1.0  0.45387  0.02199  0.01629  1.0000
  S   S6        1.0  0.45737  0.48017  0.20407  1.0000
  P   P2        1.0  0.43795  0.03972  0.13629  1.0000
  C   C58       1.0  0.40525  0.06176  0.15733  1.0000
  H   H37       1.0  0.43060  0.37518  0.14723  1.0000
  C   C59       1.0  0.42426  0.41000  0.15478  1.0000
  C   C60       1.0  0.04193  0.46234  0.19846  1.0000
  C   C61       1.0  0.38702  0.03801  0.13404  1.0000
  H   H38       1.0  0.41223  0.31038  0.21026  1.0000
  H   H39       1.0  0.42983  0.35076  0.18491  1.0000
  C   C62       1.0  0.41189  0.41396  0.22040  1.0000
  C   C63       1.0  0.44671  0.29869  0.20472  1.0000
  H   H40       1.0  0.42071  0.15961  0.07395  1.0000
  C   C64       1.0  0.08034  0.48152  0.16446  1.0000
  H   H41       1.0  0.16100  0.46395  0.20627  1.0000
  H   H42       1.0  0.46542  0.01993  0.10588  1.0000
  H   H43       1.0  0.42976  0.08416  0.11132  1.0000
  H   H44       1.0  0.44051  0.46570  0.07441  1.0000
  C   C65       1.0  0.29310  0.42845  0.22075  1.0000
  H   H45       1.0  0.99498  0.47619  0.21437  1.0000
  C   C66       1.0  0.41698  0.39173  0.22925  1.0000
  C   C67       1.0  0.44963  0.03877  0.06023  1.0000
  H   H46       1.0  0.38868  0.43964  0.22281  1.0000
  H   H47       1.0  0.47216  0.07012  0.00552  1.0000
  C   C68       1.0  0.44745  0.02288  0.04656  1.0000
  H   H48       1.0  0.46769  0.99609  0.19005  1.0000
  H   H49       1.0  0.43915  0.00168  0.05120  1.0000
  H   H50       1.0  0.01473  0.45200  0.18007  1.0000
  C   C69       1.0  0.36344  0.99294  0.19435  1.0000
  C   C70       1.0  0.11053  0.48627  0.22148  1.0000
  H   H51       1.0  0.11357  0.45403  0.20781  1.0000
  H   H52       1.0  0.04894  0.46904  0.14974  1.0000
  C   C71       1.0  0.45026  0.08583  0.10819  1.0000
  C   C72       1.0  0.46778  0.10846  0.09565  1.0000
  H   H53       1.0  0.44491  0.13428  0.00798  1.0000
  Fe  Fe3       1.0  0.47940  0.10117  0.21725  1.0000
  H   H54       1.0  0.33574  0.39447  0.22702  1.0000
  H   H55       1.0  0.28718  0.00038  0.22437  1.0000
  C   C73       1.0  0.46639  0.18262  0.16363  1.0000
  C   C74       1.0  0.15073  0.47604  0.21263  1.0000
  C   C75       1.0  0.47350  0.20409  0.98522  1.0000
  C   C76       1.0  0.47576  0.35253  0.09733  1.0000
  H   H56       1.0  0.47187  0.32355  0.14346  1.0000
  H   H57       1.0  0.47444  0.34756  0.08338  1.0000
  H   H58       1.0  0.42074  0.98966  0.20517  1.0000
  H   H59       1.0  0.46528  0.45398  0.17419  1.0000
  H   H60       1.0  0.43346  0.38649  0.22259  1.0000
  H   H61       1.0  0.46957  0.08132  0.15229  1.0000
  Fe  Fe4       1.0  0.19531  0.19997  0.44384  1.0000
  S   S7        1.0  0.22206  0.21088  0.41485  1.0000
  S   S8        1.0  0.21224  0.19865  0.47041  1.0000
  Fe  Fe5       1.0  0.14642  0.18905  0.42698  1.0000
  S   S9        1.0  0.16938  0.19983  0.39649  1.0000
  S   S10       1.0  0.10246  0.17272  0.43588  1.0000
  Fe  Fe6       1.0  0.19335  0.17633  0.40817  1.0000
  S   S11       1.0  0.20687  0.14760  0.39315  1.0000
  Fe  Fe7       1.0  0.19579  0.23346  0.40617  1.0000
  S   S12       1.0  0.21234  0.27441  0.38756  1.0000
  S   S13       1.0  0.16885  0.16326  0.43805  1.0000
  S   S14       1.0  0.17055  0.22469  0.43583  1.0000
  S   S15       1.0  0.11965  0.03771  0.40402  1.0000
  H   H62       1.0  0.07111  0.47216  0.26420  1.0000
  H   H63       1.0  0.32396  0.02005  0.23951  1.0000
  H   H64       1.0  0.02579  0.38537  0.25093  1.0000
  S   S16       1.0  0.03513  0.20454  0.37770  1.0000
  H   H65       1.0  0.43030  0.42192  0.26083  1.0000
  C   C77       1.0  0.37163  0.41124  0.42317  1.0000
  C   C78       1.0  0.39106  0.41281  0.43388  1.0000
  H   H66       1.0  0.03108  0.26494  0.35040  1.0000
  C   C79       1.0  0.47036  0.42355  0.25916  1.0000
  C   C80       1.0  0.46293  0.04650  0.30843  1.0000
  C   C81       1.0  0.04634  0.36912  0.42424  1.0000
  C   C82       1.0  0.06578  0.21435  0.48184  1.0000
  H   H67       1.0  0.99648  0.07629  0.45570  1.0000
  Fe  Fe8       1.0  0.35307  0.37089  0.36652  1.0000
  S   S17       1.0  0.34470  0.38479  0.33800  1.0000
  S   S18       1.0  0.33140  0.33188  0.38704  1.0000
  Fe  Fe9       1.0  0.34926  0.42339  0.34683  1.0000
  S   S19       1.0  0.31821  0.44284  0.34485  1.0000
  S   S20       1.0  0.35427  0.40823  0.37637  1.0000
  C   C83       1.0  0.02557  0.27882  0.37681  1.0000
  H   H68       1.0  0.14496  0.09706  0.35996  1.0000
  H   H69       1.0  0.03651  0.20327  0.44662  1.0000
  C   C84       1.0  0.38518  0.39717  0.45238  1.0000
  H   H70       1.0  0.33485  0.25406  0.31173  1.0000
  S   S21       1.0  0.42893  0.00459  0.37098  1.0000
  C   C85       1.0  0.47637  0.38592  0.35028  1.0000
  H   H71       1.0  0.00863  0.14408  0.34171  1.0000
  S   S22       1.0  0.43532  0.11681  0.27897  1.0000
  H   H72       1.0  0.35558  0.36800  0.47454  1.0000
  H   H73       1.0  0.03042  0.29421  0.46828  1.0000
  C   C86       1.0  0.40937  0.08776  0.28885  1.0000
  C   C87       1.0  0.40759  0.07309  0.30710  1.0000
  C   C88       1.0  0.37150  0.05412  0.28479  1.0000
  C   C89       1.0  0.39121  0.07830  0.27777  1.0000
  H   H74       1.0  0.42178  0.08009  0.31554  1.0000
  S   S23       1.0  0.98123  0.33895  0.31933  1.0000
  H   H75       1.0  0.36439  0.29327  0.28819  1.0000
  C   C90       1.0  0.02654  0.04381  0.38568  1.0000
  H   H76       1.0  0.04774  0.30978  0.32960  1.0000
  C   C91       1.0  0.34042  0.48032  0.31110  1.0000
  C   C92       1.0  0.03303  0.00205  0.39665  1.0000
  H   H77       1.0  0.33378  0.00775  0.41115  1.0000
  H   H78       1.0  0.00582  0.15107  0.37501  1.0000
  S   S24       1.0  0.98669  0.43494  0.24766  1.0000
  S   S25       1.0  0.16670  0.00525  0.42271  1.0000
  C   C93       1.0  0.46003  0.00232  0.36253  1.0000
  H   H79       1.0  0.09154  0.34360  0.43961  1.0000
  C   C94       1.0  0.26137  0.06521  0.44460  1.0000
  H   H80       1.0  0.21574  0.01947  0.47610  1.0000
  C   C95       1.0  0.10626  0.09452  0.37405  1.0000
  C   C96       1.0  0.37035  0.03904  0.30270  1.0000
  H   H81       1.0  0.43570  0.47513  0.40707  1.0000
  H   H82       1.0  0.37631  0.42356  0.40889  1.0000
  C   C97       1.0  0.46736  0.99728  0.34421  1.0000
  C   C98       1.0  0.43504  0.47643  0.37700  1.0000
  H   H83       1.0  0.13532  0.16934  0.37203  1.0000
  H   H84       1.0  0.34554  0.28266  0.46153  1.0000
  S   S26       1.0  0.40221  0.39254  0.29835  1.0000
  C   C99       1.0  0.08122  0.02386  0.48069  1.0000
  C   C100      1.0  0.38827  0.04852  0.31394  1.0000
  C   C101      1.0  0.34028  0.37782  0.44929  1.0000
  C   C102      1.0  0.09038  0.10808  0.38216  1.0000
  C   C103      1.0  0.99614  0.38389  0.35022  1.0000
  C   C104      1.0  0.20953  0.12811  0.47231  1.0000
  C   C105      1.0  0.24513  0.29110  0.38784  1.0000
  C   C106      1.0  0.26015  0.31213  0.37261  1.0000
  C   C107      1.0  0.28661  0.32498  0.37224  1.0000
  C   C108      1.0  0.29803  0.31716  0.38730  1.0000
  C   C109      1.0  0.28271  0.29689  0.40287  1.0000
  C   C110      1.0  0.25644  0.28370  0.40307  1.0000
  H   H85       1.0  0.25140  0.31822  0.36095  1.0000
  H   H86       1.0  0.29814  0.34081  0.36029  1.0000
  H   H87       1.0  0.29119  0.29144  0.41488  1.0000
  H   H88       1.0  0.24484  0.26809  0.41517  1.0000
  C   C111      1.0  0.18297  0.11644  0.39773  1.0000
  C   C112      1.0  0.15722  0.11260  0.40692  1.0000
  C   C113      1.0  0.13802  0.08809  0.40936  1.0000
  C   C114      1.0  0.14447  0.06729  0.40273  1.0000
  C   C115      1.0  0.17038  0.07083  0.39415  1.0000
  C   C116      1.0  0.18955  0.09543  0.39154  1.0000
  H   H89       1.0  0.15182  0.12876  0.41147  1.0000
  H   H90       1.0  0.11801  0.08542  0.41599  1.0000
  H   H91       1.0  0.17544  0.05487  0.38892  1.0000
  H   H92       1.0  0.20938  0.09820  0.38444  1.0000
  C   C117      1.0  0.08416  0.18018  0.41893  1.0000
  C   C118      1.0  0.09627  0.19608  0.40066  1.0000
  C   C119      1.0  0.08108  0.20284  0.38785  1.0000
  C   C120      1.0  0.05372  0.19396  0.39331  1.0000
  C   C121      1.0  0.04168  0.17769  0.41146  1.0000
  C   C122      1.0  0.05683  0.17063  0.42414  1.0000
  H   H93       1.0  0.11731  0.20352  0.39648  1.0000
  H   H94       1.0  0.09054  0.21546  0.37384  1.0000
  H   H95       1.0  0.02072  0.17117  0.41603  1.0000
  H   H96       1.0  0.04728  0.15827  0.43820  1.0000
  C   C123      1.0  0.13255  0.10785  0.36550  1.0000
  H   H97       1.0  0.43066  0.01160  0.26385  1.0000
  C   C124      1.0  0.20902  0.24787  0.47234  1.0000
  H   H98       1.0  0.43654  0.45619  0.28662  1.0000
  C   C125      1.0  0.47485  0.02394  0.28352  1.0000
  C   C126      1.0  0.05248  0.01459  0.40572  1.0000
  C   C127      1.0  0.04681  0.05668  0.39414  1.0000
  H   H99       1.0  0.20642  0.24963  0.45764  1.0000
  H   H100      1.0  0.28577  0.45624  0.23779  1.0000
  H   H101      1.0  0.08837  0.99850  0.46123  1.0000
  C   C128      1.0  0.34637  0.39379  0.43074  1.0000
  H   H102      1.0  0.06687  0.23183  0.41669  1.0000
  H   H103      1.0  0.08885  0.14620  0.38681  1.0000
  H   H104      1.0  0.37107  0.37444  0.27075  1.0000
  H   H105      1.0  0.38753  0.03682  0.32776  1.0000
  C   C129      1.0  0.31701  0.48702  0.28552  1.0000
  H   H106      1.0  0.01521  0.34901  0.41165  1.0000
  H   H107      1.0  0.40023  0.39856  0.46075  1.0000
  H   H108      1.0  0.47161  0.13037  0.31449  1.0000
  H   H109      1.0  0.02555  0.12819  0.39784  1.0000
  C   C130      1.0  0.26186  0.02154  0.31973  1.0000
  C   C131      1.0  0.04437  0.32929  0.35347  1.0000
  C   C132      1.0  0.03873  0.32448  0.41906  1.0000
  C   C133      1.0  0.26718  0.37434  0.45070  1.0000
  C   C134      1.0  0.28129  0.27577  0.46393  1.0000
  C   C135      1.0  0.30391  0.26870  0.46377  1.0000
  C   C136      1.0  0.11416  0.06700  0.47395  1.0000
  C   C137      1.0  0.30650  0.32174  0.46070  1.0000
  C   C138      1.0  0.28249  0.30210  0.46248  1.0000
  P   P3        1.0  0.30751  0.35562  0.45968  1.0000
  C   C139      1.0  0.38139  0.38490  0.25631  1.0000
  H   H110      1.0  0.44751  0.38526  0.31243  1.0000
  C   C140      1.0  0.35989  0.37982  0.46010  1.0000
  C   C141      1.0  0.05059  0.23731  0.42333  1.0000
  C   C142      1.0  0.46974  0.09327  0.33200  1.0000
  S   S27       1.0  0.21975  0.99754  0.38207  1.0000
  H   H111      1.0  0.26274  0.26080  0.46529  1.0000
  C   C143      1.0  0.98493  0.35931  0.36269  1.0000
  H   H112      1.0  0.26458  0.30706  0.46283  1.0000
  H   H113      1.0  0.27759  0.46086  0.29057  1.0000
  C   C144      1.0  0.02888  0.01656  0.46225  1.0000
  C   C145      1.0  0.12856  0.06014  0.45887  1.0000
  C   C146      1.0  0.03348  0.22123  0.44015  1.0000
  P   P4        1.0  0.09158  0.24486  0.47963  1.0000
  C   C147      1.0  0.25116  0.14830  0.42808  1.0000
  H   H114      1.0  0.07402  0.05115  0.41195  1.0000
  C   C148      1.0  0.24155  0.26176  0.34612  1.0000
  C   C149      1.0  0.22259  0.23703  0.35260  1.0000
  C   C150      1.0  0.22988  0.21505  0.35888  1.0000
  C   C151      1.0  0.25613  0.21777  0.35872  1.0000
  C   C152      1.0  0.27538  0.24255  0.35197  1.0000
  C   C153      1.0  0.26783  0.26460  0.34594  1.0000
  P   P5        1.0  0.30912  0.24619  0.35260  1.0000
  C   C154      1.0  0.31619  0.21728  0.34679  1.0000
  C   C155      1.0  0.33012  0.27492  0.33488  1.0000
  C   C156      1.0  0.35398  0.32177  0.32643  1.0000
  C   C157      1.0  0.33691  0.29974  0.33984  1.0000
  C   C158      1.0  0.33340  0.20715  0.35572  1.0000
  C   C159      1.0  0.33863  0.18471  0.35117  1.0000
  C   C160      1.0  0.32694  0.17239  0.33757  1.0000
  C   C161      1.0  0.30992  0.18241  0.32855  1.0000
  C   C162      1.0  0.30455  0.20475  0.33311  1.0000
  C   C163      1.0  0.31463  0.24988  0.37638  1.0000
  C   C164      1.0  0.29372  0.24093  0.39245  1.0000
  C   C165      1.0  0.29814  0.24314  0.41091  1.0000
  C   C166      1.0  0.32337  0.25514  0.41336  1.0000
  C   C167      1.0  0.34426  0.26444  0.39742  1.0000
  C   C168      1.0  0.33998  0.26160  0.37902  1.0000
  H   H115      1.0  0.23564  0.27891  0.34207  1.0000
  H   H116      1.0  0.20215  0.23512  0.35337  1.0000
  H   H117      1.0  0.21509  0.19597  0.36430  1.0000
  H   H118      1.0  0.26123  0.20058  0.36419  1.0000
  H   H119      1.0  0.28201  0.28410  0.34156  1.0000
  H   H120      1.0  0.35982  0.34070  0.33048  1.0000
  H   H121      1.0  0.32927  0.30214  0.35411  1.0000
  H   H122      1.0  0.34287  0.21651  0.36614  1.0000
  H   H123      1.0  0.35185  0.17691  0.35812  1.0000
  H   H124      1.0  0.33108  0.15510  0.33397  1.0000
  H   H125      1.0  0.30085  0.17284  0.31800  1.0000
  H   H126      1.0  0.29139  0.21231  0.32589  1.0000
  H   H127      1.0  0.27394  0.23248  0.39080  1.0000
  H   H128      1.0  0.28177  0.23652  0.42318  1.0000
  H   H129      1.0  0.32663  0.25791  0.42750  1.0000
  H   H130      1.0  0.36368  0.27452  0.39922  1.0000
  H   H131      1.0  0.35640  0.26907  0.36682  1.0000
  C   C169      1.0  0.41312  0.99538  0.26493  1.0000
  H   H132      1.0  0.99166  0.34299  0.35992  1.0000
  H   H133      1.0  0.37715  0.33669  0.29758  1.0000
  C   C170      1.0  0.36385  0.31946  0.30785  1.0000
  H   H134      1.0  0.07906  0.38429  0.43724  1.0000
  S   S28       1.0  0.42515  0.44183  0.38028  1.0000
  P   P6        1.0  0.01922  0.29641  0.41136  1.0000
  C   C171      1.0  0.02482  0.26706  0.42281  1.0000
  C   C172      1.0  0.02818  0.30083  0.38539  1.0000
  C   C173      1.0  0.03736  0.32611  0.37353  1.0000
  C   C174      1.0  0.00808  0.25115  0.43996  1.0000
  C   C175      1.0  0.01235  0.22825  0.44853  1.0000
  C   C176      1.0  0.04642  0.26019  0.41474  1.0000
  C   C177      1.0  0.40171  0.37718  0.24720  1.0000
  C   C178      1.0  0.25036  0.37019  0.42157  1.0000
  C   C179      1.0  0.31838  0.45987  0.32188  1.0000
  C   C180      1.0  0.02659  0.12433  0.38341  1.0000
  C   C181      1.0  0.07492  0.34478  0.43343  1.0000
  C   C182      1.0  0.06053  0.32330  0.42684  1.0000
  H   H135      1.0  0.22402  0.14721  0.46643  1.0000
  H   H136      1.0  0.46635  0.44505  0.34916  1.0000
  H   H137      1.0  0.29867  0.01942  0.30530  1.0000
  H   H138      1.0  0.09873  0.07362  0.37457  1.0000
  H   H139      1.0  0.00460  0.00680  0.37994  1.0000
  H   H140      1.0  0.03907  0.34341  0.37961  1.0000
  C   C183      1.0  0.05177  0.16929  0.47739  1.0000
  H   H141      1.0  0.99914  0.21584  0.46162  1.0000
  H   H142      1.0  0.05990  0.27227  0.40165  1.0000
  S   S29       1.0  0.39649  0.38334  0.35543  1.0000
  C   C184      1.0  0.12723  0.14848  0.37251  1.0000
  C   C185      1.0  0.98673  0.40467  0.35325  1.0000
  H   H143      1.0  0.06280  0.00341  0.41336  1.0000
  H   H144      1.0  0.06643  0.30582  0.42804  1.0000
  C   C186      1.0  0.24959  0.03180  0.33382  1.0000
  H   H145      1.0  0.39384  0.00058  0.29178  1.0000
  C   C187      1.0  0.29509  0.46648  0.29630  1.0000
  C   C188      1.0  0.30385  0.04365  0.32633  1.0000
  C   C189      1.0  0.29190  0.05533  0.33964  1.0000
  C   C190      1.0  0.26451  0.04854  0.34382  1.0000
  P   P7        1.0  0.31142  0.07645  0.35268  1.0000
  C   C191      1.0  0.29318  0.09550  0.36346  1.0000
  C   C192      1.0  0.31899  0.05516  0.37123  1.0000
  C   C193      1.0  0.34479  0.05536  0.37106  1.0000
  C   C194      1.0  0.35016  0.03893  0.38580  1.0000
  C   C195      1.0  0.32978  0.02151  0.40033  1.0000
  C   C196      1.0  0.30407  0.02094  0.40039  1.0000
  C   C197      1.0  0.29866  0.03765  0.38589  1.0000
  C   C198      1.0  0.28031  0.10900  0.35224  1.0000
  C   C199      1.0  0.26615  0.12387  0.36043  1.0000
  C   C200      1.0  0.26512  0.12566  0.37973  1.0000
  C   C201      1.0  0.27822  0.11266  0.39089  1.0000
  C   C202      1.0  0.29234  0.09774  0.38280  1.0000
  C   C203      1.0  0.34067  0.10061  0.33757  1.0000
  C   C204      1.0  0.34615  0.10360  0.31738  1.0000
  C   C205      1.0  0.36937  0.12192  0.30624  1.0000
  C   C206      1.0  0.38687  0.13799  0.31502  1.0000
  C   C207      1.0  0.38094  0.13612  0.33498  1.0000
  C   C208      1.0  0.35802  0.11740  0.34623  1.0000
  H   H146      1.0  0.23926  0.02594  0.41385  1.0000
  H   H147      1.0  0.25500  0.17874  0.40373  1.0000
  C   C209      1.0  0.26822  0.35751  0.41565  1.0000
  H   H148      1.0  0.32471  0.04700  0.32391  1.0000
  H   H149      1.0  0.25445  0.05533  0.35521  1.0000
  H   H150      1.0  0.36069  0.06749  0.35934  1.0000
  H   H151      1.0  0.36998  0.03864  0.38543  1.0000
  H   H152      1.0  0.46952  0.00864  0.27541  1.0000
  H   H153      1.0  0.28820  0.00675  0.41125  1.0000
  H   H154      1.0  0.27852  0.03646  0.38584  1.0000
  H   H155      1.0  0.28093  0.10769  0.33724  1.0000
  H   H156      1.0  0.25563  0.13375  0.35194  1.0000
  H   H157      1.0  0.25383  0.13682  0.38613  1.0000
  H   H158      1.0  0.27705  0.11379  0.40592  1.0000
  H   H159      1.0  0.30234  0.08788  0.39176  1.0000
  H   H160      1.0  0.33288  0.09188  0.31002  1.0000
  H   H161      1.0  0.37411  0.12329  0.29076  1.0000
  H   H162      1.0  0.26867  0.35103  0.40206  1.0000
  H   H163      1.0  0.39435  0.14885  0.34175  1.0000
  H   H164      1.0  0.35389  0.11579  0.36173  1.0000
  C   C210      1.0  0.04830  0.42588  0.23837  1.0000
  H   H165      1.0  0.40654  0.36083  0.25459  1.0000
  C   C211      1.0  0.37343  0.47341  0.25099  1.0000
  C   C212      1.0  0.03181  0.34761  0.41774  1.0000
  C   C213      1.0  0.43917  0.11727  0.33851  1.0000
  C   C214      1.0  0.42492  0.09749  0.35464  1.0000
  C   C215      1.0  0.43325  0.07578  0.35961  1.0000
  C   C216      1.0  0.45571  0.07384  0.34845  1.0000
  H   H166      1.0  0.09652  0.14685  0.48270  1.0000
  H   H167      1.0  0.47640  0.43410  0.24431  1.0000
  Fe  Fe10      1.0  0.39703  0.42234  0.36289  1.0000
  H   H168      1.0  0.35780  0.04670  0.27600  1.0000
  H   H169      1.0  0.43277  0.13400  0.33442  1.0000
  H   H170      1.0  0.40735  0.09883  0.36316  1.0000
  H   H171      1.0  0.41065  0.42617  0.42771  1.0000
  C   C217      1.0  0.46827  0.46416  0.30150  1.0000
  H   H172      1.0  0.29938  0.34344  0.42234  1.0000
  H   H173      1.0  0.30271  0.24821  0.46515  1.0000
  H   H174      1.0  0.44790  0.04823  0.31939  1.0000
  C   C218      1.0  0.32926  0.31447  0.46023  1.0000
  C   C219      1.0  0.24982  0.37858  0.43910  1.0000
  C   C220      1.0  0.04894  0.43172  0.27640  1.0000
  C   C221      1.0  0.11396  0.25608  0.45643  1.0000
  C   C222      1.0  0.13697  0.27727  0.45398  1.0000
  C   C223      1.0  0.15427  0.28677  0.43601  1.0000
  C   C224      1.0  0.14850  0.27551  0.42028  1.0000
  C   C225      1.0  0.12549  0.25463  0.42256  1.0000
  C   C226      1.0  0.10830  0.24487  0.44057  1.0000
  H   H175      1.0  0.16369  0.14482  0.35886  1.0000
  C   C227      1.0  0.10093  0.13526  0.38098  1.0000
  H   H176      1.0  0.27206  0.03345  0.43455  1.0000
  S   S30       1.0  0.44343  0.07676  0.23946  1.0000
  C   C228      1.0  0.33994  0.27278  0.31608  1.0000
  H   H177      1.0  0.03156  0.09637  0.47222  1.0000
  H   H178      1.0  0.03255  0.11461  0.33051  1.0000
  H   H179      1.0  0.99488  0.42354  0.34328  1.0000
  C   C229      1.0  0.21451  0.10510  0.46874  1.0000
  H   H180      1.0  0.04893  0.43398  0.29115  1.0000
  H   H181      1.0  0.14167  0.28626  0.46603  1.0000
  H   H182      1.0  0.17234  0.30266  0.43429  1.0000
  H   H183      1.0  0.16215  0.28259  0.40644  1.0000
  H   H184      1.0  0.12124  0.24568  0.41043  1.0000
  H   H185      1.0  0.09083  0.22852  0.44202  1.0000
  C   C230      1.0  0.44408  0.41637  0.26850  1.0000
  C   C231      1.0  0.03298  0.28209  0.35681  1.0000
  C   C232      1.0  0.04245  0.30732  0.34514  1.0000
  H   H186      1.0  0.43615  0.01399  0.30078  1.0000
  H   H187      1.0  0.03987  0.03654  0.46260  1.0000
  C   C233      1.0  0.06033  0.45081  0.24197  1.0000
  H   H188      1.0  0.08856  0.11408  0.41975  1.0000
  H   H189      1.0  0.44790  0.39904  0.36690  1.0000
  C   C234      1.0  0.45607  0.02690  0.29783  1.0000
  S   S31       1.0  0.34688  0.00801  0.31048  1.0000
  H   H190      1.0  0.04097  0.38695  0.42314  1.0000
  H   H191      1.0  0.35019  0.45667  0.38214  1.0000
  C   C235      1.0  0.01411  0.01216  0.44809  1.0000
  C   C236      1.0  0.02995  0.99525  0.47557  1.0000
  H   H192      1.0  0.18595  0.99161  0.45913  1.0000
  H   H193      1.0  0.31654  0.45056  0.25839  1.0000
  H   H194      1.0  0.99163  0.25617  0.44671  1.0000
  C   C237      1.0  0.03600  0.40430  0.25372  1.0000
  C   C238      1.0  0.11927  0.03531  0.45458  1.0000
  H   H195      1.0  0.34810  0.32901  0.45858  1.0000
  P   P8        1.0  0.24677  0.10624  0.45754  1.0000
  H   H196      1.0  0.22999  0.14146  0.43052  1.0000
  C   C239      1.0  0.24424  0.08016  0.44430  1.0000
  H   H197      1.0  0.01149  0.38652  0.33782  1.0000
  C   C240      1.0  0.25942  0.04556  0.43378  1.0000
  C   C241      1.0  0.24100  0.04133  0.42211  1.0000
  C   C242      1.0  0.22467  0.05690  0.42114  1.0000
  C   C243      1.0  0.22609  0.07609  0.43229  1.0000
  H   H198      1.0  0.14689  0.07405  0.45044  1.0000
  H   H199      1.0  0.43730  0.48433  0.34631  1.0000
  C   C244      1.0  0.26436  0.13567  0.43958  1.0000
  H   H200      1.0  0.09163  0.19472  0.46953  1.0000
  C   C245      1.0  0.26531  0.16939  0.41278  1.0000
  C   C246      1.0  0.29259  0.17771  0.40871  1.0000
  C   C247      1.0  0.30586  0.16524  0.42009  1.0000
  C   C248      1.0  0.29181  0.14416  0.43539  1.0000
  H   H201      1.0  0.39246  0.08944  0.26365  1.0000
  H   H202      1.0  0.33182  0.39299  0.42202  1.0000
  C   C249      1.0  0.45387  0.39608  0.29763  1.0000
  C   C250      1.0  0.98524  0.29403  0.41824  1.0000
  H   H203      1.0  0.23592  0.38834  0.44371  1.0000
  C   C251      1.0  0.14311  0.13475  0.36490  1.0000
  S   S32       1.0  0.35971  0.99436  0.36207  1.0000
  C   C252      1.0  0.31443  0.43981  0.24686  1.0000
  H   H204      1.0  0.21074  0.05396  0.41182  1.0000
  H   H205      1.0  0.21309  0.08784  0.43140  1.0000
  Fe  Fe11      1.0  0.13292  0.00218  0.40832  1.0000
  H   H206      1.0  0.27614  0.06853  0.45320  1.0000
  C   C253      1.0  0.29553  0.45346  0.31463  1.0000
  H   H207      1.0  0.27830  0.43799  0.32302  1.0000
  H   H208      1.0  0.30346  0.19358  0.39658  1.0000
  H   H209      1.0  0.32701  0.17159  0.41684  1.0000
  H   H210      1.0  0.30235  0.13403  0.44366  1.0000
  C   C254      1.0  0.03973  0.10728  0.37730  1.0000
  C   C255      1.0  0.04849  0.09528  0.41762  1.0000
  C   C256      1.0  0.02256  0.08459  0.42803  1.0000
  C   C257      1.0  0.01647  0.08483  0.44769  1.0000
  C   C258      1.0  0.03622  0.09594  0.45705  1.0000
  C   C259      1.0  0.06210  0.10650  0.44680  1.0000
  C   C260      1.0  0.06828  0.10609  0.42720  1.0000
  C   C261      1.0  0.04216  0.10420  0.35805  1.0000
  H   H211      1.0  0.99586  0.29376  0.33257  1.0000
  H   H212      1.0  0.47238  0.00986  0.38875  1.0000
  C   C262      1.0  0.05905  0.04172  0.40470  1.0000
  C   C263      1.0  0.01540  0.13742  0.37053  1.0000
  H   H213      1.0  0.00716  0.07567  0.42095  1.0000
  H   H214      1.0  0.26713  0.99701  0.35905  1.0000
  H   H215      1.0  0.45978  0.44555  0.31167  1.0000
  H   H216      1.0  0.07753  0.11522  0.45394  1.0000
  H   H217      1.0  0.05317  0.09197  0.35286  1.0000
  C   C264      1.0  0.43576  0.40286  0.28778  1.0000
  C   C265      1.0  0.35671  0.29500  0.30262  1.0000
  H   H218      1.0  0.23699  0.37352  0.41254  1.0000
  C   C266      1.0  0.01724  0.13369  0.35159  1.0000
  C   C267      1.0  0.03068  0.11711  0.34532  1.0000
  H   H219      1.0  0.05643  0.15323  0.47199  1.0000
  H   H220      1.0  0.36936  0.21312  0.47016  1.0000
  H   H221      1.0  0.13040  0.03000  0.44287  1.0000
  H   H222      1.0  0.40207  0.47504  0.29705  1.0000
  P   P9        1.0  0.35109  0.41862  0.25926  1.0000
  S   S33       1.0  0.39223  0.44044  0.33394  1.0000
  C   C268      1.0  0.36898  0.44976  0.26412  1.0000
  C   C269      1.0  0.37984  0.45043  0.28060  1.0000
  C   C270      1.0  0.39436  0.47445  0.28409  1.0000
  C   C271      1.0  0.03609  0.40726  0.27273  1.0000
  C   C272      1.0  0.06783  0.36767  0.43214  1.0000
  C   C273      1.0  0.31624  0.99885  0.24118  1.0000
  C   C274      1.0  0.32793  0.28806  0.46179  1.0000
  C   C275      1.0  0.28556  0.35320  0.42721  1.0000
  C   C276      1.0  0.46497  0.40464  0.35527  1.0000
  H   H223      1.0  0.98533  0.35736  0.44482  1.0000
  Fe  Fe12      1.0  0.38827  0.40028  0.32749  1.0000
  C   C277      1.0  0.32963  0.39620  0.28065  1.0000
  C   C278      1.0  0.31986  0.36914  0.28099  1.0000
  C   C279      1.0  0.30192  0.35207  0.29716  1.0000
  C   C280      1.0  0.29283  0.36204  0.31276  1.0000
  C   C281      1.0  0.30153  0.38907  0.31212  1.0000
  C   C282      1.0  0.31992  0.40606  0.29618  1.0000
  H   H224      1.0  0.36573  0.47365  0.23799  1.0000
  H   H225      1.0  0.01791  0.25903  0.38548  1.0000
  H   H226      1.0  0.37698  0.43244  0.29080  1.0000
  C   C283      1.0  0.04634  0.29295  0.47530  1.0000
  C   C284      1.0  0.28900  0.02757  0.31597  1.0000
  C   C285      1.0  0.29671  0.44281  0.23529  1.0000
  H   H227      1.0  0.32416  0.40005  0.47918  1.0000
  C   C286      1.0  0.98346  0.46636  0.24545  1.0000
  H   H228      1.0  0.20684  0.28651  0.47433  1.0000
  H   H229      1.0  0.46195  0.05689  0.35242  1.0000
  H   H230      1.0  0.32591  0.36128  0.26872  1.0000
  H   H231      1.0  0.29489  0.33116  0.29755  1.0000
  H   H232      1.0  0.27900  0.34891  0.32534  1.0000
  H   H233      1.0  0.29450  0.39691  0.32418  1.0000
  H   H234      1.0  0.32630  0.42694  0.29591  1.0000
  C   C287      1.0  0.26302  0.10392  0.47749  1.0000
  H   H235      1.0  0.02597  0.39060  0.28460  1.0000
  H   H236      1.0  0.01584  0.05454  0.37819  1.0000
  C   C288      1.0  0.28519  0.36162  0.44481  1.0000
  H   H237      1.0  0.42224  0.06014  0.37194  1.0000
  C   C289      1.0  0.01984  0.01660  0.38683  1.0000
  C   C290      1.0  0.45491  0.47013  0.28723  1.0000
  H   H238      1.0  0.01375  0.02861  0.43762  1.0000
  P   P10       1.0  0.05625  0.09175  0.39295  1.0000
  H   H239      1.0  0.40510  0.15169  0.30627  1.0000
  H   H240      1.0  0.26639  0.38092  0.46424  1.0000
  H   H241      1.0  0.05116  0.34878  0.34433  1.0000
  C   C291      1.0  0.07166  0.19296  0.47575  1.0000
  H   H242      1.0  0.22847  0.02616  0.33751  1.0000
  Fe  Fe13      1.0  0.99153  0.19059  0.38928  1.0000
  H   H243      1.0  0.46789  0.36559  0.35788  1.0000
  Fe  Fe14      1.0  0.44386  0.11523  0.24762  1.0000
  C   C292      1.0  0.32936  0.42316  0.24355  1.0000
  C   C293      1.0  0.36083  0.47717  0.38087  1.0000
  C   C294      1.0  0.47784  0.00570  0.37469  1.0000
  C   C295      1.0  0.46143  0.11515  0.32716  1.0000
  C   C296      1.0  0.05868  0.27420  0.47218  1.0000
  H   H244      1.0  0.05252  0.26143  0.46242  1.0000
  H   H245      1.0  0.98856  0.30369  0.44620  1.0000
  H   H246      1.0  0.25034  0.00836  0.31211  1.0000
  C   C297      1.0  0.09549  0.01741  0.46517  1.0000
  C   C298      1.0  0.37592  0.40699  0.24737  1.0000
  C   C299      1.0  0.19614  0.00776  0.48366  1.0000
  C   C300      1.0  0.06127  0.45334  0.26109  1.0000
  H   H247      1.0  0.36949  0.47166  0.40920  1.0000
  H   H248      1.0  0.45364  0.99456  0.33478  1.0000
  H   H249      1.0  0.34397  0.99213  0.25750  1.0000
  H   H250      1.0  0.35608  0.48800  0.35198  1.0000
  H   H251      1.0  0.27695  0.14601  0.47576  1.0000
  H   H252      1.0  0.14440  0.16822  0.47639  1.0000
  H   H253      1.0  0.12128  0.08638  0.47711  1.0000
  H   H254      1.0  0.35794  0.48586  0.31681  1.0000
  H   H255      1.0  0.14199  0.23457  0.47963  1.0000
  C   C301      1.0  0.37135  0.48571  0.39618  1.0000
  H   H256      1.0  0.19948  0.06248  0.47540  1.0000
  C   C302      1.0  0.19567  0.08060  0.47721  1.0000
  C   C303      1.0  0.20956  0.26887  0.48172  1.0000
  C   C304      1.0  0.07804  0.27117  0.48226  1.0000
  C   C305      1.0  0.47552  0.43077  0.34526  1.0000
  C   C306      1.0  0.17926  0.99211  0.47403  1.0000
  H   H257      1.0  0.03742  0.48900  0.25227  1.0000
  C   C307      1.0  0.21256  0.22506  0.48188  1.0000
  C   C308      1.0  0.27574  0.12682  0.48354  1.0000
  C   C309      1.0  0.43910  0.48766  0.39305  1.0000
  H   H258      1.0  0.18116  0.99265  0.33918  1.0000
  Fe  Fe15      1.0  0.23744  0.30254  0.57668  1.0000
  S   S34       1.0  0.20890  0.26896  0.59939  1.0000
  S   S35       1.0  0.27144  0.33756  0.57858  1.0000
  Fe  Fe16      1.0  0.21234  0.28287  0.54424  1.0000
  S   S36       1.0  0.18218  0.24766  0.56395  1.0000
  S   S37       1.0  0.21331  0.29300  0.51242  1.0000
  Fe  Fe17      1.0  0.17798  0.27537  0.58350  1.0000
  S   S38       1.0  0.13693  0.27092  0.59880  1.0000
  Fe  Fe18      1.0  0.21506  0.24373  0.57807  1.0000
  S   S39       1.0  0.21983  0.20423  0.58821  1.0000
  S   S40       1.0  0.20576  0.31122  0.56264  1.0000
  S   S41       1.0  0.24592  0.27659  0.55650  1.0000
  S   S42       1.0  0.16520  0.11723  0.54526  1.0000
  Fe  Fe19      1.0  0.01285  0.25419  0.55056  1.0000
  S   S43       1.0  0.99418  0.28345  0.53897  1.0000
  S   S44       1.0  0.05703  0.26854  0.54311  1.0000
  H   H259      1.0  0.14700  0.04880  0.63083  1.0000
  S   S45       1.0  0.99703  0.38713  0.67944  1.0000
  C   C310      1.0  0.24377  0.04515  0.59805  1.0000
  S   S46       1.0  0.02000  0.42591  0.63663  1.0000
  H   H260      1.0  0.02650  0.37335  0.57531  1.0000
  Fe  Fe20      1.0  0.99706  0.38349  0.64863  1.0000
  S   S47       1.0  0.00914  0.35009  0.63909  1.0000
  Fe  Fe21      1.0  0.01653  0.43037  0.66740  1.0000
  C   C311      1.0  0.41761  0.24532  0.71033  1.0000
  H   H261      1.0  0.38426  0.13436  0.70288  1.0000
  Fe  Fe22      1.0  0.37072  0.37990  0.64834  1.0000
  S   S48       1.0  0.39245  0.36761  0.67042  1.0000
  S   S49       1.0  0.33259  0.34880  0.64761  1.0000
  Fe  Fe23      1.0  0.41265  0.43365  0.63448  1.0000
  S   S50       1.0  0.43762  0.42574  0.65512  1.0000
  C   C312      1.0  0.07597  0.37299  0.64013  1.0000
  Fe  Fe24      1.0  0.42876  0.38608  0.64741  1.0000
  C   C313      1.0  0.45286  0.16826  0.61743  1.0000
  Fe  Fe25      1.0  0.39959  0.40802  0.67678  1.0000
  S   S51       1.0  0.40026  0.41217  0.70765  1.0000
  S   S52       1.0  0.40676  0.39518  0.62470  1.0000
  S   S53       1.0  0.37484  0.41918  0.65673  1.0000
  H   H262      1.0  0.41878  0.29495  0.67208  1.0000
  H   H263      1.0  0.01615  0.33282  0.56201  1.0000
  C   C314      1.0  0.44468  0.02012  0.64118  1.0000
  C   C315      1.0  0.42445  0.02863  0.64977  1.0000
  C   C316      1.0  0.42920  0.04561  0.66260  1.0000
  C   C317      1.0  0.45399  0.05362  0.66702  1.0000
  H   H264      1.0  0.05855  0.38092  0.59601  1.0000
  C   C318      1.0  0.30920  0.29328  0.50994  1.0000
  H   H265      1.0  0.40536  0.02237  0.64629  1.0000
  C   C319      1.0  0.27016  0.34363  0.51614  1.0000
  H   H266      1.0  0.14378  0.22286  0.53982  1.0000
  C   C320      1.0  0.25506  0.03868  0.63496  1.0000
  H   H267      1.0  0.00778  0.43479  0.70743  1.0000
  C   C321      1.0  0.35375  0.16682  0.51160  1.0000
  H   H268      1.0  0.13956  0.47748  0.70761  1.0000
  C   C322      1.0  0.10608  0.44874  0.70294  1.0000
  C   C323      1.0  0.16227  0.99310  0.51277  1.0000
  C   C324      1.0  0.13385  0.22690  0.52832  1.0000
  H   H269      1.0  0.36104  0.48324  0.70315  1.0000
  C   C325      1.0  0.39281  0.43939  0.71467  1.0000
  C   C326      1.0  0.37866  0.45238  0.70453  1.0000
  C   C327      1.0  0.04281  0.31743  0.57540  1.0000
  C   C328      1.0  0.03515  0.01461  0.51225  1.0000
  H   H270      1.0  0.35825  0.14949  0.51769  1.0000
  H   H271      1.0  0.37207  0.44574  0.69215  1.0000
  C   C329      1.0  0.04538  0.01573  0.52903  1.0000
  C   C330      1.0  0.46941  0.25961  0.72987  1.0000
  C   C331      1.0  0.01494  0.45893  0.72855  1.0000
  H   H272      1.0  0.35182  0.21367  0.72299  1.0000
  C   C332      1.0  0.21697  0.24423  0.51019  1.0000
  C   C333      1.0  0.21679  0.22339  0.50074  1.0000
  C   C334      1.0  0.12387  0.35654  0.59578  1.0000
  H   H273      1.0  0.03501  0.22671  0.49676  1.0000
  C   C335      1.0  0.08569  0.42007  0.63725  1.0000
  H   H274      1.0  0.47405  0.29470  0.62269  1.0000
  C   C336      1.0  0.18755  0.00832  0.50303  1.0000
  S   S54       1.0  0.34217  0.01525  0.65383  1.0000
  C   C337      1.0  0.09677  0.23587  0.51774  1.0000
  H   H275      1.0  0.10769  0.26924  0.64044  1.0000
  H   H276      1.0  0.25910  0.03600  0.64923  1.0000
  C   C338      1.0  0.99245  0.33516  0.62257  1.0000
  H   H277      1.0  0.29508  0.14272  0.50509  1.0000
  C   C339      1.0  0.36651  0.48189  0.64163  1.0000
  C   C340      1.0  0.46723  0.02044  0.72460  1.0000
  H   H278      1.0  0.03192  0.47871  0.61659  1.0000
  C   C341      1.0  0.28857  0.33993  0.59775  1.0000
  C   C342      1.0  0.28047  0.32074  0.61482  1.0000
  C   C343      1.0  0.29425  0.32375  0.62986  1.0000
  C   C344      1.0  0.31638  0.34581  0.62798  1.0000
  C   C345      1.0  0.32466  0.36485  0.61082  1.0000
  C   C346      1.0  0.31075  0.36195  0.59584  1.0000
  H   H279      1.0  0.26341  0.30376  0.61654  1.0000
  H   H280      1.0  0.28765  0.30896  0.64309  1.0000
  H   H281      1.0  0.34160  0.38193  0.60918  1.0000
  H   H282      1.0  0.31716  0.37693  0.58272  1.0000
  C   C347      1.0  0.11452  0.27108  0.58357  1.0000
  C   C348      1.0  0.08750  0.26105  0.59132  1.0000
  C   C349      1.0  0.06945  0.26007  0.57916  1.0000
  C   C350      1.0  0.07842  0.26991  0.55928  1.0000
  C   C351      1.0  0.10539  0.28062  0.55169  1.0000
  C   C352      1.0  0.12337  0.28077  0.56371  1.0000
  H   H283      1.0  0.08053  0.25354  0.60670  1.0000
  H   H284      1.0  0.04869  0.25183  0.58516  1.0000
  H   H285      1.0  0.11250  0.28821  0.53633  1.0000
  H   H286      1.0  0.14413  0.28844  0.55759  1.0000
  C   C353      1.0  0.20713  0.18021  0.57528  1.0000
  C   C354      1.0  0.20032  0.18729  0.55775  1.0000
  C   C355      1.0  0.18840  0.16783  0.54827  1.0000
  C   C356      1.0  0.18251  0.14115  0.55654  1.0000
  C   C357      1.0  0.19021  0.13402  0.57373  1.0000
  C   C358      1.0  0.20295  0.15361  0.58288  1.0000
  H   H287      1.0  0.20410  0.20775  0.55156  1.0000
  H   H288      1.0  0.18378  0.17351  0.53451  1.0000
  H   H289      1.0  0.18612  0.11346  0.58007  1.0000
  H   H290      1.0  0.20895  0.14806  0.59608  1.0000
  H   H291      1.0  0.21993  0.24282  0.52481  1.0000
  Fe  Fe26      1.0  0.12956  0.01861  0.56596  1.0000
  P   P11       1.0  0.44135  0.27791  0.70425  1.0000
  H   H292      1.0  0.23950  0.04733  0.58378  1.0000
  H   H293      1.0  0.31196  0.40483  0.51273  1.0000
  H   H294      1.0  0.97973  0.47893  0.70298  1.0000
  C   C359      1.0  0.21626  0.06390  0.68709  1.0000
  C   C360      1.0  0.06087  0.32144  0.58737  1.0000
  C   C361      1.0  0.24443  0.16653  0.50521  1.0000
  C   C362      1.0  0.05496  0.36342  0.59003  1.0000
  C   C363      1.0  0.41821  0.12880  0.68673  1.0000
  C   C364      1.0  0.29733  0.36036  0.48381  1.0000
  H   H295      1.0  0.10157  0.28708  0.50203  1.0000
  H   H296      1.0  0.43122  0.18273  0.63890  1.0000
  Fe  Fe27      1.0  0.18452  0.03374  0.54168  1.0000
  C   C365      1.0  0.05050  0.28267  0.65061  1.0000
  H   H297      1.0  0.21333  0.02601  0.64539  1.0000
  H   H298      1.0  0.41563  0.48901  0.67001  1.0000
  H   H299      1.0  0.35026  0.30180  0.50937  1.0000
  H   H300      1.0  0.36739  0.46889  0.63160  1.0000
  C   C366      1.0  0.38386  0.03300  0.72595  1.0000
  S   S55       1.0  0.20824  0.02810  0.51510  1.0000
  C   C367      1.0  0.38100  0.19465  0.71759  1.0000
  C   C368      1.0  0.27711  0.34060  0.49720  1.0000
  C   C369      1.0  0.41968  0.13063  0.65250  1.0000
  H   H301      1.0  0.18738  0.38154  0.59958  1.0000
  H   H302      1.0  0.47882  0.99428  0.69041  1.0000
  H   H303      1.0  0.42709  0.12646  0.69909  1.0000
  Fe  Fe28      1.0  0.36266  0.04238  0.67138  1.0000
  H   H304      1.0  0.01048  0.14837  0.48675  1.0000
  H   H305      1.0  0.11573  0.44780  0.68879  1.0000
  H   H306      1.0  0.98465  0.03802  0.52503  1.0000
  H   H307      1.0  0.26755  0.27901  0.51233  1.0000
  H   H308      1.0  0.15679  0.34116  0.55702  1.0000
  H   H309      1.0  0.45894  0.43870  0.60831  1.0000
  C   C370      1.0  0.10589  0.15110  0.49461  1.0000
  C   C371      1.0  0.46952  0.02820  0.64564  1.0000
  C   C372      1.0  0.00169  0.03190  0.52607  1.0000
  H   H310      1.0  0.25477  0.32816  0.52649  1.0000
  C   C373      1.0  0.13279  0.23394  0.49428  1.0000
  H   H311      1.0  0.00754  0.30244  0.62542  1.0000
  H   H312      1.0  0.15556  0.99330  0.52774  1.0000
  S   S56       1.0  0.20175  0.06518  0.55732  1.0000
  C   C374      1.0  0.28506  0.27365  0.51315  1.0000
  C   C375      1.0  0.36619  0.18064  0.49281  1.0000
  C   C376      1.0  0.32942  0.19763  0.51474  1.0000
  P   P12       1.0  0.30374  0.20651  0.52822  1.0000
  C   C377      1.0  0.27412  0.18324  0.52563  1.0000
  C   C378      1.0  0.30644  0.20544  0.55305  1.0000
  C   C379      1.0  0.28511  0.20558  0.56666  1.0000
  C   C380      1.0  0.28761  0.20753  0.58552  1.0000
  C   C381      1.0  0.31138  0.20934  0.59099  1.0000
  C   C382      1.0  0.33284  0.20943  0.57748  1.0000
  C   C383      1.0  0.33049  0.20774  0.55851  1.0000
  H   H313      1.0  0.16400  0.22516  0.50598  1.0000
  C   C384      1.0  0.21330  0.26694  0.50071  1.0000
  C   C385      1.0  0.23191  0.14379  0.51945  1.0000
  C   C386      1.0  0.24040  0.14075  0.53679  1.0000
  C   C387      1.0  0.26127  0.16046  0.53997  1.0000
  H   H314      1.0  0.04393  0.32350  0.49084  1.0000
  C   C388      1.0  0.34332  0.47789  0.65478  1.0000
  C   C389      1.0  0.41315  0.29837  0.73026  1.0000
  H   H315      1.0  0.32530  0.16389  0.53686  1.0000
  H   H316      1.0  0.26669  0.20492  0.56255  1.0000
  H   H317      1.0  0.27121  0.20833  0.59575  1.0000
  H   H318      1.0  0.31323  0.21117  0.60560  1.0000
  H   H319      1.0  0.35142  0.21140  0.58164  1.0000
  H   H320      1.0  0.34761  0.20898  0.54808  1.0000
  Fe  Fe29      1.0  0.31266  0.04816  0.69212  1.0000
  C   C390      1.0  0.28297  0.36658  0.52180  1.0000
  H   H321      1.0  0.21533  0.12866  0.51723  1.0000
  H   H322      1.0  0.23031  0.12330  0.54793  1.0000
  H   H323      1.0  0.26733  0.15778  0.55356  1.0000
  C   C391      1.0  0.46867  0.28047  0.71595  1.0000
  H   H324      1.0  0.15001  0.10090  0.50282  1.0000
  C   C392      1.0  0.18611  0.12655  0.48431  1.0000
  C   C393      1.0  0.00595  0.15760  0.55424  1.0000
  C   C394      1.0  0.46347  0.11921  0.62793  1.0000
  C   C395      1.0  0.14543  0.36915  0.60313  1.0000
  H   H325      1.0  0.46198  0.39899  0.59631  1.0000
  H   H326      1.0  0.39840  0.08195  0.63690  1.0000
  C   C396      1.0  0.39482  0.13385  0.65503  1.0000
  H   H327      1.0  0.11274  0.40625  0.59570  1.0000
  H   H328      1.0  0.98776  0.16211  0.55496  1.0000
  C   C397      1.0  0.12821  0.34655  0.57900  1.0000
  H   H329      1.0  0.28565  0.05837  0.58770  1.0000
  H   H330      1.0  0.39065  0.12929  0.57434  1.0000
  H   H331      1.0  0.00460  0.02153  0.49830  1.0000
  H   H332      1.0  0.27769  0.36862  0.53661  1.0000
  H   H333      1.0  0.24584  0.05019  0.69783  1.0000
  C   C398      1.0  0.05396  0.30948  0.48796  1.0000
  C   C399      1.0  0.14526  0.16828  0.50624  1.0000
  C   C400      1.0  0.13056  0.16216  0.52508  1.0000
  C   C401      1.0  0.10338  0.15064  0.52888  1.0000
  C   C402      1.0  0.09112  0.14475  0.51351  1.0000
  P   P13       1.0  0.08458  0.14153  0.55342  1.0000
  C   C403      1.0  0.08131  0.10797  0.56380  1.0000
  C   C404      1.0  0.10142  0.16169  0.56839  1.0000
  C   C405      1.0  0.12274  0.15643  0.57491  1.0000
  C   C406      1.0  0.13618  0.17207  0.58623  1.0000
  C   C407      1.0  0.12839  0.19297  0.59127  1.0000
  C   C408      1.0  0.10690  0.19799  0.58522  1.0000
  C   C409      1.0  0.09332  0.18234  0.57396  1.0000
  C   C410      1.0  0.07220  0.09850  0.58380  1.0000
  C   C411      1.0  0.07091  0.07305  0.59224  1.0000
  C   C412      1.0  0.07904  0.05701  0.58081  1.0000
  C   C413      1.0  0.08848  0.06639  0.56095  1.0000
  C   C414      1.0  0.08965  0.09178  0.55243  1.0000
  C   C415      1.0  0.05334  0.14667  0.55320  1.0000
  C   C416      1.0  0.05225  0.16900  0.54099  1.0000
  C   C417      1.0  0.02873  0.17453  0.54164  1.0000
  C   C418      1.0  0.14535  0.22842  0.50920  1.0000
  C   C419      1.0  0.00672  0.13506  0.56619  1.0000
  C   C420      1.0  0.03031  0.12957  0.56571  1.0000
  C   C421      1.0  0.37254  0.21641  0.71908  1.0000
  H   H334      1.0  0.27534  0.20339  0.49680  1.0000
  S   S57       1.0  0.16301  0.00276  0.56835  1.0000
  H   H335      1.0  0.14049  0.16651  0.53661  1.0000
  H   H336      1.0  0.07021  0.13532  0.51613  1.0000
  H   H337      1.0  0.12925  0.14045  0.57099  1.0000
  H   H338      1.0  0.15291  0.16823  0.59089  1.0000
  H   H339      1.0  0.13911  0.20543  0.59975  1.0000
  H   H340      1.0  0.10092  0.21420  0.58921  1.0000
  H   H341      1.0  0.07669  0.18667  0.56960  1.0000
  H   H342      1.0  0.06654  0.11099  0.59292  1.0000
  H   H343      1.0  0.06410  0.06588  0.60768  1.0000
  H   H344      1.0  0.07854  0.03745  0.58740  1.0000
  H   H345      1.0  0.09544  0.05410  0.55225  1.0000
  H   H346      1.0  0.09786  0.09884  0.53714  1.0000
  H   H347      1.0  0.06975  0.18249  0.53129  1.0000
  H   H348      1.0  0.02831  0.19226  0.53264  1.0000
  H   H349      1.0  0.45775  0.06700  0.67675  1.0000
  C   C422      1.0  0.99524  0.31149  0.61848  1.0000
  H   H350      1.0  0.03045  0.11224  0.57530  1.0000
  H   H351      1.0  0.45697  0.00132  0.72219  1.0000
  C   C423      1.0  0.08005  0.43338  0.71035  1.0000
  C   C424      1.0  0.05768  0.30730  0.63825  1.0000
  H   H352      1.0  0.20079  0.05231  0.69930  1.0000
  C   C425      1.0  0.37808  0.08027  0.61359  1.0000
  C   C426      1.0  0.03103  0.48176  0.73269  1.0000
  C   C427      1.0  0.41412  0.11798  0.61513  1.0000
  C   C428      1.0  0.17495  0.36230  0.57698  1.0000
  C   C429      1.0  0.33527  0.17515  0.52248  1.0000
  C   C430      1.0  0.03075  0.33634  0.57078  1.0000
  H   H353      1.0  0.06968  0.30640  0.59110  1.0000
  C   C431      1.0  0.09071  0.04888  0.48497  1.0000
  H   H354      1.0  0.21945  0.20580  0.50822  1.0000
  C   C432      1.0  0.43114  0.12774  0.66856  1.0000
  H   H355      1.0  0.06216  0.39126  0.66246  1.0000
  C   C433      1.0  0.39709  0.09243  0.62315  1.0000
  S   S58       1.0  0.99083  0.22269  0.53669  1.0000
  C   C434      1.0  0.11939  0.46567  0.71358  1.0000
  C   C435      1.0  0.34143  0.21097  0.49566  1.0000
  C   C436      1.0  0.06855  0.26900  0.65154  1.0000
  H   H356      1.0  0.44768  0.33229  0.68532  1.0000
  S   S59       1.0  0.45816  0.36455  0.64238  1.0000
  H   H357      1.0  0.40274  0.35774  0.72821  1.0000
  C   C437      1.0  0.28587  0.12503  0.50028  1.0000
  C   C438      1.0  0.39262  0.11901  0.58791  1.0000
  H   H358      1.0  0.44994  0.12459  0.66725  1.0000
  C   C439      1.0  0.07374  0.39449  0.64806  1.0000
  H   H359      1.0  0.28117  0.07648  0.66994  1.0000
  H   H360      1.0  0.08003  0.05466  0.49662  1.0000
  H   H361      1.0  0.23752  0.16907  0.49195  1.0000
  C   C440      1.0  0.09377  0.28002  0.64016  1.0000
  S   S60       1.0  0.15015  0.04702  0.53809  1.0000
  Fe  Fe30      1.0  0.31794  0.04246  0.65017  1.0000
  H   H362      1.0  0.08345  0.43661  0.64339  1.0000
  C   C441      1.0  0.43506  0.32773  0.69943  1.0000
  C   C442      1.0  0.17223  0.07912  0.48904  1.0000
  H   H363      1.0  0.32611  0.46168  0.65501  1.0000
  C   C443      1.0  0.31725  0.08488  0.72628  1.0000
  H   H364      1.0  0.16628  0.17723  0.50349  1.0000
  C   C444      1.0  0.46048  0.04244  0.71750  1.0000
  H   H365      1.0  0.43323  0.30252  0.63685  1.0000
  C   C445      1.0  0.22905  0.03301  0.63273  1.0000
  C   C446      1.0  0.07419  0.30752  0.49725  1.0000
  H   H366      1.0  0.39173  0.05184  0.71587  1.0000
  H   H367      1.0  0.36696  0.17500  0.72076  1.0000
  C   C447      1.0  0.26565  0.18610  0.50816  1.0000
  C   C448      1.0  0.47348  0.06696  0.72092  1.0000
  H   H368      1.0  0.43506  0.99958  0.69320  1.0000
  C   C449      1.0  0.34273  0.08359  0.72441  1.0000
  H   H369      1.0  0.06295  0.24976  0.66090  1.0000
  P   P14       1.0  0.09118  0.34944  0.60979  1.0000
  C   C450      1.0  0.26989  0.05131  0.60030  1.0000
  H   H370      1.0  0.11216  0.33582  0.57331  1.0000
  H   H371      1.0  0.26421  0.23234  0.52156  1.0000
  H   H372      1.0  0.12049  0.31230  0.61889  1.0000
  H   H373      1.0  0.26672  0.32270  0.49319  1.0000
  H   H374      1.0  0.04181  0.02535  0.55712  1.0000
  S   S61       1.0  0.29514  0.06759  0.71376  1.0000
  H   H375      1.0  0.04679  0.42384  0.73369  1.0000
  C   C451      1.0  0.04208  0.46869  0.69649  1.0000
  C   C452      1.0  0.06752  0.34468  0.59448  1.0000
  S   S62       1.0  0.28737  0.02129  0.67692  1.0000
  C   C453      1.0  0.22326  0.03618  0.61430  1.0000
  H   H376      1.0  0.44219  0.47105  0.68953  1.0000
  H   H377      1.0  0.15810  0.06001  0.49575  1.0000
  C   C454      1.0  0.10947  0.23047  0.53257  1.0000
  C   C455      1.0  0.10101  0.30471  0.62788  1.0000
  H   H378      1.0  0.07852  0.48405  0.61678  1.0000
  C   C456      1.0  0.39392  0.13288  0.68895  1.0000
  C   C457      1.0  0.41180  0.13122  0.59739  1.0000
  H   H379      1.0  0.36480  0.06064  0.61993  1.0000
  C   C458      1.0  0.37569  0.09358  0.59607  1.0000
  S   S63       1.0  0.30867  0.05602  0.62120  1.0000
  H   H380      1.0  0.10051  0.22940  0.54736  1.0000
  S   S64       1.0  0.14205  0.04891  0.58381  1.0000
  C   C459      1.0  0.06723  0.43513  0.72830  1.0000
  H   H381      1.0  0.07766  0.23812  0.52131  1.0000
  H   H382      1.0  0.06616  0.35351  0.64880  1.0000
  H   H383      1.0  0.04344  0.31753  0.63746  1.0000
  C   C460      1.0  0.40762  0.19823  0.71186  1.0000
  C   C461      1.0  0.28293  0.10039  0.51129  1.0000
  C   C462      1.0  0.26998  0.07756  0.50550  1.0000
  C   C463      1.0  0.44596  0.18782  0.62575  1.0000
  H   H384      1.0  0.28996  0.09887  0.52460  1.0000
  H   H385      1.0  0.26662  0.05836  0.51441  1.0000
  C   C464      1.0  0.15197  0.11344  0.62707  1.0000
  C   C465      1.0  0.14118  0.08679  0.62696  1.0000
  C   C466      1.0  0.15500  0.06941  0.63130  1.0000
  C   C467      1.0  0.17975  0.07868  0.63548  1.0000
  C   C468      1.0  0.19097  0.10547  0.63529  1.0000
  C   C469      1.0  0.17673  0.12277  0.63127  1.0000
  P   P15       1.0  0.22452  0.11764  0.63781  1.0000
  C   C470      1.0  0.23093  0.09509  0.65628  1.0000
  C   C471      1.0  0.24627  0.12138  0.61505  1.0000
  C   C472      1.0  0.23790  0.10697  0.60121  1.0000
  C   C473      1.0  0.25533  0.10892  0.58416  1.0000
  C   C474      1.0  0.28131  0.12486  0.58088  1.0000
  C   C475      1.0  0.28971  0.13958  0.59440  1.0000
  C   C476      1.0  0.27222  0.13805  0.61134  1.0000
  C   C477      1.0  0.25626  0.09349  0.65553  1.0000
  C   C478      1.0  0.08634  0.28855  0.49434  1.0000
  C   C479      1.0  0.21096  0.08020  0.67224  1.0000
  C   C480      1.0  0.23062  0.14919  0.64474  1.0000
  C   C481      1.0  0.23076  0.15133  0.66403  1.0000
  C   C482      1.0  0.23508  0.17588  0.66915  1.0000
  C   C483      1.0  0.23905  0.19839  0.65514  1.0000
  C   C484      1.0  0.23887  0.19638  0.63596  1.0000
  C   C485      1.0  0.23491  0.17193  0.63077  1.0000
  H   H386      1.0  0.14144  0.12702  0.62344  1.0000
  H   H387      1.0  0.12232  0.07965  0.62321  1.0000
  C   C486      1.0  0.26155  0.07751  0.67056  1.0000
  H   H388      1.0  0.19055  0.06505  0.63815  1.0000
  H   H389      1.0  0.18490  0.14360  0.63072  1.0000
  H   H390      1.0  0.21817  0.09370  0.60361  1.0000
  H   H391      1.0  0.24878  0.09728  0.57380  1.0000
  H   H392      1.0  0.29493  0.12555  0.56798  1.0000
  H   H393      1.0  0.30988  0.15177  0.59196  1.0000
  H   H394      1.0  0.27914  0.14926  0.62182  1.0000
  H   H395      1.0  0.27207  0.10443  0.64344  1.0000
  C   C487      1.0  0.17085  0.37217  0.59368  1.0000
  H   H396      1.0  0.19135  0.08133  0.67329  1.0000
  H   H397      1.0  0.22749  0.13416  0.67516  1.0000
  H   H398      1.0  0.23516  0.17744  0.68403  1.0000
  H   H399      1.0  0.24211  0.21738  0.65912  1.0000
  H   H400      1.0  0.24146  0.21374  0.62511  1.0000
  H   H401      1.0  0.23472  0.17066  0.61588  1.0000
  H   H402      1.0  0.00025  0.18519  0.49935  1.0000
  H   H403      1.0  0.03784  0.29945  0.56996  1.0000
  C   C488      1.0  0.38199  0.13489  0.67320  1.0000
  C   C489      1.0  0.08301  0.31865  0.62690  1.0000
  S   S65       1.0  0.19017  0.02898  0.61238  1.0000
  C   C490      1.0  0.42581  0.34731  0.70547  1.0000
  C   C491      1.0  0.15365  0.34950  0.56966  1.0000
  C   C492      1.0  0.08993  0.37689  0.62114  1.0000
  H   H404      1.0  0.34915  0.07170  0.71512  1.0000
  H   H405      1.0  0.24890  0.06141  0.48502  1.0000
  S   S66       1.0  0.33511  0.02091  0.69959  1.0000
  C   C493      1.0  0.10002  0.42421  0.61847  1.0000
  C   C494      1.0  0.01210  0.03310  0.54267  1.0000
  P   P16       1.0  0.43751  0.13376  0.62836  1.0000
  H   H406      1.0  0.07979  0.31993  0.50740  1.0000
  H   H407      1.0  0.38544  0.13588  0.64291  1.0000
  C   C495      1.0  0.47401  0.04472  0.65878  1.0000
  H   H408      1.0  0.14259  0.37601  0.61648  1.0000
  H   H409      1.0  0.06949  0.42082  0.70186  1.0000
  C   C496      1.0  0.24158  0.06264  0.68629  1.0000
  C   C497      1.0  0.37253  0.47369  0.71069  1.0000
  H   H410      1.0  0.36042  0.08414  0.58903  1.0000
  H   H411      1.0  0.19461  0.36405  0.56994  1.0000
  C   C498      1.0  0.16761  0.10208  0.49287  1.0000
  C   C499      1.0  0.03997  0.21111  0.49086  1.0000
  H   H412      1.0  0.10912  0.44405  0.61003  1.0000
  S   S67       1.0  0.40505  0.05769  0.67327  1.0000
  C   C500      1.0  0.10212  0.40275  0.61043  1.0000
  C   C501      1.0  0.44470  0.29548  0.64618  1.0000
  H   H413      1.0  0.44108  0.00729  0.63106  1.0000
  C   C502      1.0  0.46233  0.09686  0.61998  1.0000
  H   H414      1.0  0.00324  0.04020  0.55446  1.0000
  C   C503      1.0  0.02011  0.45268  0.71037  1.0000
  H   H415      1.0  0.38047  0.17412  0.48438  1.0000
  H   H416      1.0  0.03085  0.27412  0.65927  1.0000
  H   H417      1.0  0.44511  0.04060  0.70943  1.0000
  Fe  Fe31      1.0  0.16534  0.07600  0.55593  1.0000
  H   H418      1.0  0.36276  0.13717  0.67512  1.0000
  Fe  Fe32      1.0  0.17748  0.03546  0.58392  1.0000
  H   H419      1.0  0.47497  0.40138  0.66735  1.0000
  C   C504      1.0  0.27564  0.04797  0.61879  1.0000
  C   C505      1.0  0.03667  0.35922  0.57822  1.0000
  S   S68       1.0  0.34144  0.07159  0.66510  1.0000
  C   C506      1.0  0.03386  0.02490  0.54417  1.0000
  C   C507      1.0  0.33006  0.26004  0.51628  1.0000
  H   H420      1.0  0.37983  0.09734  0.73261  1.0000
  C   C508      1.0  0.28330  0.24715  0.51815  1.0000
  C   C509      1.0  0.42584  0.22345  0.70806  1.0000
  C   C510      1.0  0.40997  0.34241  0.72376  1.0000
  C   C511      1.0  0.45843  0.21442  0.61726  1.0000
  C   C512      1.0  0.30589  0.24017  0.51952  1.0000
  C   C513      1.0  0.42824  0.30284  0.71157  1.0000
  C   C514      1.0  0.43677  0.29159  0.66620  1.0000
  C   C515      1.0  0.02015  0.18738  0.49260  1.0000
  H   H421      1.0  0.98388  0.28078  0.60265  1.0000
  C   C516      1.0  0.30935  0.38392  0.48939  1.0000
  C   C517      1.0  0.98170  0.29906  0.60560  1.0000
  H   H422      1.0  0.42445  0.15101  0.59097  1.0000
  H   H423      1.0  0.43103  0.36646  0.69597  1.0000
  H   H424      1.0  0.34751  0.25511  0.51812  1.0000
  S   S69       1.0  0.42458  0.47073  0.61147  1.0000
  H   H425      1.0  0.41409  0.18137  0.71036  1.0000
  H   H426      1.0  0.06213  0.00919  0.53056  1.0000
  C   C518      1.0  0.38920  0.01095  0.72089  1.0000
  H   H427      1.0  0.44637  0.22587  0.70329  1.0000
  C   C519      1.0  0.33170  0.28649  0.51144  1.0000
  C   C520      1.0  0.47899  0.41206  0.59976  1.0000
  C   C521      1.0  0.45228  0.28409  0.67841  1.0000
  H   H428      1.0  0.38363  0.25833  0.71575  1.0000
  H   H429      1.0  0.40082  0.01278  0.70677  1.0000
  S   S70       1.0  0.05083  0.45879  0.67485  1.0000
  C   C522      1.0  0.47532  0.27960  0.67034  1.0000
  H   H430      1.0  0.31042  0.31378  0.50669  1.0000
  C   C523      1.0  0.10868  0.23849  0.49845  1.0000
  C   C524      1.0  0.47245  0.17575  0.60055  1.0000
  C   C525      1.0  0.39071  0.24170  0.71523  1.0000
  S   S71       1.0  0.08659  0.99706  0.56795  1.0000
  H   H431      1.0  0.45323  0.47578  0.73218  1.0000
  Fe  Fe33      1.0  0.98111  0.43269  0.63932  1.0000
  C   C526      1.0  0.01312  0.02263  0.51089  1.0000
  H   H432      1.0  0.33630  0.22760  0.48907  1.0000
  C   C527      1.0  0.46776  0.29119  0.63822  1.0000
  C   C528      1.0  0.46748  0.38842  0.72530  1.0000
  P   P17       1.0  0.04967  0.00128  0.49346  1.0000
  Fe  Fe34      1.0  0.46533  0.13562  0.72786  1.0000
  H   H433      1.0  0.98902  0.12215  0.57609  1.0000
  C   C529      1.0  0.13293  0.16304  0.49099  1.0000
  C   C530      1.0  0.35997  0.20264  0.48482  1.0000
  C   C531      1.0  0.40099  0.44800  0.73084  1.0000
  Fe  Fe35      1.0  0.31291  0.99619  0.68169  1.0000
  C   C532      1.0  0.47713  0.43422  0.60679  1.0000
  H   H434      1.0  0.44512  0.08651  0.61529  1.0000
  S   S72       1.0  0.98450  0.23955  0.57926  1.0000
  C   C533      1.0  0.30235  0.38686  0.50836  1.0000
  C   C534      1.0  0.38119  0.48267  0.72660  1.0000
  C   C535      1.0  0.10660  0.46760  0.73163  1.0000
  C   C536      1.0  0.47787  0.22170  0.60044  1.0000
  C   C537      1.0  0.25998  0.07932  0.48872  1.0000
  H   H435      1.0  0.46815  0.08395  0.71533  1.0000
  H   H436      1.0  0.47822  0.16096  0.59402  1.0000
  H   H437      1.0  0.18268  0.14428  0.48754  1.0000
  C   C538      1.0  0.02597  0.16657  0.48566  1.0000
  H   H438      1.0  0.46934  0.39918  0.71082  1.0000
  H   H439      1.0  0.45313  0.22939  0.62386  1.0000
  C   C539      1.0  0.32671  0.11541  0.74771  1.0000
  C   C540      1.0  0.46337  0.28028  0.96751  1.0000
  C   C541      1.0  0.44864  0.43563  0.78833  1.0000
  H   H440      1.0  0.36022  0.20535  0.80680  1.0000
  H   H441      1.0  0.42649  0.24525  0.94037  1.0000
  C   C542      1.0  0.27451  0.00586  0.74856  1.0000
  C   C543      1.0  0.42218  0.01643  0.80482  1.0000
  H   H442      1.0  0.99882  0.42615  0.77612  1.0000
  H   H443      1.0  0.41056  0.30622  0.80053  1.0000
  H   H444      1.0  0.13197  0.45834  0.78070  1.0000
  C   C544      1.0  0.03650  0.40431  0.80370  1.0000
  C   C545      1.0  0.42077  0.37473  0.87367  1.0000
  Fe  Fe36      1.0  0.46645  0.16114  0.76272  1.0000
  C   C546      1.0  0.41042  0.15585  0.85668  1.0000
  H   H445      1.0  0.10750  0.44564  0.81442  1.0000
  C   C547      1.0  0.43792  0.22065  0.84147  1.0000
  H   H446      1.0  0.38661  0.24002  0.83118  1.0000
  H   H447      1.0  0.05381  0.48540  0.79896  1.0000
  C   C548      1.0  0.46345  0.36172  0.76299  1.0000
  Fe  Fe37      1.0  0.41456  0.13165  0.75361  1.0000
  C   C549      1.0  0.10109  0.45707  0.80359  1.0000
  C   C550      1.0  0.46191  0.44521  0.81802  1.0000
  C   C551      1.0  0.99954  0.41008  0.82393  1.0000
  C   C552      1.0  0.44295  0.44130  0.80660  1.0000
  C   C553      1.0  0.47080  0.41161  0.86192  1.0000
  C   C554      1.0  0.11499  0.46443  0.78442  1.0000
  H   H448      1.0  0.28798  0.15776  0.87208  1.0000
  Fe  Fe38      1.0  0.44955  0.10159  0.76777  1.0000
  C   C555      1.0  0.40499  0.24087  0.83535  1.0000
  P   P18       1.0  0.46279  0.34612  0.78732  1.0000
  S   S73       1.0  0.43106  0.12912  0.78022  1.0000
  H   H449      1.0  0.99873  0.44572  0.73956  1.0000
  C   C556      1.0  0.30810  0.16389  0.86427  1.0000
  H   H450      1.0  0.41496  0.44340  0.87722  1.0000
  H   H451      1.0  0.36999  0.10179  0.79865  1.0000
  C   C557      1.0  0.40782  0.11828  0.83368  1.0000
  H   H452      1.0  0.98902  0.40955  0.83819  1.0000
  C   C558      1.0  0.41357  0.21872  0.83673  1.0000
  S   S74       1.0  0.37405  0.13484  0.75687  1.0000
  H   H453      1.0  0.36862  0.20197  0.86628  1.0000
  H   H454      1.0  0.40200  0.47644  0.74904  1.0000
  C   C559      1.0  0.36019  0.17977  0.84402  1.0000
  C   C560      1.0  0.36751  0.03056  0.74362  1.0000
  H   H455      1.0  0.31623  0.01971  0.74203  1.0000
  P   P19       1.0  0.33256  0.00269  0.77797  1.0000
  H   H456      1.0  0.43443  0.43380  0.77919  1.0000
  H   H457      1.0  0.03859  0.41342  0.77306  1.0000
  H   H458      1.0  0.39552  0.14349  0.81383  1.0000
  C   C561      1.0  0.40370  0.16043  0.83864  1.0000
  H   H459      1.0  0.43396  0.18995  0.79917  1.0000
  C   C562      1.0  0.36860  0.04183  0.78938  1.0000
  C   C563      1.0  0.42430  0.39968  0.86280  1.0000
  C   C564      1.0  0.39644  0.19612  0.80563  1.0000
  C   C565      1.0  0.34056  0.16183  0.83787  1.0000
  C   C566      1.0  0.15640  0.48513  0.74363  1.0000
  H   H460      1.0  0.44046  0.42061  0.95992  1.0000
  H   H461      1.0  0.47201  0.45610  0.87846  1.0000
  C   C567      1.0  0.46493  0.27328  0.92948  1.0000
  C   C568      1.0  0.44278  0.25927  0.94387  1.0000
  C   C569      1.0  0.46715  0.38682  0.87300  1.0000
  C   C570      1.0  0.47615  0.15598  0.82911  1.0000
  C   C571      1.0  0.31457  0.15411  0.84788  1.0000
  C   C572      1.0  0.39554  0.46985  0.73663  1.0000
  C   C573      1.0  0.46697  0.48153  0.74130  1.0000
  C   C574      1.0  0.44188  0.26296  0.96283  1.0000
  C   C575      1.0  0.41116  0.45599  0.86556  1.0000
  H   H462      1.0  0.14225  0.44311  0.74510  1.0000
  H   H463      1.0  0.30811  0.04381  0.78436  1.0000
  H   H464      1.0  0.00524  0.47446  0.80919  1.0000
  H   H465      1.0  0.46238  0.28303  0.98222  1.0000
  C   C576      1.0  0.43199  0.02731  0.76994  1.0000
  H   H466      1.0  0.40250  0.21003  0.75007  1.0000
  H   H467      1.0  0.42302  0.13034  0.87638  1.0000
  C   C577      1.0  0.99036  0.41786  0.80750  1.0000
  H   H468      1.0  0.44165  0.40729  0.73821  1.0000
  H   H469      1.0  0.36403  0.21364  0.77148  1.0000
  H   H470      1.0  0.40144  0.36032  0.87810  1.0000
  H   H471      1.0  0.32533  0.08710  0.79244  1.0000
  C   C578      1.0  0.35366  0.18906  0.86075  1.0000
  C   C579      1.0  0.37933  0.20870  0.77762  1.0000
  C   C580      1.0  0.32740  0.04943  0.78758  1.0000
  C   C581      1.0  0.42080  0.20038  0.77333  1.0000
  C   C582      1.0  0.44218  0.36835  0.87886  1.0000
  H   H472      1.0  0.42376  0.44257  0.81167  1.0000
  C   C583      1.0  0.44384  0.26564  0.84482  1.0000
  C   C584      1.0  0.45011  0.27179  0.77678  1.0000
  C   C585      1.0  0.33705  0.07403  0.79224  1.0000
  H   H473      1.0  0.18588  0.43761  0.74235  1.0000
  H   H474      1.0  0.41329  0.28117  0.83862  1.0000
  C   C586      1.0  0.40894  0.99036  0.80443  1.0000
  H   H475      1.0  0.06953  0.45419  0.75224  1.0000
  C   C587      1.0  0.36232  0.08239  0.79566  1.0000
  C   C588      1.0  0.07905  0.46466  0.80885  1.0000
  C   C589      1.0  0.41535  0.11434  0.85136  1.0000
  C   C590      1.0  0.38628  0.34527  0.82565  1.0000
  H   H476      1.0  0.39784  0.07278  0.79654  1.0000
  H   H477      1.0  0.45550  0.28364  0.84813  1.0000
  C   C591      1.0  0.29901  0.00904  0.75314  1.0000
  C   C592      1.0  0.46390  0.31307  0.78757  1.0000
  C   C593      1.0  0.34312  0.03305  0.78625  1.0000
  C   C594      1.0  0.15918  0.46014  0.74379  1.0000
  C   C595      1.0  0.43315  0.34507  0.80317  1.0000
  C   C596      1.0  0.44906  0.45661  0.93905  1.0000
  H   H478      1.0  0.43907  0.25986  0.76821  1.0000
  H   H479      1.0  0.43842  0.30536  0.76735  1.0000
  H   H480      1.0  0.40760  0.40426  0.85871  1.0000
  H   H481      1.0  0.29948  0.14035  0.84301  1.0000
  C   C597      1.0  0.44371  0.44160  0.95774  1.0000
  C   C598      1.0  0.41665  0.13312  0.86284  1.0000
  H   H482      1.0  0.46850  0.14677  0.80207  1.0000
  C   C599      1.0  0.45283  0.24394  0.84571  1.0000
  H   H483      1.0  0.46572  0.27045  0.91477  1.0000
  H   H484      1.0  0.40694  0.10374  0.82475  1.0000
  C   C600      1.0  0.25179  0.99271  0.76261  1.0000
  C   C601      1.0  0.40106  0.20681  0.76550  1.0000
  C   C602      1.0  0.40175  0.14109  0.82742  1.0000
  H   H485      1.0  0.32270  0.18845  0.88366  1.0000
  P   P20       1.0  0.45428  0.45021  0.84233  1.0000
  C   C603      1.0  0.44929  0.41844  0.85713  1.0000
  H   H486      1.0  0.22507  0.47610  0.73948  1.0000
  P   P21       1.0  0.39371  0.18881  0.83140  1.0000
  H   H487      1.0  0.23288  0.99050  0.75895  1.0000
  C   C604      1.0  0.43364  0.03503  0.78761  1.0000
  C   C605      1.0  0.42004  0.26420  0.83948  1.0000
  C   C606      1.0  0.38718  0.32330  0.81794  1.0000
  H   H488      1.0  0.42332  0.02224  0.81852  1.0000
  H   H489      1.0  0.45009  0.44728  0.92675  1.0000
  C   C607      1.0  0.30098  0.99876  0.77185  1.0000
  C   C608      1.0  0.37804  0.06621  0.79433  1.0000
  C   C609      1.0  0.41047  0.32323  0.80663  1.0000
  C   C610      1.0  0.30921  0.10053  0.73816  1.0000
  H   H490      1.0  0.05439  0.39924  0.80218  1.0000
  C   C611      1.0  0.40868  0.36716  0.82211  1.0000
  C   C612      1.0  0.40383  0.31803  0.73624  1.0000
  H   H491      1.0  0.37902  0.46204  0.88385  1.0000
  H   H492      1.0  0.36813  0.34548  0.83415  1.0000
  C   C613      1.0  0.37712  0.20364  0.79765  1.0000
  C   C614      1.0  0.42679  0.46218  0.84689  1.0000
  C   C615      1.0  0.35642  0.00605  0.75643  1.0000
  C   C616      1.0  0.41967  0.00073  0.76954  1.0000
  C   C617      1.0  0.32766  0.18126  0.87075  1.0000
  C   C618      1.0  0.02248  0.40324  0.82202  1.0000
  C   C619      1.0  0.44965  0.37963  0.75963  1.0000
  H   H493      1.0  0.02948  0.39732  0.83475  1.0000
  H   H494      1.0  0.35193  0.99574  0.81444  1.0000
  H   H495      1.0  0.41113  0.16992  0.86598  1.0000
  H   H496      1.0  0.36970  0.30647  0.82048  1.0000
  H   H497      1.0  0.39183  0.31448  0.75050  1.0000
  H   H498      1.0  0.38134  0.02999  0.78753  1.0000
  H   H499      1.0  0.47691  0.01051  0.77465  1.0000
  S   S75       1.0  0.45097  0.06720  0.78905  1.0000
  H   H500      1.0  0.34536  0.15373  0.82539  1.0000
  C   C620      1.0  0.39092  0.46669  0.86942  1.0000
  H   H501      1.0  0.44551  0.20429  0.84190  1.0000
  H   H502      1.0  0.44046  0.04174  0.75666  1.0000
  C   C621      1.0  0.41857  0.19514  0.79331  1.0000
  C   C622      1.0  0.43201  0.36707  0.81094  1.0000
  C   C623      1.0  0.44976  0.29755  0.77637  1.0000
  H   H503      1.0  0.43771  0.19908  0.76394  1.0000
  H   H504      1.0  0.43951  0.34908  0.88736  1.0000
  H   H505      1.0  0.43764  0.38382  0.77141  1.0000
  C   C624      1.0  0.02764  0.41229  0.78728  1.0000
  S   S76       1.0  0.46357  0.20316  0.94876  1.0000
  C   C625      1.0  0.42263  0.48017  0.83244  1.0000
  H   H506      1.0  0.40794  0.38443  0.82773  1.0000
  C   C626      1.0  0.20594  0.47860  0.74068  1.0000
  H   H507      1.0  0.44906  0.38434  0.80816  1.0000
  S   S77       1.0  0.02583  0.48687  0.75642  1.0000
  C   C627      1.0  0.99038  0.47212  0.82184  1.0000
  C   C628      1.0  0.45181  0.39300  0.74085  1.0000
  C   C629      1.0  0.44277  0.45372  0.97359  1.0000
  H   H508      1.0  0.42059  0.09695  0.85603  1.0000
  H   H509      1.0  0.32049  0.12794  0.75650  1.0000
  C   C630      1.0  0.00477  0.41923  0.78912  1.0000
  H   H510      1.0  0.46951  0.13561  0.83655  1.0000
  H   H511      1.0  0.06829  0.45911  0.82368  1.0000
  C   C631      1.0  0.08499  0.48738  0.77585  1.0000
  C   C632      1.0  0.45971  0.14118  0.97760  1.0000
  C   C633      1.0  0.47290  0.43285  0.78161  1.0000
  H   H512      1.0  0.47934  0.14766  0.94800  1.0000
  H   H513      1.0  0.47280  0.35270  0.82586  1.0000
  H   H514      1.0  0.41183  0.43794  0.73877  1.0000
  C   C634      1.0  0.47938  0.14039  0.96296  1.0000
  H   H515      1.0  0.46544  0.24161  0.78823  1.0000
  H   H516      1.0  0.44454  0.14905  0.97390  1.0000
  H   H517      1.0  0.47757  0.42900  0.76729  1.0000
  C   C635      1.0  0.35227  0.11446  0.74568  1.0000
  C   C636      1.0  0.10701  0.47965  0.77039  1.0000
  C   C637      1.0  0.07094  0.47964  0.79495  1.0000
  H   H518      1.0  0.41861  0.99476  0.75591  1.0000
  C   C638      1.0  0.18386  0.45692  0.74229  1.0000
  H   H519      1.0  0.46122  0.99163  0.80939  1.0000
  C   C639      1.0  0.46494  0.26149  0.78807  1.0000
  C   C640      1.0  0.08029  0.45242  0.73880  1.0000
  S   S78       1.0  0.42976  0.10110  0.74264  1.0000
  C   C641      1.0  0.44764  0.48093  0.97075  1.0000
  H   H520      1.0  0.43541  0.48662  0.81824  1.0000
  C   C642      1.0  0.38630  0.48380  0.85474  1.0000
  H   H521      1.0  0.42471  0.25203  0.97396  1.0000
  S   S79       1.0  0.47063  0.21964  0.89232  1.0000
  C   C643      1.0  0.45363  0.48377  0.93618  1.0000
  H   H522      1.0  0.36293  0.04768  0.74702  1.0000
  H   H523      1.0  0.40860  0.27972  0.74015  1.0000
  H   H524      1.0  0.47149  0.24528  0.84964  1.0000
  C   C644      1.0  0.47565  0.16229  0.80952  1.0000
  H   H525      1.0  0.28954  0.10156  0.73966  1.0000
  S   S80       1.0  0.44854  0.16613  0.73689  1.0000
  H   H526      1.0  0.27320  0.01377  0.73405  1.0000
  C   C645      1.0  0.47880  0.35688  0.74719  1.0000
  C   C646      1.0  0.47929  0.27689  0.79907  1.0000
  C   C647      1.0  0.47865  0.30251  0.79897  1.0000
  P   P22       1.0  0.12435  0.48893  0.74548  1.0000
  C   C648      1.0  0.36011  0.09811  0.73434  1.0000
  H   H527      1.0  0.45368  0.24115  0.73395  1.0000
  C   C649      1.0  0.41239  0.57419  0.14960  1.0000
  S   S81       1.0  0.43645  0.58697  0.21088  1.0000
  Fe  Fe39      1.0  0.03126  0.60120  0.17895  1.0000
  S   S82       1.0  0.02236  0.60701  0.20915  1.0000
  S   S83       1.0  0.07181  0.60105  0.16705  1.0000
  C   C650      1.0  0.40190  0.52935  0.08717  1.0000
  H   H528      1.0  0.33188  0.71118  0.06008  1.0000
  H   H529      1.0  0.41016  0.56711  0.18042  1.0000
  H   H530      1.0  0.46964  0.62486  0.09195  1.0000
  C   C651      1.0  0.38298  0.51626  0.10395  1.0000
  S   S84       1.0  0.40348  0.89209  0.20433  1.0000
  C   C652      1.0  0.25512  0.61276  0.98816  1.0000
  C   C653      1.0  0.41222  0.85005  0.06706  1.0000
  Fe  Fe40      1.0  0.34361  0.81656  0.10290  1.0000
  S   S85       1.0  0.36602  0.78891  0.09677  1.0000
  S   S86       1.0  0.35678  0.85337  0.11480  1.0000
  Fe  Fe41      1.0  0.29760  0.78713  0.08732  1.0000
  S   S87       1.0  0.31551  0.75676  0.07990  1.0000
  S   S88       1.0  0.25906  0.79002  0.08174  1.0000
  Fe  Fe42      1.0  0.32762  0.75716  0.10830  1.0000
  S   S89       1.0  0.32653  0.71892  0.12607  1.0000
  Fe  Fe43      1.0  0.35251  0.79036  0.06877  1.0000
  S   S90       1.0  0.37824  0.78625  0.04260  1.0000
  S   S91       1.0  0.30599  0.78444  0.11712  1.0000
  S   S92       1.0  0.33370  0.82120  0.07356  1.0000
  Fe  Fe44      1.0  0.38437  0.58198  0.05900  1.0000
  S   S93       1.0  0.34531  0.55442  0.07538  1.0000
  S   S94       1.0  0.41127  0.57501  0.03462  1.0000
  Fe  Fe45      1.0  0.37726  0.62755  0.07634  1.0000
  S   S95       1.0  0.33724  0.60488  0.09371  1.0000
  S   S96       1.0  0.39727  0.67017  0.07489  1.0000
  Fe  Fe46      1.0  0.35464  0.57282  0.10055  1.0000
  S   S97       1.0  0.34198  0.54760  0.13057  1.0000
  Fe  Fe47      1.0  0.33062  0.58826  0.06753  1.0000
  S   S98       1.0  0.29416  0.57978  0.05571  1.0000
  S   S99       1.0  0.39567  0.59694  0.08500  1.0000
  S   S100      1.0  0.36894  0.61452  0.04932  1.0000
  Fe  Fe48      1.0  0.18025  0.67208  0.04548  1.0000
  S   S101      1.0  0.20647  0.64726  0.04280  1.0000
  S   S102      1.0  0.19388  0.71598  0.03450  1.0000
  Fe  Fe49      1.0  0.13188  0.62433  0.06290  1.0000
  S   S103      1.0  0.15418  0.59565  0.06103  1.0000
  S   S104      1.0  0.08910  0.61055  0.07672  1.0000
  Fe  Fe50      1.0  0.18350  0.62471  0.07213  1.0000
  S   S105      1.0  0.20267  0.61459  0.09629  1.0000
  Fe  Fe51      1.0  0.17447  0.62110  0.03166  1.0000
  H   H531      1.0  0.38552  0.76086  0.14324  1.0000
  S   S106      1.0  0.16005  0.65178  0.07585  1.0000
  S   S107      1.0  0.14949  0.64738  0.03258  1.0000
  C   C654      1.0  0.26815  0.58758  0.06828  1.0000
  C   C655      1.0  0.24486  0.58301  0.06159  1.0000
  C   C656      1.0  0.22454  0.59095  0.07043  1.0000
  C   C657      1.0  0.22715  0.60273  0.08636  1.0000
  C   C658      1.0  0.25001  0.60647  0.09352  1.0000
  C   C659      1.0  0.27060  0.59916  0.08433  1.0000
  H   H532      1.0  0.24278  0.57399  0.04921  1.0000
  H   H533      1.0  0.20693  0.58814  0.06478  1.0000
  H   H534      1.0  0.25236  0.61611  0.10554  1.0000
  H   H535      1.0  0.28840  0.60291  0.08953  1.0000
  C   C660      1.0  0.21310  0.73595  0.04738  1.0000
  C   C661      1.0  0.23143  0.72820  0.05644  1.0000
  C   C662      1.0  0.24651  0.74509  0.06648  1.0000
  C   C663      1.0  0.24259  0.76921  0.06796  1.0000
  C   C664      1.0  0.22420  0.77672  0.05892  1.0000
  C   C665      1.0  0.20990  0.76040  0.04837  1.0000
  H   H536      1.0  0.23411  0.70938  0.05557  1.0000
  H   H537      1.0  0.26073  0.73926  0.07339  1.0000
  H   H538      1.0  0.22106  0.79528  0.06004  1.0000
  H   H539      1.0  0.19578  0.76646  0.04138  1.0000
  C   C666      1.0  0.37669  0.68294  0.08887  1.0000
  C   C667      1.0  0.36280  0.66906  0.10737  1.0000
  C   C668      1.0  0.34752  0.68022  0.11884  1.0000
  C   C669      1.0  0.34552  0.70488  0.11165  1.0000
  C   C670      1.0  0.35927  0.71854  0.09305  1.0000
  C   C671      1.0  0.37499  0.70768  0.08175  1.0000
  H   H540      1.0  0.36440  0.65008  0.11303  1.0000
  H   H541      1.0  0.33763  0.66996  0.13335  1.0000
  H   H542      1.0  0.35815  0.73765  0.08736  1.0000
  H   H543      1.0  0.38562  0.71836  0.06741  1.0000
  C   C672      1.0  0.40554  0.96199  0.13573  1.0000
  C   C673      1.0  0.35969  0.58051  0.00074  1.0000
  C   C674      1.0  0.37069  0.57463  0.01654  1.0000
  C   C675      1.0  0.39776  0.58060  0.01423  1.0000
  C   C676      1.0  0.41379  0.59219  0.99588  1.0000
  C   C677      1.0  0.29227  0.75533  0.01551  1.0000
  C   C678      1.0  0.46409  0.62183  0.06322  1.0000
  H   H544      1.0  0.43468  0.59699  0.99406  1.0000
  C   C679      1.0  0.39654  0.51687  0.16543  1.0000
  C   C680      1.0  0.37925  0.85574  0.13010  1.0000
  C   C681      1.0  0.36377  0.64838  0.00360  1.0000
  C   C682      1.0  0.39076  0.83613  0.13403  1.0000
  C   C683      1.0  0.39052  0.66080  0.99629  1.0000
  H   H545      1.0  0.38503  0.81863  0.12818  1.0000
  H   H546      1.0  0.23650  0.58078  0.18894  1.0000
  C   C684      1.0  0.46909  0.49846  0.05401  1.0000
  C   C685      1.0  0.24577  0.69602  0.00394  1.0000
  H   H547      1.0  0.35810  0.56556  0.03060  1.0000
  C   C686      1.0  0.08423  0.60687  0.10190  1.0000
  C   C687      1.0  0.05973  0.60478  0.11257  1.0000
  C   C688      1.0  0.05576  0.60278  0.13263  1.0000
  C   C689      1.0  0.07638  0.60304  0.14204  1.0000
  C   C690      1.0  0.10076  0.60460  0.13144  1.0000
  C   C691      1.0  0.10465  0.60637  0.11141  1.0000
  H   H548      1.0  0.04394  0.60519  0.10525  1.0000
  H   H549      1.0  0.03677  0.60119  0.14074  1.0000
  H   H550      1.0  0.11662  0.60444  0.13869  1.0000
  H   H551      1.0  0.12343  0.60734  0.10332  1.0000
  P   P23       1.0  0.41827  0.54366  0.14654  1.0000
  C   C692      1.0  0.24252  0.75926  0.98708  1.0000
  C   C693      1.0  0.40211  0.49318  0.16961  1.0000
  C   C694      1.0  0.42530  0.69080  0.18342  1.0000
  S   S108      1.0  0.45090  0.94016  0.17460  1.0000
  C   C695      1.0  0.37308  0.51884  0.17523  1.0000
  C   C696      1.0  0.98574  0.50776  0.22558  1.0000
  H   H552      1.0  0.08816  0.54801  0.14216  1.0000
  C   C697      1.0  0.29418  0.78162  0.01532  1.0000
  C   C698      1.0  0.38817  0.51990  0.12202  1.0000
  C   C699      1.0  0.32716  0.58976  0.17955  1.0000
  C   C700      1.0  0.33493  0.60389  0.16043  1.0000
  C   C701      1.0  0.33887  0.59097  0.14524  1.0000
  C   C702      1.0  0.33435  0.56381  0.14906  1.0000
  C   C703      1.0  0.32468  0.54944  0.16807  1.0000
  C   C704      1.0  0.32153  0.56243  0.18333  1.0000
  H   H553      1.0  0.33939  0.62500  0.15735  1.0000
  H   H554      1.0  0.34658  0.60228  0.13072  1.0000
  H   H555      1.0  0.32053  0.52834  0.17106  1.0000
  H   H556      1.0  0.31492  0.55134  0.19803  1.0000
  C   C705      1.0  0.42151  0.53470  0.20989  1.0000
  C   C706      1.0  0.44208  0.55703  0.20991  1.0000
  H   H557      1.0  0.33857  0.50018  0.19766  1.0000
  C   C707      1.0  0.05905  0.53363  0.12602  1.0000
  C   C708      1.0  0.45152  0.54570  0.14797  1.0000
  C   C709      1.0  0.46936  0.61054  0.04743  1.0000
  H   H558      1.0  0.41980  0.81715  0.05737  1.0000
  C   C710      1.0  0.36560  0.84002  0.00282  1.0000
  C   C711      1.0  0.30033  0.67592  0.06126  1.0000
  H   H559      1.0  0.36388  0.67452  0.22241  1.0000
  H   H560      1.0  0.16057  0.61350  0.19002  1.0000
  S   S109      1.0  0.18642  0.60608  0.00506  1.0000
  C   C712      1.0  0.43131  0.54969  0.10652  1.0000
  C   C713      1.0  0.18225  0.56304  0.14023  1.0000
  H   H561      1.0  0.41024  0.49356  0.20916  1.0000
  C   C714      1.0  0.36571  0.82492  0.02050  1.0000
  P   P24       1.0  0.29990  0.71374  0.99926  1.0000
  H   H562      1.0  0.21173  0.61059  0.13994  1.0000
  H   H563      1.0  0.19434  0.57116  0.12588  1.0000
  C   C715      1.0  0.13970  0.55012  0.16146  1.0000
  C   C716      1.0  0.40854  0.58011  0.16801  1.0000
  H   H564      1.0  0.11907  0.54799  0.16361  1.0000
  H   H565      1.0  0.37283  0.51038  0.13476  1.0000
  H   H566      1.0  0.22549  0.51856  0.09731  1.0000
  H   H567      1.0  0.20554  0.53273  0.12503  1.0000
  C   C717      1.0  0.16423  0.62988  0.17812  1.0000
  C   C718      1.0  0.15947  0.62518  0.16019  1.0000
  C   C719      1.0  0.16438  0.64622  0.14472  1.0000
  C   C720      1.0  0.17331  0.67222  0.14725  1.0000
  C   C721      1.0  0.17899  0.67683  0.16509  1.0000
  P   P25       1.0  0.18214  0.69903  0.12670  1.0000
  C   C722      1.0  0.21407  0.69987  0.11490  1.0000
  C   C723      1.0  0.15883  0.69443  0.11128  1.0000
  C   C724      1.0  0.16578  0.70988  0.09255  1.0000
  C   C725      1.0  0.14749  0.70781  0.08074  1.0000
  C   C726      1.0  0.12214  0.69027  0.08756  1.0000
  C   C727      1.0  0.11490  0.67522  0.10636  1.0000
  C   C728      1.0  0.13305  0.67748  0.11828  1.0000
  C   C729      1.0  0.23628  0.71366  0.12104  1.0000
  C   C730      1.0  0.26077  0.71200  0.11355  1.0000
  C   C731      1.0  0.26328  0.69621  0.10016  1.0000
  C   C732      1.0  0.24124  0.68219  0.09412  1.0000
  C   C733      1.0  0.21668  0.68397  0.10150  1.0000
  C   C734      1.0  0.18285  0.72999  0.13323  1.0000
  C   C735      1.0  0.16403  0.73106  0.14856  1.0000
  C   C736      1.0  0.16404  0.75530  0.15303  1.0000
  C   C737      1.0  0.18257  0.77860  0.14202  1.0000
  C   C738      1.0  0.20086  0.77767  0.12639  1.0000
  C   C739      1.0  0.20078  0.75350  0.12188  1.0000
  H   H568      1.0  0.15223  0.60526  0.15813  1.0000
  H   H569      1.0  0.16150  0.64219  0.13070  1.0000
  H   H570      1.0  0.18764  0.69668  0.16696  1.0000
  H   H571      1.0  0.18536  0.72351  0.08705  1.0000
  H   H572      1.0  0.15319  0.71932  0.06610  1.0000
  H   H573      1.0  0.10824  0.68801  0.07818  1.0000
  H   H574      1.0  0.09526  0.66156  0.11159  1.0000
  H   H575      1.0  0.12676  0.66598  0.13289  1.0000
  H   H576      1.0  0.23475  0.72547  0.13178  1.0000
  H   H577      1.0  0.27781  0.72283  0.11826  1.0000
  H   H578      1.0  0.28234  0.69490  0.09457  1.0000
  H   H579      1.0  0.24303  0.66970  0.08388  1.0000
  H   H580      1.0  0.19975  0.67246  0.09705  1.0000
  H   H581      1.0  0.14914  0.71324  0.15682  1.0000
  H   H582      1.0  0.14945  0.75608  0.16483  1.0000
  H   H583      1.0  0.18255  0.79741  0.14537  1.0000
  H   H584      1.0  0.21502  0.79564  0.11752  1.0000
  H   H585      1.0  0.21458  0.75327  0.10934  1.0000
  C   C740      1.0  0.45362  0.78852  0.05982  1.0000
  C   C741      1.0  0.31803  0.71209  0.03351  1.0000
  H   H586      1.0  0.34726  0.98204  0.18881  1.0000
  C   C742      1.0  0.33972  0.91371  0.23199  1.0000
  H   H587      1.0  0.04391  0.69979  0.22749  1.0000
  H   H588      1.0  0.39993  0.65475  0.98418  1.0000
  C   C743      1.0  0.26973  0.69876  0.99202  1.0000
  H   H589      1.0  0.98428  0.71025  0.21951  1.0000
  S   S110      1.0  0.00505  0.67265  0.20518  1.0000
  C   C744      1.0  0.44160  0.67328  0.15652  1.0000
  C   C745      1.0  0.15092  0.51223  0.22869  1.0000
  H   H590      1.0  0.20385  0.68391  0.00719  1.0000
  H   H591      1.0  0.07806  0.57085  0.20203  1.0000
  H   H592      1.0  0.41030  0.73518  0.99464  1.0000
  C   C746      1.0  0.38645  0.87832  0.13789  1.0000
  C   C747      1.0  0.34193  0.89393  0.22205  1.0000
  C   C748      1.0  0.42377  0.83014  0.06733  1.0000
  H   H593      1.0  0.39639  0.78390  0.00369  1.0000
  C   C749      1.0  0.42142  0.76493  0.19460  1.0000
  H   H594      1.0  0.43017  0.67292  0.03638  1.0000
  H   H595      1.0  0.43455  0.87636  0.10369  1.0000
  H   H596      1.0  0.44044  0.55637  0.07537  1.0000
  H   H597      1.0  0.43986  0.72920  0.22043  1.0000
  H   H598      1.0  0.00943  0.55981  0.11970  1.0000
  H   H599      1.0  0.41073  0.89898  0.15529  1.0000
  C   C750      1.0  0.37681  0.80468  0.02078  1.0000
  H   H600      1.0  0.40629  0.88142  0.08047  1.0000
  H   H601      1.0  0.34275  0.89709  0.20662  1.0000
  C   C751      1.0  0.42264  0.95791  0.12078  1.0000
  H   H602      1.0  0.18572  0.54358  0.18695  1.0000
  H   H603      1.0  0.07306  0.53881  0.11241  1.0000
  H   H604      1.0  0.37741  0.89342  0.13503  1.0000
  C   C752      1.0  0.44739  0.69021  0.03289  1.0000
  H   H605      1.0  0.35714  0.85578  0.00263  1.0000
  H   H606      1.0  0.25578  0.49658  0.19080  1.0000
  H   H607      1.0  0.09156  0.53178  0.19881  1.0000
  C   C753      1.0  0.25098  0.51465  0.19053  1.0000
  C   C754      1.0  0.42634  0.74639  0.18404  1.0000
  C   C755      1.0  0.24915  0.55178  0.20496  1.0000
  H   H608      1.0  0.45521  0.64615  0.19807  1.0000
  Fe  Fe52      1.0  0.98515  0.57456  0.21225  1.0000
  C   C756      1.0  0.06455  0.66300  0.21662  1.0000
  C   C757      1.0  0.07659  0.66350  0.19780  1.0000
  C   C758      1.0  0.10370  0.66994  0.19269  1.0000
  C   C759      1.0  0.11882  0.67634  0.20635  1.0000
  H   H609      1.0  0.26765  0.66376  0.02539  1.0000
  C   C760      1.0  0.44820  0.65870  0.18840  1.0000
  C   C761      1.0  0.41622  0.86677  0.08010  1.0000
  H   H610      1.0  0.05603  0.53838  0.17305  1.0000
  H   H611      1.0  0.33211  0.73123  0.02675  1.0000
  H   H612      1.0  0.45439  0.77005  0.00939  1.0000
  H   H613      1.0  0.06478  0.65858  0.18722  1.0000
  H   H614      1.0  0.11285  0.66974  0.17818  1.0000
  H   H615      1.0  0.13986  0.68143  0.20235  1.0000
  C   C762      1.0  0.01398  0.51821  0.14384  1.0000
  C   C763      1.0  0.35089  0.65561  0.01925  1.0000
  P   P26       1.0  0.40802  0.71178  0.19274  1.0000
  C   C764      1.0  0.37716  0.70525  0.18517  1.0000
  S   S111      1.0  0.99560  0.56627  0.18287  1.0000
  H   H616      1.0  0.46635  0.66051  0.00899  1.0000
  P   P27       1.0  0.97950  0.50665  0.14384  1.0000
  H   H617      1.0  0.24245  0.62692  0.01314  1.0000
  C   C765      1.0  0.36641  0.72557  0.18095  1.0000
  C   C766      1.0  0.34287  0.72055  0.17461  1.0000
  C   C767      1.0  0.32964  0.69518  0.17278  1.0000
  C   C768      1.0  0.33993  0.67481  0.17728  1.0000
  C   C769      1.0  0.36362  0.67974  0.18339  1.0000
  C   C770      1.0  0.44341  0.84373  0.09369  1.0000
  C   C771      1.0  0.22231  0.68549  0.99818  1.0000
  H   H618      1.0  0.26243  0.52058  0.21741  1.0000
  H   H619      1.0  0.28323  0.74103  0.02888  1.0000
  C   C772      1.0  0.43928  0.82663  0.08076  1.0000
  C   C773      1.0  0.44401  0.97898  0.10991  1.0000
  C   C774      1.0  0.24014  0.56212  0.18931  1.0000
  C   C775      1.0  0.44402  0.75536  0.16609  1.0000
  C   C776      1.0  0.15549  0.55950  0.14295  1.0000
  H   H620      1.0  0.37618  0.74540  0.18225  1.0000
  H   H621      1.0  0.33497  0.73638  0.17083  1.0000
  H   H622      1.0  0.31152  0.69138  0.16769  1.0000
  H   H623      1.0  0.32942  0.65512  0.17611  1.0000
  H   H624      1.0  0.37110  0.66352  0.18694  1.0000
  C   C777      1.0  0.45148  0.80053  0.16951  1.0000
  C   C778      1.0  0.98298  0.66983  0.22653  1.0000
  C   C779      1.0  0.30195  0.74777  0.99866  1.0000
  C   C780      1.0  0.38417  0.98318  0.19624  1.0000
  H   H625      1.0  0.36389  0.50405  0.10295  1.0000
  H   H626      1.0  0.45747  0.97562  0.09855  1.0000
  C   C781      1.0  0.40314  0.61384  0.13652  1.0000
  C   C782      1.0  0.39844  0.61897  0.15502  1.0000
  C   C783      1.0  0.40148  0.60231  0.17072  1.0000
  H   H627      1.0  0.40034  0.62652  0.12437  1.0000
  H   H628      1.0  0.39191  0.63555  0.15731  1.0000
  H   H629      1.0  0.39790  0.60629  0.18509  1.0000
  C   C784      1.0  0.47203  0.53169  0.20758  1.0000
  H   H630      1.0  0.47939  0.53028  0.09825  1.0000
  H   H631      1.0  0.14076  0.62184  0.99949  1.0000
  H   H632      1.0  0.25280  0.56260  0.21632  1.0000
  C   C785      1.0  0.39159  0.68767  0.02044  1.0000
  C   C786      1.0  0.38763  0.79942  0.00342  1.0000
  H   H633      1.0  0.33871  0.57577  0.00276  1.0000
  H   H634      1.0  0.36789  0.53650  0.17182  1.0000
  C   C787      1.0  0.24217  0.52504  0.17477  1.0000
  C   C788      1.0  0.03236  0.52310  0.12655  1.0000
  C   C789      1.0  0.45440  0.77481  0.02353  1.0000
  H   H635      1.0  0.41953  0.93829  0.11790  1.0000
  C   C790      1.0  0.28188  0.67424  0.03269  1.0000
  H   H636      1.0  0.40740  0.75865  0.20823  1.0000
  H   H637      1.0  0.00911  0.51962  0.17426  1.0000
  C   C791      1.0  0.30537  0.80053  0.99826  1.0000
  C   C792      1.0  0.34442  0.87069  0.23175  1.0000
  C   C793      1.0  0.46597  0.66022  0.99399  1.0000
  H   H638      1.0  0.24516  0.70249  0.01754  1.0000
  H   H639      1.0  0.33025  0.64564  0.02515  1.0000
  H   H640      1.0  0.44802  0.74178  0.15745  1.0000
  H   H641      1.0  0.26823  0.64375  0.05831  1.0000
  C   C794      1.0  0.40201  0.70361  0.21878  1.0000
  C   C795      1.0  0.46734  0.55551  0.20885  1.0000
  C   C796      1.0  0.43541  0.67525  0.19567  1.0000
  Fe  Fe53      1.0  0.47037  0.94354  0.19999  1.0000
  C   C797      1.0  0.29980  0.69894  0.02358  1.0000
  C   C798      1.0  0.47445  0.61674  0.07948  1.0000
  C   C799      1.0  0.40468  0.68057  0.00468  1.0000
  C   C800      1.0  0.25678  0.61909  0.00617  1.0000
  H   H642      1.0  0.33889  0.93197  0.22400  1.0000
  C   C801      1.0  0.47656  0.79853  0.04536  1.0000
  C   C802      1.0  0.35617  0.49805  0.18971  1.0000
  C   C803      1.0  0.45808  0.49679  0.08831  1.0000
  Fe  Fe54      1.0  0.44130  0.89657  0.18496  1.0000
  C   C804      1.0  0.45152  0.50952  0.20708  1.0000
  H   H643      1.0  0.14728  0.56480  0.13066  1.0000
  C   C805      1.0  0.12411  0.50686  0.22944  1.0000
  S   S112      1.0  0.43470  0.94302  0.22057  1.0000
  C   C806      1.0  0.42622  0.51093  0.20864  1.0000
  H   H644      1.0  0.43307  0.67521  0.21094  1.0000
  C   C807      1.0  0.25467  0.52811  0.20554  1.0000
  H   H645      1.0  0.40194  0.53569  0.21077  1.0000
  C   C808      1.0  0.41003  0.59151  0.13383  1.0000
  C   C809      1.0  0.41553  0.77751  0.11746  1.0000
  S   S113      1.0  0.32595  0.60651  0.19864  1.0000
  H   H646      1.0  0.30739  0.82100  0.99819  1.0000
  H   H647      1.0  0.41261  0.58737  0.11957  1.0000
  C   C810      1.0  0.41011  0.83956  0.14512  1.0000
  C   C811      1.0  0.45143  0.65781  0.16884  1.0000
  H   H648      1.0  0.04347  0.65744  0.22046  1.0000
  H   H649      1.0  0.30013  0.64376  0.15335  1.0000
  C   C812      1.0  0.15074  0.54431  0.17722  1.0000
  H   H650      1.0  0.27779  0.61958  0.02924  1.0000
  C   C813      1.0  0.06758  0.53886  0.14281  1.0000
  S   S114      1.0  0.38301  0.61620  0.22649  1.0000
  S   S115      1.0  0.46394  0.90031  0.20861  1.0000
  C   C814      1.0  0.43209  0.86384  0.09322  1.0000
  C   C815      1.0  0.23766  0.52881  0.10610  1.0000
  C   C816      1.0  0.17424  0.65571  0.18052  1.0000
  H   H651      1.0  0.35530  0.67986  0.04041  1.0000
  S   S116      1.0  0.01296  0.63042  0.16698  1.0000
  H   H652      1.0  0.22952  0.78337  0.00491  1.0000
  H   H653      1.0  0.41929  0.82457  0.14783  1.0000
  H   H654      1.0  0.41393  0.75200  0.03493  1.0000
  H   H655      1.0  0.42976  0.80619  0.19531  1.0000
  C   C817      1.0  0.27653  0.61492  0.01521  1.0000
  S   S117      1.0  0.38373  0.95357  0.18894  1.0000
  H   H656      1.0  0.45355  0.68517  0.06196  1.0000
  C   C818      1.0  0.28094  0.63643  0.15029  1.0000
  H   H657      1.0  0.27997  0.59634  0.15679  1.0000
  C   C819      1.0  0.43120  0.77142  0.05593  1.0000
  C   C820      1.0  0.29459  0.60443  0.00623  1.0000
  C   C821      1.0  0.39823  0.75677  0.13178  1.0000
  H   H658      1.0  0.38212  0.71473  0.14140  1.0000
  C   C822      1.0  0.22648  0.53758  0.12164  1.0000
  H   H659      1.0  0.35751  0.82919  0.03384  1.0000
  C   C823      1.0  0.39644  0.73083  0.13080  1.0000
  H   H660      1.0  0.41624  0.79736  0.11842  1.0000
  C   C824      1.0  0.15193  0.62228  0.98554  1.0000
  C   C825      1.0  0.04947  0.53348  0.16017  1.0000
  H   H661      1.0  0.28712  0.78729  0.02849  1.0000
  Fe  Fe55      1.0  0.00082  0.63319  0.19767  1.0000
  H   H662      1.0  0.27715  0.67491  0.14260  1.0000
  C   C826      1.0  0.26932  0.60939  0.15223  1.0000
  C   C827      1.0  0.26783  0.65389  0.14448  1.0000
  C   C828      1.0  0.19354  0.55702  0.15593  1.0000
  P   P28       1.0  0.43922  0.69695  0.99514  1.0000
  C   C829      1.0  0.17753  0.54775  0.17451  1.0000
  C   C830      1.0  0.41230  0.72562  0.11565  1.0000
  C   C831      1.0  0.43166  0.76450  0.03791  1.0000
  H   H663      1.0  0.41048  0.70545  0.11468  1.0000
  H   H664      1.0  0.41292  0.76433  0.06652  1.0000
  C   C832      1.0  0.45650  0.78231  0.15889  1.0000
  C   C833      1.0  0.02275  0.52309  0.16073  1.0000
  H   H665      1.0  0.44364  0.67216  0.14143  1.0000
  H   H666      1.0  0.27339  0.52739  0.08931  1.0000
  C   C834      1.0  0.10680  0.67597  0.22519  1.0000
  Fe  Fe56      1.0  0.34526  0.59117  0.22124  1.0000
  C   C835      1.0  0.24409  0.59943  0.14876  1.0000
  C   C836      1.0  0.24278  0.64423  0.14096  1.0000
  H   H667      1.0  0.17872  0.65935  0.19424  1.0000
  Fe  Fe57      1.0  0.41462  0.93598  0.19606  1.0000
  S   S118      1.0  0.35899  0.55660  0.21824  1.0000
  H   H668      1.0  0.39763  0.52714  0.07311  1.0000
  H   H669      1.0  0.24011  0.51464  0.16305  1.0000
  C   C837      1.0  0.41231  0.53683  0.12343  1.0000
  S   S119      1.0  0.44227  0.86683  0.16614  1.0000
  C   C838      1.0  0.26461  0.53366  0.10162  1.0000
  H   H670      1.0  0.23255  0.65767  0.13637  1.0000
  C   C839      1.0  0.36491  0.67505  0.02776  1.0000
  H   H671      1.0  0.40194  0.70270  0.02732  1.0000
  C   C840      1.0  0.42818  0.68934  0.16385  1.0000
  C   C841      1.0  0.43074  0.77244  0.10174  1.0000
  C   C842      1.0  0.42934  0.74631  0.10112  1.0000
  C   C843      1.0  0.46534  0.56238  0.15865  1.0000
  C   C844      1.0  0.16426  0.49693  0.22018  1.0000
  C   C845      1.0  0.23092  0.61718  0.14310  1.0000
  P   P29       1.0  0.22863  0.56420  0.15253  1.0000
  C   C846      1.0  0.24237  0.55233  0.13237  1.0000
  H   H672      1.0  0.44085  0.74179  0.08918  1.0000
  H   H673      1.0  0.30067  0.66680  0.07574  1.0000
  C   C847      1.0  0.42608  0.54597  0.08846  1.0000
  H   H674      1.0  0.44984  0.56309  0.10734  1.0000
  H   H675      1.0  0.98963  0.52029  0.21154  1.0000
  C   C848      1.0  0.41744  0.86228  0.15278  1.0000
  C   C849      1.0  0.46084  0.69690  0.04741  1.0000
  C   C850      1.0  0.43394  0.79186  0.18733  1.0000
  H   H676      1.0  0.30967  0.60094  0.01342  1.0000
  C   C851      1.0  0.28219  0.66280  0.05143  1.0000
  H   H677      1.0  0.45297  0.51604  0.13111  1.0000
  C   C852      1.0  0.40531  0.88149  0.14935  1.0000
  H   H678      1.0  0.45463  0.84106  0.10459  1.0000
  C   C853      1.0  0.45599  0.70585  0.01416  1.0000
  H   H679      1.0  0.45649  0.57441  0.16631  1.0000
  H   H680      1.0  0.22217  0.56415  0.98451  1.0000
  C   C854      1.0  0.26945  0.55670  0.12790  1.0000
  C   C855      1.0  0.28038  0.54713  0.11275  1.0000
  C   C856      1.0  0.31797  0.70078  0.05242  1.0000
  C   C857      1.0  0.07002  0.55316  0.21328  1.0000
  H   H681      1.0  0.30122  0.55055  0.10942  1.0000
  P   P30       1.0  0.45194  0.79917  0.08257  1.0000
  C   C858      1.0  0.47905  0.72738  0.00996  1.0000
  C   C859      1.0  0.23710  0.54911  0.17387  1.0000
  H   H682      1.0  0.28225  0.56727  0.13614  1.0000
  H   H683      1.0  0.13866  0.53757  0.19160  1.0000
  H   H684      1.0  0.39946  0.85191  0.05714  1.0000
  H   H685      1.0  0.45133  0.63390  0.06305  1.0000
  H   H686      1.0  0.41983  0.70043  0.15429  1.0000
  H   H687      1.0  0.02600  0.51988  0.11328  1.0000
  Fe  Fe58      1.0  0.42652  0.89945  0.22730  1.0000
  Fe  Fe59      1.0  0.39534  0.58035  0.22604  1.0000
  C   C860      1.0  0.42161  0.71477  0.22841  1.0000
  H   H688      1.0  0.46985  0.78918  0.14496  1.0000
  C   C861      1.0  0.46350  0.52965  0.13892  1.0000
  C   C862      1.0  0.07944  0.66924  0.23051  1.0000
  C   C863      1.0  0.07759  0.53097  0.21152  1.0000
  H   H689      1.0  0.35307  0.63300  0.99715  1.0000
  H   H690      1.0  0.38937  0.94555  0.14458  1.0000
  H   H691      1.0  0.34693  0.85572  0.22389  1.0000
  H   H692      1.0  0.23784  0.74282  0.99908  1.0000
  H   H693      1.0  0.46096  0.64457  0.16340  1.0000
  H   H694      1.0  0.47431  0.58487  0.99830  1.0000
  H   H695      1.0  0.46089  0.82147  0.16387  1.0000
  C   C864      1.0  0.47690  0.79169  0.02728  1.0000
  H   H696      1.0  0.46045  0.61370  0.03515  1.0000
  C   C865      1.0  0.29293  0.59803  0.98821  1.0000
  H   H697      1.0  0.27080  0.95197  0.22723  1.0000
  H   H698      1.0  0.18504  0.50111  0.21960  1.0000
  C   C866      1.0  0.32684  0.70841  0.98409  1.0000
  C   C867      1.0  0.98134  0.57496  0.10886  1.0000
  C   C868      1.0  0.47814  0.64445  0.98495  1.0000
  H   H699      1.0  0.30717  0.66657  0.98806  1.0000
  C   C869      1.0  0.47662  0.52156  0.08584  1.0000
  C   C870      1.0  0.38718  0.81428  0.98576  1.0000
  C   C871      1.0  0.06655  0.50773  0.22575  1.0000
  C   C872      1.0  0.37613  0.83454  0.98544  1.0000
  H   H700      1.0  0.04514  0.56936  0.23036  1.0000
  H   H701      1.0  0.99591  0.59328  0.10099  1.0000
  C   C873      1.0  0.98894  0.55574  0.11958  1.0000
  C   C874      1.0  0.23771  0.78228  0.99038  1.0000
  C   C875      1.0  0.37900  0.68413  0.22943  1.0000
  H   H702      1.0  0.02592  0.73578  0.23046  1.0000
  C   C876      1.0  0.05148  0.55238  0.22930  1.0000
  H   H703      1.0  0.46634  0.48939  0.04170  1.0000
  H   H704      1.0  0.10740  0.49316  0.18253  1.0000
  C   C877      1.0  0.40972  0.98708  0.13981  1.0000
  H   H705      1.0  0.42002  0.49113  0.16229  1.0000
  C   C878      1.0  0.29566  0.98776  0.23257  1.0000
  H   H706      1.0  0.09514  0.48940  0.15123  1.0000
  C   C879      1.0  0.45349  0.67534  0.98372  1.0000
  C   C880      1.0  0.17487  0.61546  0.98428  1.0000
  C   C881      1.0  0.44834  0.52046  0.35688  1.0000
  S   S120      1.0  0.31572  0.50247  0.26240  1.0000
  Fe  Fe60      1.0  0.12475  0.94456  0.40609  1.0000
  S   S121      1.0  0.15829  0.94337  0.42046  1.0000
  S   S122      1.0  0.10555  0.90599  0.39788  1.0000
  Fe  Fe61      1.0  0.14208  0.96573  0.44035  1.0000
  S   S123      1.0  0.13272  0.95599  0.47264  1.0000
  H   H707      1.0  0.02872  0.91596  0.44425  1.0000
  C   C882      1.0  0.17469  0.97136  0.34196  1.0000
  S   S124      1.0  0.10695  0.96398  0.42752  1.0000
  H   H708      1.0  0.17713  0.89956  0.31740  1.0000
  H   H709      1.0  0.02215  0.75194  0.26103  1.0000
  C   C883      1.0  0.41319  0.59148  0.34626  1.0000
  C   C884      1.0  0.30277  0.51610  0.33629  1.0000
  Fe  Fe62      1.0  0.36637  0.59795  0.25783  1.0000
  C   C885      1.0  0.41883  0.83173  0.32946  1.0000
  S   S125      1.0  0.37398  0.61950  0.28188  1.0000
  C   C886      1.0  0.34948  0.53830  0.33157  1.0000
  C   C887      1.0  0.28388  0.96538  0.30369  1.0000
  C   C888      1.0  0.99066  0.61422  0.28002  1.0000
  C   C889      1.0  0.28356  0.88497  0.32398  1.0000
  S   S126      1.0  0.32689  0.57677  0.25272  1.0000
  H   H710      1.0  0.25078  0.88386  0.31057  1.0000
  Fe  Fe63      1.0  0.33661  0.95220  0.37440  1.0000
  S   S127      1.0  0.33199  0.94199  0.34580  1.0000
  S   S128      1.0  0.30245  0.94094  0.39959  1.0000
  P   P31       1.0  0.33462  0.93456  0.26524  1.0000
  C   C890      1.0  0.37568  0.67604  0.24938  1.0000
  H   H711      1.0  0.46479  0.54564  0.28343  1.0000
  H   H712      1.0  0.13958  0.89322  0.47448  1.0000
  H   H713      1.0  0.44849  0.94402  0.37691  1.0000
  Fe  Fe64      1.0  0.36966  0.93300  0.34509  1.0000
  S   S129      1.0  0.37364  0.89511  0.33809  1.0000
  S   S130      1.0  0.45966  0.56579  0.37172  1.0000
  S   S131      1.0  0.37206  0.93946  0.37512  1.0000
  H   H714      1.0  0.40981  0.79986  0.31438  1.0000
  C   C891      1.0  0.38791  0.49731  0.25461  1.0000
  C   C892      1.0  0.30321  0.52779  0.31744  1.0000
  C   C893      1.0  0.36822  0.59035  0.34800  1.0000
  C   C894      1.0  0.43977  0.49286  0.35884  1.0000
  C   C895      1.0  0.40286  0.90630  0.28011  1.0000
  C   C896      1.0  0.39488  0.91154  0.29843  1.0000
  C   C897      1.0  0.38363  0.89069  0.31456  1.0000
  C   C898      1.0  0.38043  0.86493  0.31227  1.0000
  H   H715      1.0  0.15065  0.89511  0.35535  1.0000
  H   H716      1.0  0.39756  0.93158  0.30008  1.0000
  H   H717      1.0  0.37170  0.84877  0.32459  1.0000
  H   H718      1.0  0.10719  0.70788  0.26162  1.0000
  C   C899      1.0  0.03888  0.72488  0.27533  1.0000
  C   C900      1.0  0.38880  0.85982  0.29427  1.0000
  C   C901      1.0  0.37451  0.61551  0.35216  1.0000
  C   C902      1.0  0.15768  0.91638  0.35112  1.0000
  C   C903      1.0  0.23780  0.93328  0.32973  1.0000
  S   S132      1.0  0.39552  0.97361  0.33023  1.0000
  C   C904      1.0  0.28284  0.97256  0.37686  1.0000
  C   C905      1.0  0.40764  0.62878  0.28175  1.0000
  C   C906      1.0  0.42544  0.62910  0.26536  1.0000
  H   H719      1.0  0.16166  0.85910  0.30510  1.0000
  C   C907      1.0  0.38758  0.57821  0.34490  1.0000
  C   C908      1.0  0.44347  0.64034  0.29857  1.0000
  C   C909      1.0  0.41678  0.63507  0.29822  1.0000
  H   H720      1.0  0.41870  0.62436  0.25257  1.0000
  C   C910      1.0  0.32609  0.91023  0.30403  1.0000
  H   H721      1.0  0.17177  0.81898  0.31820  1.0000
  H   H722      1.0  0.40309  0.63489  0.31090  1.0000
  H   H723      1.0  0.99523  0.84326  0.46096  1.0000
  C   C911      1.0  0.04756  0.50697  0.24166  1.0000
  C   C912      1.0  0.25730  0.95311  0.40924  1.0000
  C   C913      1.0  0.27934  0.95657  0.39490  1.0000
  H   H724      1.0  0.32462  0.51282  0.35824  1.0000
  C   C914      1.0  0.06633  0.87451  0.46963  1.0000
  C   C915      1.0  0.02322  0.69295  0.38037  1.0000
  H   H725      1.0  0.25469  0.94097  0.42330  1.0000
  S   S133      1.0  0.41175  0.87191  0.25642  1.0000
  C   C916      1.0  0.46231  0.85545  0.29916  1.0000
  C   C917      1.0  0.07221  0.89558  0.39674  1.0000
  C   C918      1.0  0.05995  0.86904  0.39664  1.0000
  C   C919      1.0  0.03357  0.86010  0.39528  1.0000
  C   C920      1.0  0.01940  0.87779  0.39360  1.0000
  C   C921      1.0  0.03168  0.90436  0.39371  1.0000
  C   C922      1.0  0.05793  0.91321  0.39546  1.0000
  H   H726      1.0  0.07088  0.85530  0.39767  1.0000
  H   H727      1.0  0.02432  0.83963  0.39520  1.0000
  H   H728      1.0  0.02083  0.91813  0.39236  1.0000
  H   H729      1.0  0.06724  0.93368  0.39550  1.0000
  C   C923      1.0  0.03283  0.72734  0.24247  1.0000
  H   H730      1.0  0.03542  0.70462  0.40583  1.0000
  Fe  Fe65      1.0  0.17950  0.98299  0.40125  1.0000
  H   H731      1.0  0.43309  0.91369  0.32662  1.0000
  C   C924      1.0  0.41330  0.52191  0.32192  1.0000
  C   C925      1.0  0.00166  0.96518  0.46007  1.0000
  H   H732      1.0  0.40959  0.51650  0.27380  1.0000
  C   C926      1.0  0.47920  0.93224  0.36183  1.0000
  H   H733      1.0  0.02562  0.52869  0.25576  1.0000
  H   H734      1.0  0.44171  0.50553  0.30918  1.0000
  C   C927      1.0  0.41931  0.61647  0.35068  1.0000
  C   C928      1.0  0.42335  0.81885  0.31444  1.0000
  H   H735      1.0  0.03287  0.87596  0.43332  1.0000
  H   H736      1.0  0.04881  0.72542  0.32135  1.0000
  C   C929      1.0  0.39865  0.49784  0.27100  1.0000
  H   H737      1.0  0.01562  0.57417  0.25664  1.0000
  C   C930      1.0  0.38720  0.53047  0.37766  1.0000
  C   C931      1.0  0.28245  0.96234  0.32355  1.0000
  C   C932      1.0  0.40003  0.62856  0.35353  1.0000
  H   H738      1.0  0.27177  0.87270  0.33760  1.0000
  H   H739      1.0  0.09624  0.73521  0.31056  1.0000
  H   H740      1.0  0.31996  0.88898  0.33317  1.0000
  H   H741      1.0  0.30193  0.97743  0.29375  1.0000
  C   C933      1.0  0.31070  0.89423  0.32152  1.0000
  C   C934      1.0  0.13951  0.92994  0.35046  1.0000
  H   H742      1.0  0.35958  0.62493  0.35422  1.0000
  C   C935      1.0  0.99031  0.64501  0.35029  1.0000
  C   C936      1.0  0.26193  0.95326  0.29675  1.0000
  H   H743      1.0  0.99628  0.71755  0.41648  1.0000
  C   C937      1.0  0.13515  0.86746  0.42818  1.0000
  C   C938      1.0  0.14556  0.84683  0.43109  1.0000
  C   C939      1.0  0.13807  0.82934  0.44896  1.0000
  C   C940      1.0  0.11733  0.87068  0.44309  1.0000
  H   H744      1.0  0.14076  0.88103  0.41434  1.0000
  H   H745      1.0  0.15947  0.84451  0.41950  1.0000
  H   H746      1.0  0.14626  0.81344  0.45129  1.0000
  H   H747      1.0  0.10992  0.88714  0.44055  1.0000
  H   H748      1.0  0.18021  0.91369  0.38514  1.0000
  H   H749      1.0  0.11760  0.70252  0.32132  1.0000
  H   H750      1.0  0.43159  0.86619  0.34095  1.0000
  Fe  Fe66      1.0  0.34323  0.54358  0.25024  1.0000
  H   H751      1.0  0.27776  0.91094  0.27944  1.0000
  C   C941      1.0  0.43797  0.92859  0.35231  1.0000
  C   C942      1.0  0.00055  0.98650  0.44697  1.0000
  C   C943      1.0  0.98454  0.60304  0.34046  1.0000
  C   C944      1.0  0.02042  0.70254  0.39739  1.0000
  C   C945      1.0  0.28723  0.90689  0.29112  1.0000
  H   H752      1.0  0.38663  0.83977  0.29286  1.0000
  H   H753      1.0  0.29989  0.97557  0.36578  1.0000
  C   C946      1.0  0.98155  0.69711  0.37580  1.0000
  C   C947      1.0  0.08545  0.66640  0.27093  1.0000
  H   H754      1.0  0.05394  0.61455  0.24671  1.0000
  C   C948      1.0  0.04322  0.70685  0.24082  1.0000
  H   H755      1.0  0.01529  0.63849  0.32614  1.0000
  C   C949      1.0  0.44598  0.91842  0.33653  1.0000
  C   C950      1.0  0.20181  0.85990  0.34526  1.0000
  H   H756      1.0  0.40178  0.82272  0.34107  1.0000
  C   C951      1.0  0.03066  0.73637  0.25970  1.0000
  H   H757      1.0  0.18918  0.90421  0.41759  1.0000
  H   H758      1.0  0.19736  0.81947  0.34392  1.0000
  H   H759      1.0  0.04911  0.92988  0.47131  1.0000
  H   H760      1.0  0.45999  0.91703  0.41677  1.0000
  H   H761      1.0  0.98437  0.66586  0.31380  1.0000
  H   H762      1.0  0.28564  0.52311  0.31168  1.0000
  H   H763      1.0  0.47637  0.56665  0.41151  1.0000
  C   C952      1.0  0.08165  0.67358  0.33754  1.0000
  C   C953      1.0  0.40520  0.54427  0.32155  1.0000
  C   C954      1.0  0.05032  0.91213  0.46668  1.0000
  S   S134      1.0  0.38127  0.56358  0.25780  1.0000
  C   C955      1.0  0.17865  0.83675  0.32364  1.0000
  S   S135      1.0  0.98669  0.86767  0.39073  1.0000
  H   H764      1.0  0.22155  0.96246  0.41647  1.0000
  P   P32       1.0  0.08600  0.85674  0.48022  1.0000
  C   C956      1.0  0.36392  0.49511  0.36382  1.0000
  C   C957      1.0  0.34272  0.88705  0.26135  1.0000
  P   P33       1.0  0.06303  0.66729  0.25499  1.0000
  C   C958      1.0  0.19305  0.83703  0.33812  1.0000
  C   C959      1.0  0.45447  0.93534  0.36505  1.0000
  C   C960      1.0  0.19294  0.95787  0.34260  1.0000
  C   C961      1.0  0.38753  0.96165  0.25084  1.0000
  H   H765      1.0  0.22220  0.92795  0.30408  1.0000
  H   H766      1.0  0.39320  0.51903  0.40623  1.0000
  P   P34       1.0  0.00796  0.67971  0.34662  1.0000
  C   C962      1.0  0.27181  0.89127  0.30876  1.0000
  C   C963      1.0  0.45749  0.86890  0.31389  1.0000
  H   H767      1.0  0.44936  0.58414  0.28171  1.0000
  C   C964      1.0  0.31453  0.91683  0.28867  1.0000
  C   C965      1.0  0.23895  0.93720  0.30972  1.0000
  C   C966      1.0  0.37669  0.52201  0.36218  1.0000
  C   C967      1.0  0.41821  0.70655  0.24838  1.0000
  H   H768      1.0  0.45549  0.49781  0.26202  1.0000
  H   H769      1.0  0.42838  0.58237  0.34410  1.0000
  C   C968      1.0  0.47033  0.91424  0.33364  1.0000
  C   C969      1.0  0.44685  0.51504  0.39118  1.0000
  C   C970      1.0  0.43483  0.52240  0.30828  1.0000
  H   H770      1.0  0.34705  0.91690  0.30243  1.0000
  C   C971      1.0  0.44789  0.54489  0.29386  1.0000
  H   H771      1.0  0.45041  0.64453  0.31143  1.0000
  C   C972      1.0  0.17298  0.85935  0.31625  1.0000
  C   C973      1.0  0.05467  0.66781  0.34357  1.0000
  C   C974      1.0  0.04243  0.68624  0.33759  1.0000
  C   C975      1.0  0.31894  0.95535  0.25281  1.0000
  H   H772      1.0  0.29114  0.92337  0.24494  1.0000
  C   C976      1.0  0.36636  0.95553  0.26650  1.0000
  H   H773      1.0  0.04345  0.64922  0.35326  1.0000
  C   C977      1.0  0.32568  0.52169  0.34347  1.0000
  C   C978      1.0  0.18177  0.88226  0.32331  1.0000
  H   H774      1.0  0.11436  0.81858  0.47761  1.0000
  C   C979      1.0  0.41807  0.56647  0.30672  1.0000
  P   P35       1.0  0.37950  0.54528  0.34036  1.0000
  C   C980      1.0  0.14801  0.95739  0.34568  1.0000
  C   C981      1.0  0.99200  0.59163  0.27340  1.0000
  H   H775      1.0  0.99147  0.94523  0.45904  1.0000
  C   C982      1.0  0.05763  0.71059  0.32567  1.0000
  C   C983      1.0  0.08461  0.71629  0.31964  1.0000
  H   H776      1.0  0.11875  0.91917  0.35428  1.0000
  H   H777      1.0  0.40493  0.64807  0.35670  1.0000
  H   H778      1.0  0.45229  0.53325  0.34291  1.0000
  C   C984      1.0  0.10909  0.85273  0.46091  1.0000
  C   C985      1.0  0.99639  0.72371  0.32941  1.0000
  C   C986      1.0  0.09663  0.69787  0.32567  1.0000
  C   C987      1.0  0.43579  0.85666  0.32922  1.0000
  C   C988      1.0  0.41092  0.98131  0.25022  1.0000
  H   H779      1.0  0.41199  0.58376  0.30597  1.0000
  H   H780      1.0  0.25881  0.94545  0.35173  1.0000
  C   C989      1.0  0.43927  0.56675  0.29293  1.0000
  H   H781      1.0  0.44843  0.82093  0.28750  1.0000
  H   H782      1.0  0.03657  0.73153  0.28879  1.0000
  C   C990      1.0  0.18456  0.93025  0.34670  1.0000
  H   H783      1.0  0.43359  0.71470  0.25571  1.0000
  C   C991      1.0  0.12394  0.68862  0.28225  1.0000
  H   H784      1.0  0.04055  0.68773  0.37593  1.0000
  H   H785      1.0  0.39785  0.55090  0.37676  1.0000
  C   C992      1.0  0.29803  0.94436  0.24427  1.0000
  H   H786      1.0  0.22783  0.89073  0.42212  1.0000
  C   C993      1.0  0.32650  0.54530  0.30587  1.0000
  H   H787      1.0  0.13968  0.70636  0.28182  1.0000
  H   H788      1.0  0.25828  0.88756  0.39387  1.0000
  H   H789      1.0  0.34832  0.58054  0.34708  1.0000
  C   C994      1.0  0.99522  0.69753  0.32918  1.0000
  C   C995      1.0  0.40022  0.88034  0.27815  1.0000
  H   H790      1.0  0.26292  0.95610  0.28133  1.0000
  H   H791      1.0  0.34884  0.85019  0.25856  1.0000
  C   C996      1.0  0.45215  0.63551  0.26541  1.0000
  C   C997      1.0  0.10550  0.68943  0.27086  1.0000
  H   H792      1.0  0.43906  0.62646  0.35181  1.0000
  H   H793      1.0  0.41155  0.92229  0.26769  1.0000
  H   H794      1.0  0.32688  0.55446  0.29132  1.0000
  C   C998      1.0  0.38455  0.51237  0.39456  1.0000
  C   C999      1.0  0.04919  0.70430  0.27377  1.0000
  H   H795      1.0  0.21346  0.96901  0.34027  1.0000
  C   C1000     1.0  0.01493  0.59183  0.26163  1.0000
  C   C1001     1.0  0.11993  0.83228  0.46385  1.0000
  C   C1002     1.0  0.01205  0.63730  0.27441  1.0000
  H   H796      1.0  0.28477  0.50238  0.34525  1.0000
  H   H797      1.0  0.21277  0.85946  0.35652  1.0000
  C   C1003     1.0  0.99850  0.62972  0.33797  1.0000
  C   C1004     1.0  0.39528  0.68715  0.25884  1.0000
  C   C1005     1.0  0.46764  0.91726  0.27788  1.0000
  H   H798      1.0  0.13656  0.66425  0.30283  1.0000
  C   C1006     1.0  0.10193  0.64204  0.29457  1.0000
  C   C1007     1.0  0.08365  0.64271  0.28301  1.0000
  H   H799      1.0  0.01026  0.65467  0.27939  1.0000
  H   H800      1.0  0.47906  0.86443  0.28728  1.0000
  H   H801      1.0  0.05452  0.69498  0.28627  1.0000
  C   C1008     1.0  0.99837  0.70975  0.40345  1.0000
  H   H802      1.0  0.41909  0.93161  0.35442  1.0000
  H   H803      1.0  0.00392  0.73331  0.34048  1.0000
  H   H804      1.0  0.10052  0.62365  0.30376  1.0000
  H   H805      1.0  0.06834  0.62466  0.28345  1.0000
  H   H806      1.0  0.24961  0.89642  0.36121  1.0000
  H   H807      1.0  0.09099  0.65935  0.34233  1.0000
  H   H808      1.0  0.35825  0.66045  0.25750  1.0000
  C   C1009     1.0  0.26423  0.98475  0.37306  1.0000
  H   H809      1.0  0.11406  0.51875  0.23629  1.0000
  H   H810      1.0  0.36732  0.56403  0.30349  1.0000
  C   C1010     1.0  0.05183  0.69537  0.25637  1.0000
  H   H811      1.0  0.11899  0.68066  0.23546  1.0000
  C   C1011     1.0  0.34955  0.55048  0.31283  1.0000
  P   P36       1.0  0.20809  0.91277  0.34653  1.0000
  C   C1012     1.0  0.19626  0.88276  0.33790  1.0000
  C   C1013     1.0  0.21395  0.90523  0.37062  1.0000
  C   C1014     1.0  0.23586  0.89760  0.37340  1.0000
  C   C1015     1.0  0.24072  0.89226  0.39191  1.0000
  C   C1016     1.0  0.22361  0.89417  0.40784  1.0000
  C   C1017     1.0  0.20185  0.90180  0.40526  1.0000
  C   C1018     1.0  0.19697  0.90733  0.38674  1.0000
  C   C1019     1.0  0.04049  0.52943  0.24357  1.0000
  H   H812      1.0  0.45548  0.89726  0.27910  1.0000
  C   C1020     1.0  0.25947  0.94677  0.33648  1.0000
  C   C1021     1.0  0.03904  0.90441  0.45144  1.0000
  C   C1022     1.0  0.23853  0.96520  0.40538  1.0000
  H   H813      1.0  0.40372  0.50442  0.33306  1.0000
  C   C1023     1.0  0.46117  0.64049  0.28214  1.0000
  C   C1024     1.0  0.46933  0.93583  0.26157  1.0000
  S   S136      1.0  0.14720  0.98284  0.38539  1.0000
  C   C1025     1.0  0.46558  0.49356  0.27339  1.0000
  H   H814      1.0  0.03915  0.81678  0.47472  1.0000
  C   C1026     1.0  0.45154  0.53156  0.37312  1.0000
  H   H815      1.0  0.34392  0.88432  0.27642  1.0000
  C   C1027     1.0  0.33947  0.49431  0.29314  1.0000
  C   C1028     1.0  0.32776  0.98277  0.25133  1.0000
  C   C1029     1.0  0.06384  0.89723  0.47573  1.0000
  C   C1030     1.0  0.44511  0.83070  0.29931  1.0000
  H   H816      1.0  0.29907  0.97232  0.32908  1.0000
  C   C1031     1.0  0.12220  0.66492  0.29407  1.0000
  C   C1032     1.0  0.04153  0.88195  0.44517  1.0000
  C   C1033     1.0  0.03508  0.63777  0.26225  1.0000
  H   H817      1.0  0.42705  0.98646  0.23797  1.0000
  H   H818      1.0  0.98957  0.98311  0.43573  1.0000
  H   H819      1.0  0.44913  0.52344  0.40379  1.0000
  C   C1034     1.0  0.98715  0.73765  0.31559  1.0000
  H   H820      1.0  0.13381  0.96782  0.34566  1.0000
  H   H821      1.0  0.05785  0.85050  0.44838  1.0000
  H   H822      1.0  0.35607  0.51074  0.28521  1.0000
  C   C1035     1.0  0.03643  0.61476  0.25604  1.0000
  H   H823      1.0  0.39292  0.68015  0.27422  1.0000
  C   C1036     1.0  0.05532  0.86720  0.45405  1.0000
  H   H824      1.0  0.45919  0.92961  0.25047  1.0000
  C   C1037     1.0  0.98534  0.68585  0.31455  1.0000
  C   C1038     1.0  0.34532  0.86749  0.25131  1.0000
  H   H825      1.0  0.39041  0.51555  0.24492  1.0000
  C   C1039     1.0  0.00388  0.69045  0.36930  1.0000
  H   H826      1.0  0.38568  0.95202  0.23872  1.0000
  H   H827      1.0  0.46576  0.63572  0.25263  1.0000
  H   H828      1.0  0.16134  0.52817  0.23481  1.0000
  H   H829      1.0  0.97971  0.80882  0.44277  1.0000
  H   H830      1.0  0.98702  0.75741  0.31645  1.0000
  H   H831      1.0  0.35276  0.96548  0.29346  1.0000
  C   C1040     1.0  0.98627  0.82307  0.46855  1.0000
  C   C1041     1.0  0.33928  0.91006  0.25186  1.0000
  Fe  Fe67      1.0  0.39504  0.98101  0.36018  1.0000
  H   H832      1.0  0.99051  0.59140  0.33068  1.0000
  C   C1042     1.0  0.24202  0.98104  0.38724  1.0000
  C   C1043     1.0  0.01624  0.96949  0.47433  1.0000
  H   H833      1.0  0.02824  0.98106  0.39724  1.0000
  Fe  Fe68      1.0  0.35797  0.98332  0.33350  1.0000
  C   C1044     1.0  0.36906  0.96921  0.28155  1.0000
  H   H834      1.0  0.47299  0.60920  0.39625  1.0000
  C   C1045     1.0  0.39231  0.98918  0.28065  1.0000
  C   C1046     1.0  0.28648  0.96052  0.23418  1.0000
  C   C1047     1.0  0.43918  0.52979  0.66679  1.0000
  H   H835      1.0  0.07290  0.90391  0.48713  1.0000
  H   H836      1.0  0.09913  0.63196  0.65274  1.0000
  H   H837      1.0  0.98679  0.70133  0.71555  1.0000
  C   C1048     1.0  0.99861  0.72116  0.68562  1.0000
  H   H838      1.0  0.10411  0.51952  0.63090  1.0000
  C   C1049     1.0  0.42513  0.94735  0.67122  1.0000
  C   C1050     1.0  0.08573  0.61296  0.66045  1.0000
  H   H839      1.0  0.41968  0.63290  0.66478  1.0000
  C   C1051     1.0  0.44330  0.95847  0.60669  1.0000
  C   C1052     1.0  0.36497  0.51512  0.66776  1.0000
  H   H840      1.0  0.16241  0.91885  0.49576  1.0000
  C   C1053     1.0  0.01366  0.60371  0.70875  1.0000
  H   H841      1.0  0.02476  0.75391  0.52309  1.0000
  C   C1054     1.0  0.44236  0.88770  0.66860  1.0000
  C   C1055     1.0  0.07363  0.96264  0.50192  1.0000
  H   H842      1.0  0.08348  0.54957  0.64446  1.0000
  C   C1056     1.0  0.04314  0.49397  0.62286  1.0000
  C   C1057     1.0  0.03050  0.64805  0.67866  1.0000
  C   C1058     1.0  0.13493  0.57612  0.72162  1.0000
  C   C1059     1.0  0.07199  0.53419  0.63844  1.0000
  S   S137      1.0  0.98520  0.86160  0.54911  1.0000
  C   C1060     1.0  0.14257  0.90576  0.50120  1.0000
  H   H843      1.0  0.32709  0.82665  0.72741  1.0000
  H   H844      1.0  0.01794  0.50362  0.67695  1.0000
  S   S138      1.0  0.05008  0.87362  0.57298  1.0000
  C   C1061     1.0  0.34443  0.90326  0.70762  1.0000
  H   H845      1.0  0.99844  0.61533  0.59157  1.0000
  C   C1062     1.0  0.46893  0.50901  0.68937  1.0000
  H   H846      1.0  0.39678  0.57186  0.71591  1.0000
  H   H847      1.0  0.44481  0.82601  0.66642  1.0000
  H   H848      1.0  0.09073  0.93202  0.50815  1.0000
  C   C1063     1.0  0.42202  0.91184  0.60983  1.0000
  H   H849      1.0  0.41011  0.93490  0.66545  1.0000
  H   H850      1.0  0.12468  0.56363  0.69596  1.0000
  C   C1064     1.0  0.06945  0.49725  0.62276  1.0000
  C   C1065     1.0  0.08482  0.60447  0.68002  1.0000
  C   C1066     1.0  0.45006  0.94440  0.66937  1.0000
  P   P37       1.0  0.02972  0.55240  0.64853  1.0000
  C   C1067     1.0  0.07300  0.81307  0.51061  1.0000
  C   C1068     1.0  0.00034  0.53220  0.66566  1.0000
  H   H851      1.0  0.98657  0.97569  0.56604  1.0000
  C   C1069     1.0  0.31969  0.89153  0.70418  1.0000
  H   H852      1.0  0.44774  0.97866  0.59919  1.0000
  C   C1070     1.0  0.12947  0.89122  0.48914  1.0000
  P   P38       1.0  0.41826  0.54411  0.65490  1.0000
  H   H853      1.0  0.46623  0.56760  0.66687  1.0000
  C   C1071     1.0  0.05221  0.49862  0.71844  1.0000
  C   C1072     1.0  0.43135  0.90654  0.62661  1.0000
  C   C1073     1.0  0.46106  0.54650  0.67154  1.0000
  H   H854      1.0  0.38408  0.96981  0.73022  1.0000
  H   H855      1.0  0.28487  0.89783  0.69691  1.0000
  H   H856      1.0  0.42050  0.94191  0.58702  1.0000
  C   C1074     1.0  0.02491  0.70027  0.63387  1.0000
  H   H857      1.0  0.09717  0.61698  0.68761  1.0000
  C   C1075     1.0  0.04723  0.70109  0.60175  1.0000
  C   C1076     1.0  0.38840  0.51898  0.65473  1.0000
  C   C1077     1.0  0.47364  0.61239  0.70205  1.0000
  C   C1078     1.0  0.30420  0.90698  0.69926  1.0000
  S   S139      1.0  0.99530  0.84167  0.50078  1.0000
  H   H858      1.0  0.11837  0.51695  0.70849  1.0000
  C   C1079     1.0  0.05796  0.49186  0.70044  1.0000
  H   H859      1.0  0.06271  0.77990  0.53440  1.0000
  C   C1080     1.0  0.46837  0.50872  0.59002  1.0000
  C   C1081     1.0  0.31374  0.93432  0.69705  1.0000
  S   S140      1.0  0.99280  0.75360  0.58194  1.0000
  H   H860      1.0  0.07493  0.50432  0.68970  1.0000
  H   H861      1.0  0.03711  0.54569  0.68889  1.0000
  C   C1082     1.0  0.00070  0.50983  0.67824  1.0000
  P   P39       1.0  0.45790  0.92132  0.65570  1.0000
  C   C1083     1.0  0.07672  0.96284  0.56892  1.0000
  C   C1084     1.0  0.05032  0.94927  0.56990  1.0000
  C   C1085     1.0  0.04180  0.92185  0.57122  1.0000
  C   C1086     1.0  0.05974  0.90797  0.57133  1.0000
  C   C1087     1.0  0.08611  0.92156  0.57037  1.0000
  C   C1088     1.0  0.09461  0.94890  0.56907  1.0000
  H   H862      1.0  0.03649  0.96003  0.56971  1.0000
  H   H863      1.0  0.02145  0.91138  0.57222  1.0000
  H   H864      1.0  0.10008  0.91092  0.57061  1.0000
  H   H865      1.0  0.11497  0.95913  0.56832  1.0000
  C   C1089     1.0  0.03100  0.51015  0.63129  1.0000
  C   C1090     1.0  0.00522  0.60375  0.60207  1.0000
  C   C1091     1.0  0.14572  0.97702  0.50333  1.0000
  S   S141      1.0  0.36343  0.88338  0.71345  1.0000
  C   C1092     1.0  0.06737  0.58009  0.69006  1.0000
  S   S142      1.0  0.98106  0.81904  0.58819  1.0000
  C   C1093     1.0  0.00253  0.70848  0.70289  1.0000
  H   H866      1.0  0.12647  0.96498  0.51122  1.0000
  H   H867      1.0  0.06471  0.65994  0.69054  1.0000
  H   H868      1.0  0.47427  0.59537  0.71173  1.0000
  C   C1094     1.0  0.33885  0.94623  0.69998  1.0000
  H   H869      1.0  0.03902  0.76020  0.60422  1.0000
  C   C1095     1.0  0.43253  0.50246  0.67323  1.0000
  S   S143      1.0  0.29321  0.95272  0.69160  1.0000
  C   C1096     1.0  0.41491  0.61237  0.67152  1.0000
  C   C1097     1.0  0.42256  0.88121  0.68522  1.0000
  C   C1098     1.0  0.07351  0.93799  0.51121  1.0000
  C   C1099     1.0  0.45263  0.95322  0.62343  1.0000
  C   C1100     1.0  0.40223  0.57811  0.70034  1.0000
  C   C1101     1.0  0.46291  0.63048  0.70928  1.0000
  H   H870      1.0  0.00830  0.57531  0.58467  1.0000
  H   H871      1.0  0.47875  0.93868  0.71921  1.0000
  H   H872      1.0  0.01537  0.68935  0.64837  1.0000
  H   H873      1.0  0.02920  0.69355  0.71678  1.0000
  C   C1102     1.0  0.02929  0.95351  0.51940  1.0000
  H   H874      1.0  0.45637  0.49046  0.63889  1.0000
  Fe  Fe69      1.0  0.98853  0.83000  0.53298  1.0000
  C   C1103     1.0  0.03559  0.68765  0.62074  1.0000
  H   H875      1.0  0.45447  0.66675  0.70219  1.0000
  C   C1104     1.0  0.04548  0.53084  0.63866  1.0000
  H   H876      1.0  0.47301  0.56336  0.63258  1.0000
  Fe  Fe70      1.0  0.01291  0.84949  0.56567  1.0000
  H   H877      1.0  0.42597  0.88639  0.63430  1.0000
  H   H878      1.0  0.46409  0.59295  0.57610  1.0000
  C   C1105     1.0  0.41081  0.85497  0.69490  1.0000
  C   C1106     1.0  0.12969  0.90450  0.51993  1.0000
  C   C1107     1.0  0.10369  0.88864  0.52664  1.0000
  C   C1108     1.0  0.09042  0.87433  0.51456  1.0000
  C   C1109     1.0  0.98365  0.81654  0.48855  1.0000
  C   C1110     1.0  0.47187  0.65625  0.67679  1.0000
  H   H879      1.0  0.00277  0.62803  0.62292  1.0000
  C   C1111     1.0  0.46930  0.96136  0.67650  1.0000
  H   H880      1.0  0.99086  0.70554  0.60539  1.0000
  H   H881      1.0  0.34629  0.96736  0.69829  1.0000
  H   H882      1.0  0.01689  0.60122  0.64739  1.0000
  C   C1112     1.0  0.42799  0.93779  0.59987  1.0000
  C   C1113     1.0  0.45033  0.86761  0.66190  1.0000
  H   H883      1.0  0.98962  0.93513  0.58534  1.0000
  C   C1114     1.0  0.06623  0.82420  0.49390  1.0000
  H   H884      1.0  0.99493  0.89692  0.49421  1.0000
  C   C1115     1.0  0.01866  0.56582  0.61204  1.0000
  H   H885      1.0  0.13969  0.91627  0.52909  1.0000
  H   H886      1.0  0.09366  0.88787  0.54109  1.0000
  H   H887      1.0  0.07003  0.86272  0.51982  1.0000
  C   C1116     1.0  0.06905  0.59714  0.65093  1.0000
  Fe  Fe71      1.0  0.98517  0.79071  0.56900  1.0000
  C   C1117     1.0  0.34251  0.49458  0.66778  1.0000
  H   H888      1.0  0.05686  0.73760  0.58117  1.0000
  C   C1118     1.0  0.43326  0.56038  0.63011  1.0000
  C   C1119     1.0  0.41748  0.56576  0.61736  1.0000
  C   C1120     1.0  0.42856  0.57757  0.59796  1.0000
  C   C1121     1.0  0.45548  0.58417  0.59117  1.0000
  C   C1122     1.0  0.01069  0.58119  0.59823  1.0000
  C   C1123     1.0  0.46032  0.56736  0.62322  1.0000
  H   H889      1.0  0.46567  0.87228  0.64912  1.0000
  H   H890      1.0  0.42455  0.60097  0.64470  1.0000
  C   C1124     1.0  0.04603  0.64511  0.69202  1.0000
  C   C1125     1.0  0.43890  0.98366  0.68717  1.0000
  H   H891      1.0  0.39655  0.56051  0.62239  1.0000
  H   H892      1.0  0.41622  0.58127  0.58815  1.0000
  H   H893      1.0  0.13725  0.59660  0.71618  1.0000
  C   C1126     1.0  0.40722  0.60437  0.69160  1.0000
  H   H894      1.0  0.01409  0.77215  0.49268  1.0000
  H   H895      1.0  0.45985  0.50409  0.57783  1.0000
  H   H896      1.0  0.01208  0.95931  0.52299  1.0000
  C   C1127     1.0  0.02144  0.79210  0.62340  1.0000
  H   H897      1.0  0.07013  0.60392  0.63573  1.0000
  C   C1128     1.0  0.41240  0.56764  0.66885  1.0000
  C   C1129     1.0  0.12408  0.53097  0.71751  1.0000
  C   C1130     1.0  0.01574  0.59569  0.63356  1.0000
  H   H898      1.0  0.02883  0.83002  0.60520  1.0000
  H   H899      1.0  0.03738  0.66518  0.66703  1.0000
  C   C1131     1.0  0.46255  0.65264  0.69665  1.0000
  C   C1132     1.0  0.08385  0.51727  0.63066  1.0000
  P   P40       1.0  0.01286  0.74260  0.64589  1.0000
  C   C1133     1.0  0.01864  0.72960  0.66896  1.0000
  C   C1134     1.0  0.02626  0.72665  0.62833  1.0000
  H   H900      1.0  0.40691  0.50489  0.63160  1.0000
  H   H901      1.0  0.31695  0.96574  0.73176  1.0000
  H   H902      1.0  0.40962  0.81482  0.69575  1.0000
  C   C1135     1.0  0.02113  0.57287  0.62990  1.0000
  C   C1136     1.0  0.03816  0.74010  0.60923  1.0000
  C   C1137     1.0  0.43858  0.84140  0.67165  1.0000
  H   H903      1.0  0.06479  0.51616  0.72161  1.0000
  C   C1138     1.0  0.02642  0.70420  0.70364  1.0000
  C   C1139     1.0  0.04665  0.71320  0.68728  1.0000
  C   C1140     1.0  0.04283  0.72588  0.67000  1.0000
  C   C1141     1.0  0.02861  0.77775  0.63844  1.0000
  C   C1142     1.0  0.38894  0.50229  0.64164  1.0000
  C   C1143     1.0  0.03404  0.81914  0.61707  1.0000
  C   C1144     1.0  0.05373  0.83215  0.62573  1.0000
  C   C1145     1.0  0.06081  0.81810  0.64085  1.0000
  C   C1146     1.0  0.04832  0.79097  0.64721  1.0000
  C   C1147     1.0  0.41971  0.96713  0.67991  1.0000
  H   H904      1.0  0.40584  0.61862  0.70046  1.0000
  C   C1148     1.0  0.99791  0.60670  0.69520  1.0000
  C   C1149     1.0  0.41761  0.59412  0.66014  1.0000
  C   C1150     1.0  0.35395  0.93055  0.70575  1.0000
  H   H905      1.0  0.08980  0.82374  0.51563  1.0000
  C   C1151     1.0  0.04843  0.72728  0.59600  1.0000
  H   H906      1.0  0.03454  0.66735  0.62534  1.0000
  C   C1152     1.0  0.02923  0.92887  0.52846  1.0000
  C   C1153     1.0  0.12776  0.55753  0.71027  1.0000
  H   H907      1.0  0.40173  0.53971  0.69608  1.0000
  C   C1154     1.0  0.03040  0.78367  0.49780  1.0000
  C   C1155     1.0  0.41879  0.83508  0.68815  1.0000
  H   H908      1.0  0.06507  0.70963  0.68784  1.0000
  H   H909      1.0  0.05848  0.73203  0.65728  1.0000
  H   H910      1.0  0.36398  0.52746  0.67817  1.0000
  C   C1156     1.0  0.40495  0.55987  0.68904  1.0000
  H   H911      1.0  0.06360  0.85310  0.62053  1.0000
  H   H912      1.0  0.07618  0.82824  0.64749  1.0000
  H   H913      1.0  0.05426  0.78048  0.65881  1.0000
  H   H914      1.0  0.01032  0.50669  0.63184  1.0000
  H   H915      1.0  0.01230  0.91613  0.53907  1.0000
  H   H916      1.0  0.37303  0.93945  0.70851  1.0000
  H   H917      1.0  0.31241  0.87045  0.70552  1.0000
  H   H918      1.0  0.05130  0.90192  0.53152  1.0000
  H   H919      1.0  0.05502  0.69113  0.59145  1.0000
  C   C1157     1.0  0.05089  0.57293  0.66106  1.0000
  C   C1158     1.0  0.00637  0.62907  0.68018  1.0000
  C   C1159     1.0  0.05050  0.56434  0.68065  1.0000
  C   C1160     1.0  0.00784  0.61102  0.61970  1.0000
  C   C1161     1.0  0.05130  0.97039  0.50575  1.0000
  H   H920      1.0  0.00726  0.58643  0.72025  1.0000
  H   H921      1.0  0.00653  0.78229  0.61620  1.0000
  H   H922      1.0  0.06637  0.57373  0.70532  1.0000
  C   C1162     1.0  0.03782  0.62307  0.70710  1.0000
  C   C1163     1.0  0.46639  0.50109  0.62442  1.0000
  H   H923      1.0  0.41617  0.89626  0.69083  1.0000
  S   S144      1.0  0.98825  0.63493  0.66266  1.0000
  C   C1164     1.0  0.44687  0.92725  0.63347  1.0000
  S   S145      1.0  0.05918  0.62105  0.72295  1.0000
  H   H924      1.0  0.47078  0.67300  0.66704  1.0000
  C   C1165     1.0  0.05126  0.92098  0.52429  1.0000
  H   H925      1.0  0.01708  0.95259  0.48403  1.0000
  H   H926      1.0  0.39541  0.85008  0.70766  1.0000
  C   C1166     1.0  0.47131  0.57914  0.60380  1.0000
  S   S146      1.0  0.01891  0.82059  0.54762  1.0000
  H   H927      1.0  0.25923  0.84430  0.71274  1.0000
  H   H928      1.0  0.02241  0.54834  0.60870  1.0000
  C   C1167     1.0  0.45524  0.49486  0.60868  1.0000
  C   C1168     1.0  0.10334  0.87522  0.49578  1.0000
  C   C1169     1.0  0.46363  0.98071  0.68555  1.0000
  C   C1170     1.0  0.47595  0.53617  0.68271  1.0000
  H   H929      1.0  0.09126  0.97536  0.49199  1.0000
  C   C1171     1.0  0.03659  0.77327  0.51481  1.0000
  H   H930      1.0  0.46412  0.96949  0.62870  1.0000
  H   H931      1.0  0.40981  0.89586  0.60470  1.0000
  H   H932      1.0  0.29723  0.78414  0.72402  1.0000
  C   C1172     1.0  0.04490  0.80911  0.48752  1.0000
  C   C1173     1.0  0.15403  0.97659  0.48393  1.0000
  C   C1174     1.0  0.05796  0.78794  0.52117  1.0000
  H   H933      1.0  0.40093  0.97025  0.68038  1.0000
  C   C1175     1.0  0.44748  0.49215  0.68442  1.0000
  H   H934      1.0  0.24725  0.79631  0.72560  1.0000
  C   C1176     1.0  0.25485  0.83669  0.72819  1.0000
  H   H935      1.0  0.97949  0.59172  0.69624  1.0000
  H   H936      1.0  0.97972  0.72359  0.68521  1.0000
  H   H937      1.0  0.32464  0.49126  0.67816  1.0000
  Fe  Fe72      1.0  0.07576  0.56524  0.77859  1.0000
  S   S147      1.0  0.05531  0.59558  0.77693  1.0000
  S   S148      1.0  0.10993  0.56398  0.79255  1.0000
  Fe  Fe73      1.0  0.03609  0.52829  0.76138  1.0000
  S   S149      1.0  0.01158  0.55511  0.75839  1.0000
  P   P41       1.0  0.46022  0.53137  0.94829  1.0000
  Fe  Fe74      1.0  0.36910  0.83878  0.89760  1.0000
  Fe  Fe75      1.0  0.01816  0.56177  0.78764  1.0000
  C   C1177     1.0  0.25059  0.84447  0.76089  1.0000
  S   S150      1.0  0.03890  0.53205  0.79167  1.0000
  H   H938      1.0  0.37385  0.70394  0.79858  1.0000
  C   C1178     1.0  0.36015  0.86111  0.81974  1.0000
  S   S151      1.0  0.36227  0.89052  0.76575  1.0000
  C   C1179     1.0  0.34075  0.64697  0.83300  1.0000
  S   S152      1.0  0.34148  0.82162  0.92606  1.0000
  Fe  Fe76      1.0  0.40905  0.81361  0.90950  1.0000
  S   S153      1.0  0.38413  0.79379  0.93892  1.0000
  C   C1180     1.0  0.21463  0.88791  0.79465  1.0000
  Fe  Fe77      1.0  0.35104  0.78484  0.92333  1.0000
  S   S154      1.0  0.31708  0.74742  0.93171  1.0000
  Fe  Fe78      1.0  0.37695  0.83252  0.93881  1.0000
  S   S155      1.0  0.37677  0.80125  0.89380  1.0000
  Fe  Fe79      1.0  0.38538  0.62011  0.93388  1.0000
  S   S156      1.0  0.39030  0.66231  0.92216  1.0000
  Fe  Fe80      1.0  0.41447  0.61313  0.89668  1.0000
  S   S157      1.0  0.42269  0.65490  0.88191  1.0000
  Fe  Fe81      1.0  0.43134  0.66513  0.90979  1.0000
  S   S158      1.0  0.46596  0.69996  0.90961  1.0000
  Fe  Fe82      1.0  0.38109  0.64886  0.89525  1.0000
  S   S159      1.0  0.35929  0.66805  0.87679  1.0000
  S   S160      1.0  0.42732  0.62359  0.92349  1.0000
  S   S161      1.0  0.37195  0.60615  0.90817  1.0000
  Fe  Fe83      1.0  0.22048  0.68943  0.87496  1.0000
  S   S162      1.0  0.21734  0.65790  0.90012  1.0000
  S   S163      1.0  0.24695  0.73134  0.86954  1.0000
  Fe  Fe84      1.0  0.18134  0.65287  0.85726  1.0000
  S   S164      1.0  0.17416  0.61783  0.88115  1.0000
  S   S165      1.0  0.16506  0.65789  0.83020  1.0000
  Fe  Fe85      1.0  0.17428  0.64611  0.90119  1.0000
  S   S166      1.0  0.14553  0.63753  0.92951  1.0000
  Fe  Fe86      1.0  0.21771  0.63220  0.87850  1.0000
  S   S167      1.0  0.24154  0.60466  0.88009  1.0000
  S   S168      1.0  0.17737  0.67996  0.87755  1.0000
  S   S169      1.0  0.22503  0.66480  0.85298  1.0000
  C   C1181     1.0  0.15709  0.62926  0.95049  1.0000
  C   C1182     1.0  0.14303  0.62908  0.96868  1.0000
  H   H939      1.0  0.98717  0.60183  0.75478  1.0000
  S   S170      1.0  0.40411  0.85316  0.91041  1.0000
  C   C1183     1.0  0.18890  0.61583  0.96606  1.0000
  C   C1184     1.0  0.18004  0.62254  0.94927  1.0000
  H   H940      1.0  0.12518  0.63414  0.96975  1.0000
  H   H941      1.0  0.14814  0.86868  0.80519  1.0000
  H   H942      1.0  0.20674  0.61101  0.96484  1.0000
  H   H943      1.0  0.19073  0.62199  0.93545  1.0000
  C   C1185     1.0  0.32651  0.64995  0.87850  1.0000
  C   C1186     1.0  0.31819  0.62247  0.88207  1.0000
  C   C1187     1.0  0.29207  0.60855  0.88240  1.0000
  C   C1188     1.0  0.27427  0.62210  0.87934  1.0000
  C   C1189     1.0  0.28270  0.64958  0.87572  1.0000
  C   C1190     1.0  0.30883  0.66346  0.87515  1.0000
  H   H944      1.0  0.33193  0.61198  0.88423  1.0000
  H   H945      1.0  0.28565  0.58732  0.88518  1.0000
  H   H946      1.0  0.26907  0.66017  0.87344  1.0000
  H   H947      1.0  0.31528  0.68468  0.87252  1.0000
  C   C1191     1.0  0.45304  0.79717  0.84886  1.0000
  S   S171      1.0  0.45090  0.62691  0.73404  1.0000
  H   H948      1.0  0.44255  0.68460  0.95629  1.0000
  Fe  Fe87      1.0  0.43530  0.89692  0.75075  1.0000
  Fe  Fe88      1.0  0.39784  0.53066  0.75255  1.0000
  H   H949      1.0  0.24077  0.64127  0.78058  1.0000
  C   C1192     1.0  0.29684  0.74457  0.91484  1.0000
  C   C1193     1.0  0.30622  0.75915  0.89595  1.0000
  C   C1194     1.0  0.29098  0.75481  0.88200  1.0000
  C   C1195     1.0  0.26584  0.73648  0.88713  1.0000
  C   C1196     1.0  0.25594  0.72276  0.90625  1.0000
  C   C1197     1.0  0.27149  0.72676  0.92005  1.0000
  H   H950      1.0  0.32536  0.77347  0.89208  1.0000
  H   H951      1.0  0.29865  0.76566  0.86726  1.0000
  H   H952      1.0  0.23624  0.70920  0.91047  1.0000
  H   H953      1.0  0.26389  0.71603  0.93475  1.0000
  C   C1198     1.0  0.47101  0.82206  0.84705  1.0000
  H   H954      1.0  0.41521  0.60800  0.96604  1.0000
  C   C1199     1.0  0.41167  0.57700  0.86305  1.0000
  C   C1200     1.0  0.46047  0.73065  0.90697  1.0000
  C   C1201     1.0  0.43577  0.73283  0.91340  1.0000
  C   C1202     1.0  0.43202  0.75765  0.91098  1.0000
  S   S172      1.0  0.47503  0.89203  0.74747  1.0000
  S   S173      1.0  0.42934  0.58577  0.88088  1.0000
  H   H955      1.0  0.41965  0.71548  0.92050  1.0000
  H   H956      1.0  0.41292  0.75924  0.91602  1.0000
  C   C1203     1.0  0.28838  0.76674  0.75445  1.0000
  C   C1204     1.0  0.42461  0.76962  0.80070  1.0000
  C   C1205     1.0  0.45590  0.78233  0.83470  1.0000
  H   H957      1.0  0.03788  0.67571  0.75990  1.0000
  P   P42       1.0  0.43301  0.74996  0.83693  1.0000
  H   H958      1.0  0.45225  0.79284  0.94326  1.0000
  C   C1206     1.0  0.41870  0.74766  0.81583  1.0000
  H   H959      1.0  0.46707  0.88252  0.79389  1.0000
  H   H960      1.0  0.27490  0.74862  0.75278  1.0000
  C   C1207     1.0  0.44798  0.88040  0.82338  1.0000
  H   H961      1.0  0.18669  0.90446  0.80803  1.0000
  S   S174      1.0  0.07428  0.55948  0.74833  1.0000
  H   H962      1.0  0.20991  0.57336  0.78574  1.0000
  S   S175      1.0  0.36892  0.55842  0.81447  1.0000
  C   C1208     1.0  0.98990  0.62216  0.75554  1.0000
  C   C1209     1.0  0.27757  0.66473  0.92191  1.0000
  C   C1210     1.0  0.01425  0.63752  0.75765  1.0000
  C   C1211     1.0  0.45454  0.94653  0.84852  1.0000
  H   H963      1.0  0.44566  0.97172  0.86730  1.0000
  C   C1212     1.0  0.12247  0.58967  0.80435  1.0000
  C   C1213     1.0  0.12401  0.61552  0.79681  1.0000
  C   C1214     1.0  0.13672  0.63615  0.80514  1.0000
  C   C1215     1.0  0.14748  0.63107  0.82129  1.0000
  C   C1216     1.0  0.14503  0.60509  0.82932  1.0000
  C   C1217     1.0  0.13285  0.58449  0.82070  1.0000
  H   H964      1.0  0.11613  0.61971  0.78420  1.0000
  H   H965      1.0  0.13842  0.65618  0.79893  1.0000
  H   H966      1.0  0.15297  0.60094  0.84191  1.0000
  H   H967      1.0  0.13164  0.56451  0.82664  1.0000
  C   C1218     1.0  0.27179  0.89889  0.76410  1.0000
  H   H968      1.0  0.34860  0.79609  0.83740  1.0000
  C   C1219     1.0  0.13400  0.54156  0.74771  1.0000
  H   H969      1.0  0.38524  0.74263  0.77176  1.0000
  C   C1220     1.0  0.38500  0.56465  0.83346  1.0000
  C   C1221     1.0  0.13802  0.56812  0.74035  1.0000
  H   H970      1.0  0.34896  0.95633  0.83775  1.0000
  C   C1222     1.0  0.34470  0.67825  0.96896  1.0000
  C   C1223     1.0  0.36739  0.69896  0.95997  1.0000
  C   C1224     1.0  0.37011  0.72422  0.96327  1.0000
  C   C1225     1.0  0.41518  0.83835  0.83862  1.0000
  H   H971      1.0  0.17722  0.52627  0.74195  1.0000
  H   H972      1.0  0.37081  0.49236  0.85768  1.0000
  C   C1226     1.0  0.39455  0.74401  0.78402  1.0000
  C   C1227     1.0  0.25223  0.59012  0.81555  1.0000
  C   C1228     1.0  0.32513  0.56507  0.76726  1.0000
  C   C1229     1.0  0.30095  0.57572  0.92995  1.0000
  C   C1230     1.0  0.35016  0.82564  0.85467  1.0000
  Fe  Fe89      1.0  0.05023  0.58687  0.74780  1.0000
  H   H973      1.0  0.30101  0.59199  0.91917  1.0000
  C   C1231     1.0  0.01891  0.66403  0.75825  1.0000
  H   H974      1.0  0.02969  0.62890  0.75856  1.0000
  Fe  Fe90      1.0  0.39516  0.55363  0.78873  1.0000
  C   C1232     1.0  0.32983  0.97423  0.79606  1.0000
  H   H975      1.0  0.34188  0.67499  0.92138  1.0000
  H   H976      1.0  0.31806  0.55966  0.83176  1.0000
  C   C1233     1.0  0.33956  0.95429  0.82559  1.0000
  S   S176      1.0  0.44120  0.55000  0.74273  1.0000
  C   C1234     1.0  0.47763  0.64334  0.96567  1.0000
  H   H977      1.0  0.22047  0.52030  0.73934  1.0000
  H   H978      1.0  0.23952  0.82136  0.97789  1.0000
  H   H979      1.0  0.25743  0.73988  0.96596  1.0000
  H   H980      1.0  0.33611  0.93231  0.74515  1.0000
  H   H981      1.0  0.38295  0.69545  0.95053  1.0000
  H   H982      1.0  0.38756  0.74023  0.95601  1.0000
  C   C1235     1.0  0.41931  0.82914  0.82162  1.0000
  H   H983      1.0  0.23591  0.97287  0.79230  1.0000
  C   C1236     1.0  0.31289  0.55760  0.92443  1.0000
  C   C1237     1.0  0.32108  0.66493  0.92475  1.0000
  C   C1238     1.0  0.28387  0.62622  0.93994  1.0000
  C   C1239     1.0  0.47794  0.69104  0.84914  1.0000
  C   C1240     1.0  0.42905  0.53688  0.94854  1.0000
  C   C1241     1.0  0.28873  0.57268  0.94924  1.0000
  C   C1242     1.0  0.26976  0.69084  0.97420  1.0000
  S   S177      1.0  0.37568  0.85345  0.96347  1.0000
  H   H984      1.0  0.32234  0.52250  0.93395  1.0000
  H   H985      1.0  0.34127  0.90189  0.90395  1.0000
  H   H986      1.0  0.31835  0.76124  0.96804  1.0000
  H   H987      1.0  0.32264  0.80776  0.96808  1.0000
  C   C1243     1.0  0.31878  0.59901  0.78410  1.0000
  C   C1244     1.0  0.21365  0.60328  0.82403  1.0000
  H   H988      1.0  0.42878  0.66129  0.75927  1.0000
  C   C1245     1.0  0.30441  0.67763  0.91785  1.0000
  H   H989      1.0  0.23942  0.86654  0.81923  1.0000
  H   H990      1.0  0.31222  0.69736  0.90916  1.0000
  C   C1246     1.0  0.47772  0.77812  0.89582  1.0000
  H   H991      1.0  0.46859  0.87745  0.85820  1.0000
  H   H992      1.0  0.39953  0.97635  0.81784  1.0000
  H   H993      1.0  0.33476  0.55929  0.75504  1.0000
  C   C1247     1.0  0.33105  0.59163  0.76823  1.0000
  C   C1248     1.0  0.44142  0.62966  0.80759  1.0000
  C   C1249     1.0  0.31485  0.92660  0.80706  1.0000
  C   C1250     1.0  0.32657  0.92925  0.82293  1.0000
  C   C1251     1.0  0.40788  0.98228  0.78687  1.0000
  Fe  Fe91      1.0  0.38556  0.89344  0.73650  1.0000
  C   C1252     1.0  0.24334  0.80363  0.97503  1.0000
  C   C1253     1.0  0.31628  0.94898  0.79381  1.0000
  H   H994      1.0  0.39353  0.70752  0.82730  1.0000
  C   C1254     1.0  0.27783  0.53091  0.87555  1.0000
  H   H995      1.0  0.28044  0.64297  0.81004  1.0000
  H   H996      1.0  0.97957  0.50135  0.85970  1.0000
  C   C1255     1.0  0.41204  0.95206  0.85683  1.0000
  C   C1256     1.0  0.35137  0.81667  0.83729  1.0000
  S   S178      1.0  0.40349  0.86296  0.74661  1.0000
  C   C1257     1.0  0.17117  0.84759  0.79147  1.0000
  H   H997      1.0  0.16592  0.54781  0.94875  1.0000
  C   C1258     1.0  0.26104  0.91738  0.75571  1.0000
  H   H998      1.0  0.40737  0.80990  0.82061  1.0000
  H   H999      1.0  0.40075  0.82581  0.85107  1.0000
  S   S179      1.0  0.35754  0.86488  0.87549  1.0000
  C   C1259     1.0  0.19636  0.84703  0.78458  1.0000
  Fe  Fe92      1.0  0.44177  0.53773  0.77408  1.0000
  H   H1000     1.0  0.00300  0.69607  0.75665  1.0000
  H   H1001     1.0  0.24624  0.63024  0.93667  1.0000
  C   C1260     1.0  0.41617  0.62949  0.80607  1.0000
  S   S180      1.0  0.38909  0.94964  0.78773  1.0000
  H   H1002     1.0  0.30520  0.90719  0.80480  1.0000
  H   H1003     1.0  0.32595  0.91189  0.83298  1.0000
  C   C1261     1.0  0.27803  0.98588  0.78599  1.0000
  C   C1262     1.0  0.37530  0.57687  0.84742  1.0000
  H   H1004     1.0  0.30710  0.94668  0.78161  1.0000
  H   H1005     1.0  0.16914  0.82758  0.95880  1.0000
  H   H1006     1.0  0.35923  0.90338  0.93372  1.0000
  H   H1007     1.0  0.24311  0.56633  0.85542  1.0000
  C   C1263     1.0  0.20577  0.56756  0.93359  1.0000
  H   H1008     1.0  0.39861  0.50385  0.82497  1.0000
  C   C1264     1.0  0.29706  0.64363  0.81659  1.0000
  C   C1265     1.0  0.45285  0.87051  0.80663  1.0000
  C   C1266     1.0  0.30071  0.57976  0.79923  1.0000
  H   H1009     1.0  0.37596  0.53809  0.98015  1.0000
  C   C1267     1.0  0.42104  0.54326  0.93123  1.0000
  C   C1268     1.0  0.19218  0.55397  0.96838  1.0000
  H   H1010     1.0  0.28780  0.69392  0.96409  1.0000
  C   C1269     1.0  0.40277  0.59854  0.98005  1.0000
  H   H1011     1.0  0.31545  0.52973  0.86187  1.0000
  C   C1270     1.0  0.24815  0.80970  0.73544  1.0000
  C   C1271     1.0  0.28115  0.81004  0.88436  1.0000
  C   C1272     1.0  0.25711  0.79711  0.88040  1.0000
  C   C1273     1.0  0.23403  0.79377  0.89343  1.0000
  C   C1274     1.0  0.23498  0.80391  0.91022  1.0000
  C   C1275     1.0  0.25911  0.81729  0.91418  1.0000
  C   C1276     1.0  0.28223  0.81938  0.90141  1.0000
  P   P43       1.0  0.26004  0.82936  0.93635  1.0000
  C   C1277     1.0  0.29106  0.85365  0.93555  1.0000
  C   C1278     1.0  0.23449  0.84425  0.94014  1.0000
  C   C1279     1.0  0.24003  0.87155  0.93443  1.0000
  C   C1280     1.0  0.22015  0.88289  0.93756  1.0000
  C   C1281     1.0  0.19462  0.86708  0.94634  1.0000
  C   C1282     1.0  0.18892  0.83989  0.95195  1.0000
  C   C1283     1.0  0.20872  0.82849  0.94885  1.0000
  C   C1284     1.0  0.30122  0.85504  0.95234  1.0000
  C   C1285     1.0  0.32538  0.87339  0.95171  1.0000
  C   C1286     1.0  0.33992  0.89013  0.93428  1.0000
  C   C1287     1.0  0.32979  0.88929  0.91758  1.0000
  C   C1288     1.0  0.30522  0.87152  0.91827  1.0000
  C   C1289     1.0  0.25379  0.80203  0.95621  1.0000
  C   C1290     1.0  0.25918  0.77901  0.95308  1.0000
  C   C1291     1.0  0.44312  0.72709  0.97844  1.0000
  H   H1012     1.0  0.29897  0.71751  0.76794  1.0000
  S   S181      1.0  0.47295  0.52248  0.78353  1.0000
  H   H1013     1.0  0.42459  0.87116  0.85246  1.0000
  H   H1014     1.0  0.29907  0.81177  0.87463  1.0000
  H   H1015     1.0  0.25647  0.78856  0.86771  1.0000
  H   H1016     1.0  0.21546  0.78260  0.89078  1.0000
  H   H1017     1.0  0.21688  0.80062  0.92027  1.0000
  H   H1018     1.0  0.30119  0.82781  0.90456  1.0000
  H   H1019     1.0  0.25963  0.88418  0.92764  1.0000
  H   H1020     1.0  0.22459  0.90399  0.93324  1.0000
  H   H1021     1.0  0.17926  0.87589  0.94884  1.0000
  C   C1292     1.0  0.43817  0.95815  0.85836  1.0000
  H   H1022     1.0  0.20390  0.80735  0.95334  1.0000
  H   H1023     1.0  0.29088  0.84177  0.96592  1.0000
  H   H1024     1.0  0.33328  0.87401  0.96465  1.0000
  P   P44       1.0  0.28389  0.58902  0.81943  1.0000
  C   C1293     1.0  0.30078  0.78692  0.73813  1.0000
  H   H1025     1.0  0.29771  0.87129  0.90518  1.0000
  H   H1026     1.0  0.26780  0.77738  0.93882  1.0000
  S   S182      1.0  0.41946  0.92821  0.73789  1.0000
  H   H1027     1.0  0.34263  0.65858  0.96652  1.0000
  H   H1028     1.0  0.27684  0.51799  0.88894  1.0000
  C   C1294     1.0  0.43237  0.65306  0.77293  1.0000
  C   C1295     1.0  0.46101  0.68720  0.83636  1.0000
  C   C1296     1.0  0.18604  0.55550  0.95010  1.0000
  C   C1297     1.0  0.31520  0.92854  0.74862  1.0000
  C   C1298     1.0  0.28002  0.70431  0.77579  1.0000
  C   C1299     1.0  0.32184  0.81473  0.75819  1.0000
  C   C1300     1.0  0.30940  0.79466  0.77450  1.0000
  C   C1301     1.0  0.29313  0.77027  0.77272  1.0000
  S   S183      1.0  0.39893  0.51510  0.78321  1.0000
  P   P45       1.0  0.27607  0.74523  0.79414  1.0000
  C   C1302     1.0  0.26424  0.71268  0.78920  1.0000
  C   C1303     1.0  0.29667  0.74124  0.81094  1.0000
  C   C1304     1.0  0.32405  0.75182  0.80572  1.0000
  C   C1305     1.0  0.33923  0.74730  0.81906  1.0000
  C   C1306     1.0  0.32726  0.73160  0.83740  1.0000
  C   C1307     1.0  0.30013  0.72096  0.84259  1.0000
  C   C1308     1.0  0.28492  0.72570  0.82941  1.0000
  C   C1309     1.0  0.24049  0.69459  0.80007  1.0000
  C   C1310     1.0  0.23197  0.66909  0.79675  1.0000
  H   H1029     1.0  0.47760  0.72630  0.95913  1.0000
  C   C1311     1.0  0.30097  0.55462  0.84326  1.0000
  C   C1312     1.0  0.28780  0.55072  0.96284  1.0000
  C   C1313     1.0  0.24972  0.75543  0.80535  1.0000
  C   C1314     1.0  0.25319  0.77023  0.81975  1.0000
  C   C1315     1.0  0.23264  0.77782  0.82860  1.0000
  C   C1316     1.0  0.20855  0.77075  0.82313  1.0000
  C   C1317     1.0  0.20510  0.75644  0.80856  1.0000
  C   C1318     1.0  0.22568  0.74904  0.79954  1.0000
  H   H1030     1.0  0.44109  0.83832  0.79231  1.0000
  C   C1319     1.0  0.24385  0.81730  0.76808  1.0000
  H   H1031     1.0  0.33488  0.83331  0.75965  1.0000
  H   H1032     1.0  0.31268  0.79808  0.78852  1.0000
  H   H1033     1.0  0.35770  0.58193  0.84672  1.0000
  H   H1034     1.0  0.33383  0.76353  0.79148  1.0000
  H   H1035     1.0  0.36025  0.75612  0.81520  1.0000
  H   H1036     1.0  0.33884  0.72731  0.84760  1.0000
  H   H1037     1.0  0.29068  0.70917  0.85692  1.0000
  H   H1038     1.0  0.26387  0.71723  0.83368  1.0000
  H   H1039     1.0  0.22850  0.69981  0.81137  1.0000
  H   H1040     1.0  0.21335  0.65549  0.80501  1.0000
  C   C1320     1.0  0.40208  0.49041  0.83627  1.0000
  H   H1041     1.0  0.39600  0.81059  0.97241  1.0000
  P   P46       1.0  0.46590  0.91370  0.82429  1.0000
  H   H1042     1.0  0.27153  0.77540  0.82453  1.0000
  H   H1043     1.0  0.23518  0.78849  0.84012  1.0000
  H   H1044     1.0  0.19240  0.77588  0.83046  1.0000
  H   H1045     1.0  0.18624  0.75047  0.80459  1.0000
  H   H1046     1.0  0.22257  0.73774  0.78841  1.0000
  C   C1321     1.0  0.26483  0.85641  0.79733  1.0000
  C   C1322     1.0  0.25539  0.85880  0.81616  1.0000
  C   C1323     1.0  0.26668  0.85121  0.83139  1.0000
  C   C1324     1.0  0.28742  0.84117  0.82796  1.0000
  C   C1325     1.0  0.29665  0.83847  0.80936  1.0000
  C   C1326     1.0  0.28547  0.84599  0.79412  1.0000
  C   C1327     1.0  0.31091  0.63925  0.93576  1.0000
  H   H1047     1.0  0.41555  0.54894  0.82376  1.0000
  C   C1328     1.0  0.21783  0.58137  0.79728  1.0000
  H   H1048     1.0  0.41070  0.90932  0.82660  1.0000
  C   C1329     1.0  0.29901  0.90454  0.76018  1.0000
  H   H1049     1.0  0.25946  0.85316  0.84588  1.0000
  H   H1050     1.0  0.29646  0.83554  0.83965  1.0000
  H   H1051     1.0  0.31266  0.83070  0.80673  1.0000
  H   H1052     1.0  0.29315  0.84385  0.77980  1.0000
  C   C1330     1.0  0.42054  0.56353  0.84969  1.0000
  S   S184      1.0  0.43807  0.57504  0.78197  1.0000
  C   C1331     1.0  0.40229  0.93443  0.84542  1.0000
  C   C1332     1.0  0.38903  0.58374  0.86182  1.0000
  H   H1053     1.0  0.23737  0.77909  0.76092  1.0000
  H   H1054     1.0  0.25249  0.57061  0.79125  1.0000
  H   H1055     1.0  0.43739  0.55742  0.85091  1.0000
  C   C1333     1.0  0.31407  0.79306  0.98129  1.0000
  H   H1056     1.0  0.43298  0.54438  0.91737  1.0000
  S   S185      1.0  0.37305  0.50939  0.73397  1.0000
  H   H1057     1.0  0.38206  0.92981  0.84419  1.0000
  H   H1058     1.0  0.43799  0.78843  0.80112  1.0000
  C   C1334     1.0  0.30368  0.62078  0.82214  1.0000
  H   H1059     1.0  0.26910  0.95540  0.73731  1.0000
  H   H1060     1.0  0.41695  0.78493  0.77343  1.0000
  H   H1061     1.0  0.43718  0.78968  0.86145  1.0000
  C   C1335     1.0  0.46489  0.65797  0.95546  1.0000
  H   H1062     1.0  0.24612  0.67280  0.95540  1.0000
  C   C1336     1.0  0.37929  0.98674  0.73391  1.0000
  C   C1337     1.0  0.45001  0.77478  0.95325  1.0000
  C   C1338     1.0  0.31753  0.81090  0.74000  1.0000
  C   C1339     1.0  0.42983  0.76566  0.96964  1.0000
  C   C1340     1.0  0.33311  0.66921  0.82854  1.0000
  C   C1341     1.0  0.47851  0.93257  0.79984  1.0000
  C   C1342     1.0  0.38850  0.53933  0.96650  1.0000
  C   C1343     1.0  0.45095  0.72701  0.84099  1.0000
  C   C1344     1.0  0.44771  0.70519  0.83215  1.0000
  C   C1345     1.0  0.40623  0.74404  0.85699  1.0000
  C   C1346     1.0  0.38721  0.75633  0.85483  1.0000
  C   C1347     1.0  0.36674  0.75290  0.87028  1.0000
  C   C1348     1.0  0.36523  0.73741  0.88810  1.0000
  C   C1349     1.0  0.38407  0.72515  0.89039  1.0000
  C   C1350     1.0  0.40454  0.72834  0.87490  1.0000
  C   C1351     1.0  0.39961  0.72422  0.81524  1.0000
  C   C1352     1.0  0.41856  0.92276  0.83556  1.0000
  H   H1063     1.0  0.41718  0.52794  0.97978  1.0000
  C   C1353     1.0  0.38810  0.72224  0.79917  1.0000
  H   H1064     1.0  0.43484  0.70160  0.82222  1.0000
  H   H1065     1.0  0.38811  0.76860  0.84122  1.0000
  H   H1066     1.0  0.35209  0.76233  0.86842  1.0000
  H   H1067     1.0  0.34958  0.73507  0.90020  1.0000
  H   H1068     1.0  0.38261  0.71291  0.90416  1.0000
  H   H1069     1.0  0.41873  0.71839  0.87707  1.0000
  H   H1070     1.0  0.13597  0.53571  0.76241  1.0000
  C   C1354     1.0  0.27271  0.60149  0.97927  1.0000
  C   C1355     1.0  0.24616  0.67934  0.96892  1.0000
  C   C1356     1.0  0.31277  0.53632  0.93819  1.0000
  C   C1357     1.0  0.36314  0.98434  0.75173  1.0000
  H   H1071     1.0  0.28369  0.67231  0.76220  1.0000
  H   H1072     1.0  0.44264  0.49829  0.75828  1.0000
  C   C1358     1.0  0.30021  0.53287  0.95740  1.0000
  P   P47       1.0  0.25097  0.86669  0.77732  1.0000
  S   S186      1.0  0.41598  0.89423  0.78118  1.0000
  C   C1359     1.0  0.23779  0.60181  0.82730  1.0000
  C   C1360     1.0  0.44479  0.92857  0.83715  1.0000
  C   C1361     1.0  0.30442  0.94726  0.74102  1.0000
  C   C1362     1.0  0.25892  0.55834  0.85639  1.0000
  C   C1363     1.0  0.35019  0.72890  0.97563  1.0000
  C   C1364     1.0  0.32466  0.68287  0.98118  1.0000
  H   H1073     1.0  0.45761  0.49506  0.92160  1.0000
  Fe  Fe93      1.0  0.43372  0.58546  0.75144  1.0000
  C   C1365     1.0  0.24260  0.80001  0.75536  1.0000
  H   H1074     1.0  0.23998  0.61658  0.98126  1.0000
  C   C1366     1.0  0.21831  0.86724  0.78608  1.0000
  C   C1367     1.0  0.38142  0.54715  0.94921  1.0000
  H   H1075     1.0  0.34355  0.68740  0.83219  1.0000
  S   S187      1.0  0.36313  0.82495  0.79776  1.0000
  C   C1368     1.0  0.46797  0.73063  0.85386  1.0000
  H   H1076     1.0  0.32404  0.62966  0.94115  1.0000
  S   S188      1.0  0.44944  0.81182  0.89907  1.0000
  S   S189      1.0  0.36069  0.60075  0.96345  1.0000
  C   C1369     1.0  0.40779  0.55819  0.83453  1.0000
  H   H1077     1.0  0.38205  0.59430  0.87189  1.0000
  Fe  Fe94      1.0  0.39742  0.92262  0.76842  1.0000
  H   H1078     1.0  0.14255  0.58231  0.74949  1.0000
  C   C1370     1.0  0.41255  0.76778  0.78490  1.0000
  C   C1371     1.0  0.39747  0.54870  0.93159  1.0000
  H   H1079     1.0  0.33197  0.60580  0.83395  1.0000
  H   H1080     1.0  0.46861  0.83320  0.85813  1.0000
  H   H1081     1.0  0.28070  0.53798  0.80951  1.0000
  H   H1082     1.0  0.36394  0.87503  0.80635  1.0000
  C   C1372     1.0  0.42899  0.86407  0.83940  1.0000
  H   H1083     1.0  0.34608  0.81193  0.86816  1.0000
  Fe  Fe95      1.0  0.38288  0.86269  0.77596  1.0000
  H   H1084     1.0  0.24015  0.91292  0.75720  1.0000
  C   C1373     1.0  0.26723  0.63932  0.93317  1.0000
  H   H1085     1.0  0.32234  0.56021  0.90948  1.0000
  C   C1374     1.0  0.24197  0.57982  0.80053  1.0000
  C   C1375     1.0  0.35758  0.83472  0.81976  1.0000
  H   H1086     1.0  0.47002  0.58111  0.92068  1.0000
  H   H1087     1.0  0.24526  0.60996  0.83896  1.0000
  C   C1376     1.0  0.18942  0.88842  0.80151  1.0000
  H   H1088     1.0  0.39927  0.96090  0.86453  1.0000
  H   H1089     1.0  0.23947  0.80948  0.78348  1.0000
  H   H1090     1.0  0.23130  0.90366  0.79600  1.0000
  H   H1091     1.0  0.01330  0.50587  0.83105  1.0000
  C   C1377     1.0  0.30707  0.54584  0.78220  1.0000
  C   C1378     1.0  0.35837  0.86985  0.83709  1.0000
  H   H1092     1.0  0.30564  0.68493  0.81653  1.0000
  C   C1379     1.0  0.31158  0.66768  0.82000  1.0000
  H   H1093     1.0  0.35730  0.64812  0.83983  1.0000
  H   H1094     1.0  0.30288  0.52525  0.78156  1.0000
  C   C1380     1.0  0.32608  0.62285  0.82988  1.0000
  C   C1381     1.0  0.27154  0.67866  0.77263  1.0000
  C   C1382     1.0  0.46246  0.64170  0.79172  1.0000
  H   H1095     1.0  0.20265  0.61235  0.83318  1.0000
  H   H1096     1.0  0.34538  0.60642  0.75673  1.0000
  H   H1097     1.0  0.36096  0.89036  0.83685  1.0000
  H   H1098     1.0  0.26095  0.87484  0.73481  1.0000
  C   C1383     1.0  0.23155  0.57854  0.93535  1.0000
  H   H1099     1.0  0.20107  0.56906  0.91939  1.0000
  H   H1100     1.0  0.24654  0.58813  0.92239  1.0000
  C   C1384     1.0  0.45254  0.67363  0.96448  1.0000
  C   C1385     1.0  0.35474  0.85243  0.85448  1.0000
  H   H1101     1.0  0.32354  0.61965  0.78459  1.0000
  H   H1102     1.0  0.24083  0.53657  0.88535  1.0000
  H   H1103     1.0  0.44478  0.94578  0.79820  1.0000
  H   H1104     1.0  0.18518  0.59453  0.80628  1.0000
  C   C1386     1.0  0.25590  0.85402  0.74084  1.0000
  C   C1387     1.0  0.20375  0.59318  0.80896  1.0000
  S   S190      1.0  0.39030  0.56738  0.75890  1.0000
  H   H1105     1.0  0.15431  0.83199  0.79020  1.0000
  C   C1388     1.0  0.23766  0.57814  0.95370  1.0000
  C   C1389     1.0  0.29952  0.53753  0.86038  1.0000
  H   H1106     1.0  0.26472  0.67446  0.91636  1.0000
  C   C1390     1.0  0.45775  0.65374  0.77447  1.0000
  H   H1107     1.0  0.19853  0.83085  0.77806  1.0000
  H   H1108     1.0  0.39998  0.61995  0.81823  1.0000
  P   P48       1.0  0.27064  0.59424  0.95573  1.0000
  C   C1391     1.0  0.37563  0.59281  0.98253  1.0000
  C   C1392     1.0  0.28082  0.56544  0.84117  1.0000
  C   C1393     1.0  0.16769  0.86827  0.79991  1.0000
  C   C1394     1.0  0.34131  0.97671  0.81220  1.0000
  H   H1109     1.0  0.27907  0.97839  0.80063  1.0000
  C   C1395     1.0  0.41157  0.64085  0.78870  1.0000
  C   C1396     1.0  0.24743  0.66112  0.78301  1.0000
  H   H1110     1.0  0.30786  0.89024  0.76547  1.0000
  H   H1111     1.0  0.46474  0.65740  0.94046  1.0000
  H   H1112     1.0  0.39187  0.55454  0.91816  1.0000
  C   C1397     1.0  0.45303  0.78033  0.90212  1.0000
  C   C1398     1.0  0.27736  0.94153  0.74435  1.0000
  H   H1113     1.0  0.29992  0.51632  0.96808  1.0000
  C   C1399     1.0  0.21796  0.56502  0.97020  1.0000
  H   H1114     1.0  0.44420  0.62008  0.82111  1.0000
  H   H1115     1.0  0.39181  0.63971  0.78741  1.0000
  H   H1116     1.0  0.35596  0.96557  0.76173  1.0000
  S   S191      1.0  0.98763  0.56362  0.81189  1.0000
  C   C1400     1.0  0.25749  0.54121  0.87350  1.0000
  C   C1401     1.0  0.25338  0.75764  0.96848  1.0000
  C   C1402     1.0  0.29475  0.55313  0.79808  1.0000
  C   C1403     1.0  0.43823  0.84515  0.80567  1.0000
  H   H1117     1.0  0.47350  0.66310  0.76197  1.0000
  C   C1404     1.0  0.46108  0.49449  0.75595  1.0000
  C   C1405     1.0  0.47578  0.54350  0.96704  1.0000
  C   C1406     1.0  0.46387  0.73684  0.96219  1.0000
  H   H1118     1.0  0.20423  0.66874  0.97645  1.0000
  H   H1119     1.0  0.07847  0.49918  0.76530  1.0000
  H   H1120     1.0  0.47031  0.74691  0.86124  1.0000
  H   H1121     1.0  0.30747  0.59051  0.98133  1.0000
  C   C1407     1.0  0.20334  0.50350  0.74059  1.0000
  H   H1122     1.0  0.41655  0.77677  0.97241  1.0000
  C   C1408     1.0  0.99927  0.67542  0.75643  1.0000
  H   H1123     1.0  0.27748  0.54739  0.97765  1.0000
  C   C1409     1.0  0.46711  0.76045  0.94961  1.0000
  C   C1410     1.0  0.47913  0.50284  0.76731  1.0000
  C   C1411     1.0  0.12726  0.52280  0.73628  1.0000
  H   H1124     1.0  0.36357  0.55221  0.94950  1.0000
  C   C1412     1.0  0.41206  0.53392  0.96620  1.0000
  H   H1125     1.0  0.45400  0.57056  0.97181  1.0000
  C   C1413     1.0  0.25354  0.98277  0.78135  1.0000
  H   H1126     1.0  0.45776  0.66996  0.83002  1.0000
  C   C1414     1.0  0.45375  0.49624  0.95198  1.0000
  C   C1415     1.0  0.46872  0.56246  0.97606  1.0000
  C   C1416     1.0  0.46348  0.94565  0.79063  1.0000
  H   H1127     1.0  0.17682  0.54517  0.98121  1.0000
  C   C1417     1.0  0.22248  0.67696  0.98079  1.0000
  C   C1418     1.0  0.42628  0.74188  0.98216  1.0000
  C   C1419     1.0  0.47190  0.95781  0.77110  1.0000
  C   C1420     1.0  0.17869  0.50680  0.74207  1.0000
  C   C1421     1.0  0.99510  0.48980  0.83420  1.0000
  C   C1422     1.0  0.31203  0.76673  0.98140  1.0000
  C   C1423     1.0  0.47753  0.79240  0.81914  1.0000
  H   H1128     1.0  0.35306  0.74850  0.97834  1.0000
  H   H1129     1.0  0.47470  0.95152  0.84992  1.0000
  H   H1130     1.0  0.45971  0.96708  0.76401  1.0000
  H   H1131     1.0  0.44688  0.49000  0.98319  1.0000
  H   H1132     1.0  0.53225  0.26535  0.17510  1.0000
  H   H1133     1.0  0.51496  0.13147  0.17385  1.0000
  H   H1134     1.0  0.61358  0.34025  0.04819  1.0000
  Fe  Fe96      1.0  0.77903  0.44212  0.21014  1.0000
  S   S192      1.0  0.74629  0.41295  0.20140  1.0000
  S   S193      1.0  0.81967  0.45912  0.19248  1.0000
  C   C1424     1.0  0.57964  0.07678  0.08165  1.0000
  H   H1135     1.0  0.70196  0.43737  0.01624  1.0000
  S   S194      1.0  0.54230  0.42701  0.07329  1.0000
  S   S195      1.0  0.56354  0.44268  0.02629  1.0000
  Fe  Fe97      1.0  0.52575  0.41975  0.04712  1.0000
  S   S196      1.0  0.49947  0.37980  0.04585  1.0000
  Fe  Fe98      1.0  0.57840  0.45362  0.05234  1.0000
  S   S197      1.0  0.62014  0.45776  0.05375  1.0000
  S   S198      1.0  0.59639  0.19429  0.07665  1.0000
  Fe  Fe99      1.0  0.72649  0.36821  0.10653  1.0000
  S   S199      1.0  0.70674  0.39302  0.09098  1.0000
  S   S200      1.0  0.76227  0.38960  0.11692  1.0000
  Fe  Fe100     1.0  0.68982  0.31824  0.09943  1.0000
  S   S201      1.0  0.66684  0.33904  0.08332  1.0000
  S   S202      1.0  0.68296  0.27456  0.10621  1.0000
  Fe  Fe101     1.0  0.70619  0.36807  0.06879  1.0000
  S   S203      1.0  0.71730  0.39039  0.03779  1.0000
  Fe  Fe102     1.0  0.66932  0.36245  0.10662  1.0000
  S   S204      1.0  0.63688  0.37639  0.11946  1.0000
  S   S205      1.0  0.72926  0.34546  0.08296  1.0000
  S   S206      1.0  0.68884  0.33919  0.12420  1.0000
  H   H1136     1.0  0.51116  0.46684  0.99297  1.0000
  H   H1137     1.0  0.63898  0.31770  0.99565  1.0000
  H   H1138     1.0  0.94544  0.44734  0.20808  1.0000
  H   H1139     1.0  0.53957  0.24470  0.13007  1.0000
  C   C1425     1.0  0.62264  0.46214  0.22067  1.0000
  H   H1140     1.0  0.95208  0.41270  0.18088  1.0000
  C   C1426     1.0  0.69813  0.34334  0.99117  1.0000
  H   H1141     1.0  0.57275  0.42669  0.13023  1.0000
  C   C1427     1.0  0.56469  0.41623  0.16125  1.0000
  C   C1428     1.0  0.48724  0.26523  0.11181  1.0000
  C   C1429     1.0  0.94595  0.46554  0.19913  1.0000
  H   H1142     1.0  0.54717  0.32136  0.21172  1.0000
  C   C1430     1.0  0.62088  0.21772  0.08366  1.0000
  C   C1431     1.0  0.62082  0.24372  0.08262  1.0000
  C   C1432     1.0  0.64050  0.26192  0.08867  1.0000
  C   C1433     1.0  0.65987  0.25391  0.09610  1.0000
  C   C1434     1.0  0.66006  0.22808  0.09676  1.0000
  C   C1435     1.0  0.64074  0.21008  0.09049  1.0000
  H   H1143     1.0  0.60554  0.24983  0.07732  1.0000
  H   H1144     1.0  0.64008  0.28179  0.08822  1.0000
  H   H1145     1.0  0.67524  0.22201  0.10219  1.0000
  H   H1146     1.0  0.64105  0.19013  0.09116  1.0000
  C   C1436     1.0  0.55542  0.34758  0.05454  1.0000
  C   C1437     1.0  0.54220  0.36560  0.05057  1.0000
  C   C1438     1.0  0.51573  0.35670  0.05033  1.0000
  H   H1147     1.0  0.57589  0.35471  0.05456  1.0000
  H   H1148     1.0  0.55262  0.38644  0.04768  1.0000
  C   C1439     1.0  0.62507  0.43603  0.07244  1.0000
  C   C1440     1.0  0.61173  0.43201  0.09155  1.0000
  C   C1441     1.0  0.61615  0.41432  0.10615  1.0000
  C   C1442     1.0  0.63344  0.40042  0.10159  1.0000
  C   C1443     1.0  0.64704  0.40488  0.08254  1.0000
  C   C1444     1.0  0.64304  0.42280  0.06805  1.0000
  H   H1149     1.0  0.59800  0.44242  0.09499  1.0000
  H   H1150     1.0  0.60578  0.41074  0.12089  1.0000
  H   H1151     1.0  0.65999  0.39389  0.07873  1.0000
  H   H1152     1.0  0.65332  0.42578  0.05330  1.0000
  C   C1445     1.0  0.67992  0.46461  0.01491  1.0000
  C   C1446     1.0  0.69380  0.33013  0.01040  1.0000
  C   C1447     1.0  0.69902  0.34437  0.02496  1.0000
  C   C1448     1.0  0.70875  0.37186  0.02028  1.0000
  C   C1449     1.0  0.71255  0.38498  0.00114  1.0000
  C   C1450     1.0  0.68545  0.44185  0.01163  1.0000
  H   H1153     1.0  0.68672  0.30885  0.01400  1.0000
  H   H1154     1.0  0.69595  0.33408  0.03972  1.0000
  Fe  Fe103     1.0  0.54827  0.47674  0.02623  1.0000
  H   H1155     1.0  0.53924  0.28358  0.03091  1.0000
  C   C1451     1.0  0.75172  0.40599  0.17808  1.0000
  C   C1452     1.0  0.77463  0.41985  0.16429  1.0000
  C   C1453     1.0  0.77768  0.41465  0.14558  1.0000
  C   C1454     1.0  0.75788  0.39555  0.14053  1.0000
  C   C1455     1.0  0.73530  0.38121  0.15445  1.0000
  C   C1456     1.0  0.73245  0.38618  0.17322  1.0000
  H   H1156     1.0  0.78984  0.43479  0.16790  1.0000
  H   H1157     1.0  0.79524  0.42568  0.13490  1.0000
  H   H1158     1.0  0.72013  0.36614  0.15081  1.0000
  H   H1159     1.0  0.71517  0.37469  0.18401  1.0000
  C   C1457     1.0  0.54552  0.40361  0.17797  1.0000
  H   H1160     1.0  0.75009  0.45554  0.15414  1.0000
  H   H1161     1.0  0.60209  0.06933  0.20002  1.0000
  H   H1162     1.0  0.63231  0.28295  0.13377  1.0000
  C   C1458     1.0  0.62547  0.32602  0.02307  1.0000
  S   S207      1.0  0.57044  0.24280  0.04476  1.0000
  H   H1163     1.0  0.55975  0.01155  0.17840  1.0000
  H   H1164     1.0  0.56215  0.47440  0.09587  1.0000
  S   S208      1.0  0.77601  0.48116  0.21480  1.0000
  C   C1459     1.0  0.78733  0.36008  0.17706  1.0000
  C   C1460     1.0  0.81378  0.37204  0.16838  1.0000
  C   C1461     1.0  0.83083  0.38731  0.17812  1.0000
  H   H1165     1.0  0.75788  0.37339  0.99004  1.0000
  P   P49       1.0  0.86478  0.40404  0.16679  1.0000
  C   C1462     1.0  0.88673  0.39799  0.18204  1.0000
  C   C1463     1.0  0.87345  0.39148  0.14565  1.0000
  C   C1464     1.0  0.87131  0.36474  0.14778  1.0000
  C   C1465     1.0  0.87766  0.35441  0.13164  1.0000
  C   C1466     1.0  0.88631  0.37074  0.11327  1.0000
  C   C1467     1.0  0.88887  0.39746  0.11106  1.0000
  C   C1468     1.0  0.88267  0.40789  0.12720  1.0000
  C   C1469     1.0  0.91383  0.40941  0.17511  1.0000
  C   C1470     1.0  0.54370  0.03771  0.16241  1.0000
  C   C1471     1.0  0.59501  0.28944  0.13543  1.0000
  C   C1472     1.0  0.54302  0.12192  0.15403  1.0000
  C   C1473     1.0  0.62361  0.37309  0.00167  1.0000
  C   C1474     1.0  0.86760  0.43837  0.16055  1.0000
  C   C1475     1.0  0.88317  0.45715  0.16895  1.0000
  C   C1476     1.0  0.51007  0.27892  0.99241  1.0000
  C   C1477     1.0  0.50383  0.09259  0.10065  1.0000
  C   C1478     1.0  0.85356  0.47251  0.14362  1.0000
  C   C1479     1.0  0.85245  0.44616  0.14814  1.0000
  P   P50       1.0  0.48117  0.11332  0.02684  1.0000
  C   C1480     1.0  0.72707  0.45731  0.06864  1.0000
  H   H1166     1.0  0.77410  0.34894  0.16929  1.0000
  H   H1167     1.0  0.82052  0.36982  0.15392  1.0000
  H   H1168     1.0  0.70774  0.45207  0.17341  1.0000
  H   H1169     1.0  0.86447  0.35185  0.16195  1.0000
  H   H1170     1.0  0.87565  0.33368  0.13337  1.0000
  H   H1171     1.0  0.89094  0.36265  0.10075  1.0000
  H   H1172     1.0  0.89547  0.41008  0.09680  1.0000
  H   H1173     1.0  0.88509  0.42867  0.12514  1.0000
  H   H1174     1.0  0.92145  0.42260  0.16110  1.0000
  C   C1481     1.0  0.93327  0.48172  0.20698  1.0000
  C   C1482     1.0  0.55833  0.41577  0.14316  1.0000
  C   C1483     1.0  0.93124  0.40386  0.18623  1.0000
  C   C1484     1.0  0.48297  0.06209  0.17502  1.0000
  H   H1175     1.0  0.89404  0.45154  0.17933  1.0000
  C   C1485     1.0  0.56882  0.27905  0.13405  1.0000
  C   C1486     1.0  0.82069  0.39149  0.19616  1.0000
  C   C1487     1.0  0.64135  0.45187  0.00130  1.0000
  H   H1176     1.0  0.83951  0.43175  0.14216  1.0000
  C   C1488     1.0  0.66268  0.21422  0.01763  1.0000
  C   C1489     1.0  0.65301  0.22549  0.03221  1.0000
  C   C1490     1.0  0.63858  0.24238  0.02826  1.0000
  C   C1491     1.0  0.63362  0.24794  0.00979  1.0000
  C   C1492     1.0  0.62118  0.18351  0.22264  1.0000
  C   C1493     1.0  0.53183  0.14886  0.01863  1.0000
  H   H1177     1.0  0.88747  0.36247  0.22543  1.0000
  H   H1178     1.0  0.68334  0.47267  0.09990  1.0000
  H   H1179     1.0  0.49445  0.34572  0.98446  1.0000
  C   C1494     1.0  0.65779  0.21974  0.99912  1.0000
  H   H1180     1.0  0.49473  0.27703  0.16291  1.0000
  C   C1495     1.0  0.48025  0.37856  0.09933  1.0000
  C   C1496     1.0  0.87740  0.38054  0.20010  1.0000
  H   H1181     1.0  0.71597  0.48222  0.20332  1.0000
  C   C1497     1.0  0.65508  0.46318  0.19308  1.0000
  C   C1498     1.0  0.63236  0.33144  0.00294  1.0000
  C   C1499     1.0  0.74416  0.45356  0.08060  1.0000
  H   H1182     1.0  0.50803  0.12998  0.08293  1.0000
  C   C1500     1.0  0.92174  0.38710  0.20440  1.0000
  C   C1501     1.0  0.54040  0.99532  0.22083  1.0000
  H   H1183     1.0  0.93513  0.38336  0.21332  1.0000
  C   C1502     1.0  0.54417  0.41483  0.98869  1.0000
  H   H1184     1.0  0.76886  0.41403  0.00897  1.0000
  S   S209      1.0  0.51473  0.08822  0.20998  1.0000
  C   C1503     1.0  0.71716  0.46301  0.10716  1.0000
  H   H1185     1.0  0.67415  0.20139  0.02067  1.0000
  H   H1186     1.0  0.65676  0.22132  0.04658  1.0000
  H   H1187     1.0  0.63126  0.25125  0.03957  1.0000
  C   C1504     1.0  0.53560  0.32403  0.99111  1.0000
  H   H1188     1.0  0.48267  0.39375  0.08681  1.0000
  C   C1505     1.0  0.55633  0.15992  0.02274  1.0000
  H   H1189     1.0  0.59720  0.41644  0.19529  1.0000
  C   C1506     1.0  0.53318  0.28966  0.01777  1.0000
  P   P51       1.0  0.71196  0.46728  0.13186  1.0000
  H   H1190     1.0  0.66561  0.21107  0.98790  1.0000
  C   C1507     1.0  0.54251  0.31605  0.00846  1.0000
  H   H1191     1.0  0.92257  0.47580  0.22184  1.0000
  C   C1508     1.0  0.95984  0.47314  0.18002  1.0000
  C   C1509     1.0  0.62609  0.10545  0.20557  1.0000
  H   H1192     1.0  0.55168  0.11497  0.06269  1.0000
  H   H1193     1.0  0.90910  0.42529  0.23261  1.0000
  C   C1510     1.0  0.96431  0.43208  0.11781  1.0000
  S   S210      1.0  0.86760  0.43983  0.22006  1.0000
  H   H1194     1.0  0.93653  0.44592  0.10473  1.0000
  C   C1511     1.0  0.55650  0.47825  0.14335  1.0000
  C   C1512     1.0  0.53862  0.28565  0.17670  1.0000
  H   H1195     1.0  0.52528  0.41746  0.98878  1.0000
  C   C1513     1.0  0.55961  0.25321  0.13122  1.0000
  H   H1196     1.0  0.52411  0.02373  0.16622  1.0000
  C   C1514     1.0  0.69925  0.43586  0.14845  1.0000
  C   C1515     1.0  0.52999  0.47602  0.14774  1.0000
  C   C1516     1.0  0.54229  0.32059  0.05890  1.0000
  H   H1197     1.0  0.54841  0.11059  0.16556  1.0000
  H   H1198     1.0  0.68635  0.41351  0.12714  1.0000
  S   S211      1.0  0.50767  0.46982  0.09701  1.0000
  C   C1517     1.0  0.52199  0.11285  0.04596  1.0000
  C   C1518     1.0  0.55615  0.33772  0.18120  1.0000
  C   C1519     1.0  0.54637  0.39327  0.00091  1.0000
  C   C1520     1.0  0.52013  0.39017  0.17657  1.0000
  C   C1521     1.0  0.60251  0.24868  0.13082  1.0000
  C   C1522     1.0  0.51689  0.21200  0.99210  1.0000
  C   C1523     1.0  0.78825  0.41350  0.01011  1.0000
  Fe  Fe104     1.0  0.56459  0.21010  0.06957  1.0000
  C   C1524     1.0  0.70516  0.46407  0.07582  1.0000
  S   S212      1.0  0.54170  0.22582  0.09059  1.0000
  Fe  Fe105     1.0  0.52857  0.46219  0.07002  1.0000
  H   H1199     1.0  0.72003  0.40619  0.99755  1.0000
  H   H1200     1.0  0.69158  0.46643  0.06668  1.0000
  H   H1201     1.0  0.56394  0.06402  0.11206  1.0000
  H   H1202     1.0  0.52623  0.15942  0.00681  1.0000
  H   H1203     1.0  0.51011  0.25060  0.01675  1.0000
  H   H1204     1.0  0.65625  0.45027  0.13173  1.0000
  C   C1525     1.0  0.68652  0.41313  0.14227  1.0000
  C   C1526     1.0  0.88376  0.48338  0.16474  1.0000
  H   H1205     1.0  0.57233  0.37429  0.01151  1.0000
  H   H1206     1.0  0.52902  0.37878  0.01006  1.0000
  H   H1207     1.0  0.61241  0.38212  0.02949  1.0000
  C   C1527     1.0  0.53292  0.40270  0.14168  1.0000
  C   C1528     1.0  0.51654  0.14838  0.14430  1.0000
  H   H1208     1.0  0.56915  0.17877  0.01421  1.0000
  S   S213      1.0  0.55991  0.29938  0.06534  1.0000
  H   H1209     1.0  0.52261  0.16318  0.11377  1.0000
  C   C1529     1.0  0.74365  0.48666  0.13469  1.0000
  C   C1530     1.0  0.60431  0.44183  0.21555  1.0000
  S   S214      1.0  0.51448  0.45080  0.20463  1.0000
  C   C1531     1.0  0.83661  0.40830  0.01426  1.0000
  C   C1532     1.0  0.59347  0.40930  0.98970  1.0000
  C   C1533     1.0  0.57335  0.37357  0.08890  1.0000
  C   C1534     1.0  0.61139  0.43211  0.19928  1.0000
  C   C1535     1.0  0.61738  0.36779  0.02192  1.0000
  C   C1536     1.0  0.67321  0.38967  0.15573  1.0000
  C   C1537     1.0  0.58913  0.04855  0.16451  1.0000
  H   H1210     1.0  0.96068  0.41448  0.11185  1.0000
  H   H1211     1.0  0.51852  0.19515  0.19183  1.0000
  H   H1212     1.0  0.52841  0.40371  0.12750  1.0000
  C   C1538     1.0  0.55624  0.33236  0.16271  1.0000
  C   C1539     1.0  0.77766  0.36354  0.19537  1.0000
  C   C1540     1.0  0.81760  0.40564  0.03062  1.0000
  C   C1541     1.0  0.57097  0.39070  0.00164  1.0000
  H   H1213     1.0  0.62628  0.30792  0.03136  1.0000
  H   H1214     1.0  0.60260  0.30947  0.13739  1.0000
  C   C1542     1.0  0.58850  0.35676  0.08932  1.0000
  C   C1543     1.0  0.57649  0.23818  0.12948  1.0000
  H   H1215     1.0  0.82135  0.40108  0.04494  1.0000
  H   H1216     1.0  0.58202  0.15711  0.04227  1.0000
  Fe  Fe106     1.0  0.83229  0.45314  0.22058  1.0000
  H   H1217     1.0  0.56954  0.21858  0.12662  1.0000
  Fe  Fe107     1.0  0.53328  0.21786  0.03876  1.0000
  C   C1544     1.0  0.61827  0.34430  0.03255  1.0000
  H   H1218     1.0  0.66357  0.37218  0.15083  1.0000
  Fe  Fe108     1.0  0.54438  0.25663  0.06498  1.0000
  C   C1545     1.0  0.52399  0.13374  0.15882  1.0000
  S   S215      1.0  0.52960  0.18373  0.06205  1.0000
  H   H1219     1.0  0.64205  0.43541  0.17529  1.0000
  C   C1546     1.0  0.83145  0.41357  0.99580  1.0000
  H   H1220     1.0  0.58858  0.47974  0.12101  1.0000
  C   C1547     1.0  0.65803  0.46971  0.00958  1.0000
  C   C1548     1.0  0.59441  0.07324  0.15266  1.0000
  C   C1549     1.0  0.57428  0.08038  0.14557  1.0000
  P   P52       1.0  0.58103  0.11124  0.12884  1.0000
  C   C1550     1.0  0.55503  0.12495  0.13464  1.0000
  C   C1551     1.0  0.61156  0.13464  0.13009  1.0000
  C   C1552     1.0  0.61205  0.15766  0.13695  1.0000
  C   C1553     1.0  0.63590  0.17646  0.13648  1.0000
  C   C1554     1.0  0.65938  0.17235  0.12938  1.0000
  C   C1555     1.0  0.65908  0.14957  0.12247  1.0000
  C   C1556     1.0  0.63528  0.13091  0.12265  1.0000
  C   C1557     1.0  0.54779  0.14016  0.12012  1.0000
  H   H1221     1.0  0.57229  0.05723  0.07881  1.0000
  H   H1222     1.0  0.60462  0.04308  0.17003  1.0000
  C   C1558     1.0  0.58464  0.10598  0.10439  1.0000
  C   C1559     1.0  0.57486  0.08076  0.10055  1.0000
  C   C1560     1.0  0.59428  0.09788  0.06651  1.0000
  C   C1561     1.0  0.60375  0.12309  0.07020  1.0000
  C   C1562     1.0  0.59887  0.12713  0.08902  1.0000
  C   C1563     1.0  0.49310  0.27383  0.14861  1.0000
  H   H1223     1.0  0.61414  0.08658  0.14931  1.0000
  H   H1224     1.0  0.59417  0.16160  0.14207  1.0000
  H   H1225     1.0  0.63623  0.19471  0.14097  1.0000
  H   H1226     1.0  0.67782  0.18721  0.12866  1.0000
  H   H1227     1.0  0.67731  0.14668  0.11660  1.0000
  H   H1228     1.0  0.63536  0.11370  0.11671  1.0000
  H   H1229     1.0  0.55722  0.14357  0.10509  1.0000
  C   C1564     1.0  0.52839  0.15161  0.12497  1.0000
  C   C1565     1.0  0.79430  0.37941  0.20484  1.0000
  H   H1230     1.0  0.59817  0.09476  0.05190  1.0000
  H   H1231     1.0  0.61495  0.13962  0.05852  1.0000
  H   H1232     1.0  0.60654  0.14678  0.09161  1.0000
  C   C1566     1.0  0.58786  0.10161  0.19179  1.0000
  C   C1567     1.0  0.60530  0.09021  0.19894  1.0000
  H   H1233     1.0  0.49466  0.47155  0.13684  1.0000
  C   C1568     1.0  0.62933  0.13205  0.20520  1.0000
  C   C1569     1.0  0.61158  0.14361  0.19838  1.0000
  C   C1570     1.0  0.59090  0.12815  0.19152  1.0000
  P   P53       1.0  0.61462  0.17748  0.19951  1.0000
  C   C1571     1.0  0.64111  0.20012  0.18079  1.0000
  C   C1572     1.0  0.58416  0.18321  0.19711  1.0000
  C   C1573     1.0  0.57826  0.18807  0.17877  1.0000
  C   C1574     1.0  0.55462  0.19228  0.17691  1.0000
  C   C1575     1.0  0.53684  0.19192  0.19328  1.0000
  C   C1576     1.0  0.54247  0.18693  0.21156  1.0000
  C   C1577     1.0  0.56586  0.18223  0.21353  1.0000
  C   C1578     1.0  0.63953  0.22467  0.17242  1.0000
  C   C1579     1.0  0.66012  0.24221  0.15807  1.0000
  C   C1580     1.0  0.68266  0.23574  0.15226  1.0000
  C   C1581     1.0  0.68474  0.21176  0.16089  1.0000
  C   C1582     1.0  0.66404  0.19394  0.17503  1.0000
  H   H1234     1.0  0.62122  0.46939  0.14032  1.0000
  H   H1235     1.0  0.79367  0.48228  0.15687  1.0000
  H   H1236     1.0  0.55556  0.33003  0.01464  1.0000
  C   C1583     1.0  0.54644  0.12407  0.05010  1.0000
  C   C1584     1.0  0.49453  0.11197  0.09207  1.0000
  H   H1237     1.0  0.57104  0.08944  0.18751  1.0000
  C   C1585     1.0  0.64307  0.23652  0.99505  1.0000
  C   C1586     1.0  0.48412  0.20072  0.12949  1.0000
  C   C1587     1.0  0.66104  0.46900  0.13622  1.0000
  H   H1238     1.0  0.57632  0.13600  0.18677  1.0000
  H   H1239     1.0  0.59185  0.18846  0.16595  1.0000
  H   H1240     1.0  0.54986  0.19563  0.16282  1.0000
  H   H1241     1.0  0.76068  0.44744  0.07525  1.0000
  H   H1242     1.0  0.49695  0.21654  0.11813  1.0000
  H   H1243     1.0  0.56806  0.28342  0.98537  1.0000
  H   H1244     1.0  0.62251  0.23043  0.17695  1.0000
  H   H1245     1.0  0.65877  0.26095  0.15135  1.0000
  H   H1246     1.0  0.69849  0.24942  0.14104  1.0000
  H   H1247     1.0  0.70240  0.20693  0.15649  1.0000
  H   H1248     1.0  0.66609  0.17548  0.18139  1.0000
  H   H1249     1.0  0.84164  0.47836  0.13418  1.0000
  H   H1250     1.0  0.67330  0.40643  0.00095  1.0000
  H   H1251     1.0  0.63931  0.22561  0.21259  1.0000
  C   C1588     1.0  0.68498  0.41128  0.18167  1.0000
  C   C1589     1.0  0.67226  0.38878  0.17541  1.0000
  C   C1590     1.0  0.69827  0.43476  0.16827  1.0000
  H   H1252     1.0  0.68503  0.41043  0.19687  1.0000
  H   H1253     1.0  0.66221  0.37049  0.18574  1.0000
  C   C1591     1.0  0.80750  0.41703  0.99356  1.0000
  H   H1254     1.0  0.50893  0.09493  0.05541  1.0000
  H   H1255     1.0  0.53290  0.06733  0.14539  1.0000
  H   H1256     1.0  0.54067  0.01448  0.21376  1.0000
  S   S216      1.0  0.48176  0.13863  0.22738  1.0000
  H   H1257     1.0  0.58418  0.42742  0.16224  1.0000
  H   H1258     1.0  0.61572  0.23724  0.12904  1.0000
  H   H1259     1.0  0.64506  0.14329  0.21102  1.0000
  C   C1592     1.0  0.54881  0.06241  0.15064  1.0000
  C   C1593     1.0  0.70696  0.37078  0.98664  1.0000
  C   C1594     1.0  0.64107  0.47963  0.14120  1.0000
  H   H1260     1.0  0.73034  0.45408  0.05402  1.0000
  C   C1595     1.0  0.61184  0.27439  0.13361  1.0000
  H   H1261     1.0  0.49229  0.16555  0.03658  1.0000
  S   S217      1.0  0.53886  0.21449  0.00768  1.0000
  H   H1262     1.0  0.49397  0.05556  0.12041  1.0000
  H   H1263     1.0  0.50164  0.15731  0.14808  1.0000
  H   H1264     1.0  0.83316  0.40429  0.20347  1.0000
  H   H1265     1.0  0.53864  0.38046  0.10233  1.0000
  H   H1266     1.0  0.52583  0.34112  0.12855  1.0000
  C   C1596     1.0  0.79336  0.40803  0.02852  1.0000
  C   C1597     1.0  0.48180  0.38503  0.11735  1.0000
  H   H1267     1.0  0.52868  0.28408  0.10303  1.0000
  C   C1598     1.0  0.51512  0.47324  0.13344  1.0000
  C   C1599     1.0  0.64671  0.42889  0.99806  1.0000
  C   C1600     1.0  0.55068  0.36778  0.10299  1.0000
  C   C1601     1.0  0.54338  0.34539  0.11769  1.0000
  H   H1268     1.0  0.85512  0.40567  0.01592  1.0000
  H   H1269     1.0  0.94436  0.48567  0.11815  1.0000
  C   C1602     1.0  0.51681  0.27116  0.00983  1.0000
  H   H1270     1.0  0.53190  0.27508  0.20770  1.0000
  C   C1603     1.0  0.56383  0.03077  0.16931  1.0000
  H   H1271     1.0  0.57899  0.39082  0.07738  1.0000
  C   C1604     1.0  0.50250  0.32957  0.05388  1.0000
  C   C1605     1.0  0.51575  0.31143  0.05839  1.0000
  H   H1272     1.0  0.54302  0.05446  0.22292  1.0000
  C   C1606     1.0  0.68688  0.48237  0.13709  1.0000
  H   H1273     1.0  0.59265  0.32103  0.10323  1.0000
  H   H1274     1.0  0.77814  0.40496  0.04117  1.0000
  C   C1607     1.0  0.55852  0.32842  0.11822  1.0000
  H   H1275     1.0  0.75192  0.45192  0.10911  1.0000
  H   H1276     1.0  0.49383  0.08035  0.17826  1.0000
  H   H1277     1.0  0.52462  0.09556  0.09810  1.0000
  H   H1278     1.0  0.56409  0.34863  0.15036  1.0000
  C   C1608     1.0  0.51366  0.38960  0.15837  1.0000
  C   C1609     1.0  0.63671  0.44280  0.18804  1.0000
  H   H1279     1.0  0.75702  0.35499  0.20183  1.0000
  C   C1610     1.0  0.48639  0.06992  0.11320  1.0000
  Fe  Fe109     1.0  0.50675  0.20220  0.08102  1.0000
  P   P54       1.0  0.54742  0.29880  0.13666  1.0000
  C   C1611     1.0  0.73902  0.45598  0.09986  1.0000
  C   C1612     1.0  0.58099  0.33407  0.10375  1.0000
  C   C1613     1.0  0.89486  0.37530  0.21124  1.0000
  H   H1280     1.0  0.58450  0.43386  0.22411  1.0000
  H   H1281     1.0  0.60593  0.36111  0.07824  1.0000
  S   S218      1.0  0.50732  0.23445  0.05706  1.0000
  C   C1614     1.0  0.53848  0.29110  0.19516  1.0000
  C   C1615     1.0  0.51426  0.12539  0.03037  1.0000
  H   H1282     1.0  0.50548  0.29054  0.06160  1.0000
  C   C1616     1.0  0.51516  0.28188  0.13342  1.0000
  C   C1617     1.0  0.54693  0.30627  0.16037  1.0000
  H   H1283     1.0  0.56351  0.35787  0.18286  1.0000
  H   H1284     1.0  0.55009  0.40499  0.19202  1.0000
  C   C1618     1.0  0.51196  0.27772  0.11498  1.0000
  C   C1619     1.0  0.75792  0.47571  0.14631  1.0000
  H   H1285     1.0  0.78808  0.46294  0.98760  1.0000
  H   H1286     1.0  0.85676  0.37095  0.20579  1.0000
  H   H1287     1.0  0.50535  0.38108  0.18968  1.0000
  S   S219      1.0  0.50923  0.45318  0.04528  1.0000
  C   C1620     1.0  0.48325  0.20293  0.14878  1.0000
  S   S220      1.0  0.57518  0.48113  0.16129  1.0000
  H   H1288     1.0  0.87028  0.09741  0.22818  1.0000
  C   C1621     1.0  0.54710  0.31713  0.19742  1.0000
  Fe  Fe110     1.0  0.55140  0.48296  0.18928  1.0000
  C   C1622     1.0  0.63175  0.35502  0.99226  1.0000
  H   H1289     1.0  0.58633  0.24687  0.98657  1.0000
  H   H1290     1.0  0.62268  0.26137  0.00720  1.0000
  C   C1623     1.0  0.66906  0.42422  0.00306  1.0000
  C   C1624     1.0  0.64825  0.47282  0.20956  1.0000
  C   C1625     1.0  0.56357  0.14770  0.03857  1.0000
  H   H1291     1.0  0.96997  0.46059  0.17446  1.0000
  C   C1626     1.0  0.70033  0.46720  0.09492  1.0000
  C   C1627     1.0  0.53349  0.08910  0.22773  1.0000
  C   C1628     1.0  0.52659  0.47257  0.11474  1.0000
  H   H1292     1.0  0.49297  0.03788  0.19745  1.0000
  C   C1629     1.0  0.48999  0.20650  0.99858  1.0000
  P   P55       1.0  0.62507  0.40469  0.98828  1.0000
  H   H1293     1.0  0.62393  0.45574  0.99817  1.0000
  Fe  Fe111     1.0  0.49818  0.48381  0.20739  1.0000
  H   H1294     1.0  0.49592  0.22018  0.15222  1.0000
  H   H1295     1.0  0.50148  0.33255  0.17047  1.0000
  C   C1630     1.0  0.95061  0.44971  0.11388  1.0000
  H   H1296     1.0  0.48970  0.42278  0.17211  1.0000
  H   H1297     1.0  0.67436  0.47151  0.18395  1.0000
  C   C1631     1.0  0.56807  0.47788  0.12455  1.0000
  H   H1298     1.0  0.63916  0.09638  0.21164  1.0000
  C   C1632     1.0  0.55309  0.47478  0.11031  1.0000
  H   H1299     1.0  0.52088  0.47639  0.16215  1.0000
  C   C1633     1.0  0.95522  0.47244  0.12154  1.0000
  H   H1300     1.0  0.48546  0.40542  0.11857  1.0000
  H   H1301     1.0  0.78653  0.38303  0.21864  1.0000
  Fe  Fe112     1.0  0.52845  0.45882  0.23155  1.0000
  H   H1302     1.0  0.48512  0.26174  0.09756  1.0000
  H   H1303     1.0  0.69205  0.47787  0.02213  1.0000
  C   C1634     1.0  0.97377  0.47785  0.13316  1.0000
  H   H1304     1.0  0.56941  0.17754  0.22787  1.0000
  H   H1305     1.0  0.49879  0.26396  0.98591  1.0000
  H   H1306     1.0  0.65316  0.48682  0.01283  1.0000
  H   H1307     1.0  0.48197  0.32263  0.05354  1.0000
  H   H1308     1.0  0.75258  0.48265  0.98725  1.0000
  C   C1635     1.0  0.54592  0.07005  0.23089  1.0000
  H   H1309     1.0  0.52840  0.18624  0.22422  1.0000
  C   C1636     1.0  0.48247  0.03820  0.18580  1.0000
  P   P56       1.0  0.48036  0.37393  0.15683  1.0000
  C   C1637     1.0  0.63334  0.20920  0.22479  1.0000
  H   H1310     1.0  0.51531  0.11505  0.99041  1.0000
  C   C1638     1.0  0.48033  0.12372  0.00182  1.0000
  C   C1639     1.0  0.48200  0.32794  0.17911  1.0000
  H   H1311     1.0  0.48193  0.20403  0.01376  1.0000
  H   H1312     1.0  0.61556  0.18694  0.98991  1.0000
  C   C1640     1.0  0.49969  0.12230  0.98699  1.0000
  H   H1313     1.0  0.48348  0.29218  0.19602  1.0000
  H   H1314     1.0  0.74524  0.32789  0.98503  1.0000
  S   S221      1.0  0.56737  0.48812  0.21606  1.0000
  H   H1315     1.0  0.61674  0.46965  0.23321  1.0000
  S   S222      1.0  0.92278  0.10782  0.38490  1.0000
  Fe  Fe113     1.0  0.77713  0.03118  0.38940  1.0000
  S   S223      1.0  0.74041  0.02453  0.41111  1.0000
  S   S224      1.0  0.80305  0.07344  0.38096  1.0000
  C   C1641     1.0  0.50746  0.06043  0.29020  1.0000
  H   H1316     1.0  0.49401  0.39684  0.29539  1.0000
  H   H1317     1.0  0.55053  0.18490  0.26217  1.0000
  C   C1642     1.0  0.95328  0.48279  0.31857  1.0000
  H   H1318     1.0  0.56645  0.01060  0.23910  1.0000
  C   C1643     1.0  0.93091  0.46689  0.33211  1.0000
  S   S225      1.0  0.79165  0.43289  0.23809  1.0000
  C   C1644     1.0  0.74739  0.07277  0.32586  1.0000
  C   C1645     1.0  0.91456  0.39803  0.39820  1.0000
  C   C1646     1.0  0.81308  0.15522  0.40077  1.0000
  H   H1319     1.0  0.88781  0.05741  0.44952  1.0000
  H   H1320     1.0  0.65303  0.44931  0.24536  1.0000
  H   H1321     1.0  0.59658  0.04231  0.41555  1.0000
  H   H1322     1.0  0.85087  0.27848  0.39086  1.0000
  H   H1323     1.0  0.53074  0.05429  0.32065  1.0000
  C   C1647     1.0  0.88652  0.32185  0.41392  1.0000
  H   H1324     1.0  0.58555  0.99944  0.35964  1.0000
  C   C1648     1.0  0.94937  0.29645  0.44190  1.0000
  C   C1649     1.0  0.88033  0.15001  0.45975  1.0000
  H   H1325     1.0  0.75661  0.08263  0.35252  1.0000
  H   H1326     1.0  0.52743  0.07329  0.28711  1.0000
  H   H1327     1.0  0.77796  0.06310  0.43989  1.0000
  Fe  Fe114     1.0  0.91070  0.37171  0.29566  1.0000
  H   H1328     1.0  0.67081  0.43354  0.27263  1.0000
  S   S226      1.0  0.61670  0.03524  0.26817  1.0000
  Fe  Fe115     1.0  0.96387  0.41098  0.27692  1.0000
  Fe  Fe116     1.0  0.58868  0.05324  0.28266  1.0000
  S   S227      1.0  0.58601  0.09316  0.27144  1.0000
  H   H1329     1.0  0.96873  0.09374  0.42322  1.0000
  S   S228      1.0  0.59895  0.04605  0.31168  1.0000
  C   C1650     1.0  0.94147  0.28424  0.41179  1.0000
  H   H1330     1.0  0.57161  0.05637  0.24675  1.0000
  C   C1651     1.0  0.96357  0.26744  0.35466  1.0000
  H   H1331     1.0  0.86056  0.48317  0.32018  1.0000
  C   C1652     1.0  0.79671  0.15211  0.46416  1.0000
  C   C1653     1.0  0.56614  0.09158  0.25440  1.0000
  C   C1654     1.0  0.55381  0.11068  0.25118  1.0000
  C   C1655     1.0  0.51564  0.11933  0.29975  1.0000
  S   S229      1.0  0.92584  0.43300  0.33995  1.0000
  H   H1332     1.0  0.97392  0.36302  0.41292  1.0000
  H   H1333     1.0  0.55692  0.12635  0.25905  1.0000
  C   C1656     1.0  0.76410  0.07946  0.33847  1.0000
  C   C1657     1.0  0.59440  0.48607  0.28307  1.0000
  C   C1658     1.0  0.85567  0.45434  0.27658  1.0000
  C   C1659     1.0  0.84632  0.99245  0.41071  1.0000
  H   H1334     1.0  0.74401  0.06319  0.29817  1.0000
  S   S230      1.0  0.94789  0.36721  0.28074  1.0000
  C   C1660     1.0  0.84491  0.37925  0.26673  1.0000
  C   C1661     1.0  0.96783  0.28647  0.40610  1.0000
  H   H1335     1.0  0.82706  0.36629  0.27627  1.0000
  H   H1336     1.0  0.86192  0.16376  0.32747  1.0000
  S   S231      1.0  0.92578  0.41559  0.28967  1.0000
  H   H1337     1.0  0.60374  0.14281  0.23769  1.0000
  C   C1662     1.0  0.61781  0.16750  0.25683  1.0000
  H   H1338     1.0  0.61176  0.15117  0.26917  1.0000
  S   S232      1.0  0.97089  0.15126  0.40869  1.0000
  H   H1339     1.0  0.71526  0.00933  0.34960  1.0000
  S   S233      1.0  0.75643  0.00973  0.36898  1.0000
  C   C1663     1.0  0.69309  0.01717  0.32840  1.0000
  C   C1664     1.0  0.85034  0.00709  0.32020  1.0000
  C   C1665     1.0  0.96655  0.35959  0.44354  1.0000
  C   C1666     1.0  0.58477  0.00541  0.40639  1.0000
  H   H1340     1.0  0.55739  0.04601  0.34392  1.0000
  H   H1341     1.0  0.88860  0.32385  0.42840  1.0000
  H   H1342     1.0  0.97331  0.25298  0.35768  1.0000
  H   H1343     1.0  0.71101  0.46222  0.28000  1.0000
  H   H1344     1.0  0.88553  0.13207  0.24653  1.0000
  C   C1667     1.0  0.90270  0.47331  0.26658  1.0000
  H   H1345     1.0  0.63378  0.19665  0.27276  1.0000
  H   H1346     1.0  0.89936  0.36799  0.43935  1.0000
  C   C1668     1.0  0.50050  0.04081  0.27963  1.0000
  C   C1669     1.0  0.94459  0.23080  0.47060  1.0000
  S   S234      1.0  0.92126  0.23438  0.38256  1.0000
  C   C1670     1.0  0.53575  0.09165  0.36268  1.0000
  C   C1671     1.0  0.87474  0.10793  0.48020  1.0000
  S   S235      1.0  0.66527  0.02755  0.30131  1.0000
  H   H1347     1.0  0.91112  0.36193  0.47126  1.0000
  C   C1672     1.0  0.73843  0.01826  0.46468  1.0000
  H   H1348     1.0  0.51500  0.03874  0.26839  1.0000
  C   C1673     1.0  0.59393  0.03287  0.40340  1.0000
  C   C1674     1.0  0.91691  0.44159  0.40405  1.0000
  H   H1349     1.0  0.73463  0.02246  0.45045  1.0000
  H   H1350     1.0  0.94253  0.24877  0.46338  1.0000
  C   C1675     1.0  0.88940  0.09822  0.38409  1.0000
  C   C1676     1.0  0.87574  0.11641  0.38379  1.0000
  C   C1677     1.0  0.84929  0.10850  0.38271  1.0000
  C   C1678     1.0  0.83617  0.08229  0.38241  1.0000
  C   C1679     1.0  0.84975  0.06401  0.38277  1.0000
  C   C1680     1.0  0.87642  0.07204  0.38345  1.0000
  H   H1351     1.0  0.88563  0.13666  0.38407  1.0000
  H   H1352     1.0  0.83892  0.12273  0.38221  1.0000
  H   H1353     1.0  0.83980  0.04387  0.38225  1.0000
  H   H1354     1.0  0.88702  0.05800  0.38348  1.0000
  H   H1355     1.0  0.85485  0.01367  0.40720  1.0000
  C   C1681     1.0  0.84404  0.39873  0.25166  1.0000
  C   C1682     1.0  0.67019  0.46235  0.24854  1.0000
  C   C1683     1.0  0.88024  0.31534  0.37679  1.0000
  C   C1684     1.0  0.64950  0.01752  0.34083  1.0000
  C   C1685     1.0  0.89566  0.39930  0.38720  1.0000
  H   H1356     1.0  0.89226  0.46018  0.39061  1.0000
  C   C1686     1.0  0.90224  0.34113  0.39782  1.0000
  C   C1687     1.0  0.89883  0.33772  0.37926  1.0000
  C   C1688     1.0  0.96599  0.40086  0.36867  1.0000
  Fe  Fe117     1.0  0.56607  0.00807  0.31688  1.0000
  C   C1689     1.0  0.80039  0.07677  0.31530  1.0000
  H   H1357     1.0  0.92461  0.06563  0.42235  1.0000
  C   C1690     1.0  0.56212  0.07117  0.24432  1.0000
  H   H1358     1.0  0.70240  0.09904  0.45416  1.0000
  C   C1691     1.0  0.86805  0.29932  0.41140  1.0000
  H   H1359     1.0  0.87806  0.31279  0.36234  1.0000
  C   C1692     1.0  0.95990  0.36268  0.42544  1.0000
  C   C1693     1.0  0.53212  0.06515  0.33212  1.0000
  H   H1360     1.0  0.97593  0.11406  0.45154  1.0000
  H   H1361     1.0  0.91071  0.35237  0.36666  1.0000
  C   C1694     1.0  0.79046  0.08164  0.33313  1.0000
  H   H1362     1.0  0.48640  0.11310  0.28226  1.0000
  H   H1363     1.0  0.51925  0.46220  0.35826  1.0000
  H   H1364     1.0  0.88517  0.44916  0.31490  1.0000
  H   H1365     1.0  0.53694  0.10170  0.37462  1.0000
  Fe  Fe118     1.0  0.93816  0.41096  0.31782  1.0000
  C   C1695     1.0  0.66939  0.02017  0.32513  1.0000
  H   H1366     1.0  0.89547  0.46615  0.35061  1.0000
  H   H1367     1.0  0.80310  0.08691  0.34304  1.0000
  C   C1696     1.0  0.76740  0.99969  0.31169  1.0000
  H   H1368     1.0  0.50994  0.98991  0.27187  1.0000
  S   S236      1.0  0.97810  0.41023  0.30471  1.0000
  C   C1697     1.0  0.54738  0.06039  0.34533  1.0000
  C   C1698     1.0  0.49790  0.43853  0.33042  1.0000
  C   C1699     1.0  0.95696  0.10047  0.45164  1.0000
  S   S237      1.0  0.55372  0.01678  0.28902  1.0000
  H   H1369     1.0  0.92552  0.45825  0.41020  1.0000
  C   C1700     1.0  0.82194  0.00885  0.34904  1.0000
  C   C1701     1.0  0.50943  0.41972  0.32557  1.0000
  Fe  Fe119     1.0  0.62419  0.02491  0.29787  1.0000
  C   C1702     1.0  0.89807  0.44266  0.39310  1.0000
  H   H1370     1.0  0.86347  0.17606  0.47298  1.0000
  S   S238      1.0  0.92023  0.36695  0.32505  1.0000
  C   C1703     1.0  0.93854  0.30507  0.34654  1.0000
  H   H1371     1.0  0.97434  0.28195  0.39234  1.0000
  H   H1372     1.0  0.95401  0.35648  0.47409  1.0000
  C   C1704     1.0  0.90709  0.06888  0.45062  1.0000
  H   H1373     1.0  0.95849  0.41704  0.37027  1.0000
  C   C1705     1.0  0.54904  0.07342  0.36067  1.0000
  Fe  Fe120     1.0  0.95902  0.36631  0.30968  1.0000
  C   C1706     1.0  0.67722  0.00945  0.36303  1.0000
  C   C1707     1.0  0.93225  0.28917  0.42967  1.0000
  S   S239      1.0  0.77252  0.48212  0.26838  1.0000
  C   C1708     1.0  0.53975  0.13610  0.30143  1.0000
  C   C1709     1.0  0.93809  0.26299  0.36463  1.0000
  H   H1374     1.0  0.52650  0.42511  0.31401  1.0000
  H   H1375     1.0  0.92882  0.31949  0.34356  1.0000
  C   C1710     1.0  0.94208  0.20953  0.46129  1.0000
  C   C1711     1.0  0.85019  0.03190  0.31138  1.0000
  H   H1376     1.0  0.51564  0.00456  0.37884  1.0000
  H   H1377     1.0  0.79934  0.02953  0.43630  1.0000
  C   C1712     1.0  0.94890  0.35910  0.46005  1.0000
  C   C1713     1.0  0.55231  0.15966  0.28787  1.0000
  H   H1378     1.0  0.60160  0.04766  0.35455  1.0000
  H   H1379     1.0  0.81079  0.04365  0.34845  1.0000
  C   C1714     1.0  0.85499  0.37192  0.33758  1.0000
  C   C1715     1.0  0.84527  0.36789  0.35739  1.0000
  C   C1716     1.0  0.83130  0.38366  0.36441  1.0000
  C   C1717     1.0  0.82689  0.40332  0.35159  1.0000
  C   C1718     1.0  0.83682  0.40759  0.33166  1.0000
  C   C1719     1.0  0.85113  0.39190  0.32479  1.0000
  P   P57       1.0  0.82942  0.43125  0.31474  1.0000
  C   C1720     1.0  0.82117  0.45540  0.32707  1.0000
  H   H1380     1.0  0.95501  0.33593  0.38711  1.0000
  C   C1721     1.0  0.82152  0.03351  0.34023  1.0000
  C   C1722     1.0  0.54084  0.16665  0.27263  1.0000
  H   H1381     1.0  0.88911  0.16422  0.44639  1.0000
  H   H1382     1.0  0.58030  0.99383  0.42092  1.0000
  C   C1723     1.0  0.88286  0.45418  0.30022  1.0000
  C   C1724     1.0  0.75051  0.99982  0.29892  1.0000
  S   S240      1.0  0.91711  0.16647  0.41035  1.0000
  C   C1725     1.0  0.86900  0.37691  0.26964  1.0000
  C   C1726     1.0  0.79723  0.12733  0.46094  1.0000
  C   C1727     1.0  0.79534  0.45062  0.33680  1.0000
  C   C1728     1.0  0.80263  0.41463  0.30453  1.0000
  C   C1729     1.0  0.79776  0.38809  0.30334  1.0000
  C   C1730     1.0  0.77756  0.37562  0.29483  1.0000
  C   C1731     1.0  0.76200  0.38947  0.28750  1.0000
  C   C1732     1.0  0.76666  0.41581  0.28867  1.0000
  C   C1733     1.0  0.78703  0.42846  0.29697  1.0000
  H   H1383     1.0  0.86527  0.35939  0.33197  1.0000
  H   H1384     1.0  0.84846  0.35245  0.36723  1.0000
  H   H1385     1.0  0.82371  0.38053  0.37976  1.0000
  H   H1386     1.0  0.81569  0.41504  0.35727  1.0000
  H   H1387     1.0  0.85883  0.39471  0.30945  1.0000
  H   H1388     1.0  0.72686  0.07084  0.33006  1.0000
  C   C1734     1.0  0.63786  0.21391  0.24282  1.0000
  H   H1389     1.0  0.56039  0.06917  0.37108  1.0000
  C   C1735     1.0  0.79450  0.15702  0.48286  1.0000
  H   H1390     1.0  0.83680  0.44963  0.27265  1.0000
  C   C1736     1.0  0.85798  0.44764  0.29578  1.0000
  C   C1737     1.0  0.91291  0.47835  0.34024  1.0000
  C   C1738     1.0  0.58178  0.99302  0.39067  1.0000
  C   C1739     1.0  0.53732  0.10936  0.23797  1.0000
  H   H1391     1.0  0.78016  0.43269  0.33679  1.0000
  H   H1392     1.0  0.80979  0.37703  0.30857  1.0000
  H   H1393     1.0  0.77428  0.35530  0.29364  1.0000
  H   H1394     1.0  0.74660  0.37995  0.28064  1.0000
  H   H1395     1.0  0.75485  0.42668  0.28273  1.0000
  H   H1396     1.0  0.79088  0.44915  0.29717  1.0000
  C   C1740     1.0  0.84555  0.08334  0.28393  1.0000
  C   C1741     1.0  0.85424  0.10158  0.31993  1.0000
  C   C1742     1.0  0.84983  0.12590  0.31966  1.0000
  C   C1743     1.0  0.86559  0.14518  0.32745  1.0000
  C   C1744     1.0  0.88599  0.14042  0.33540  1.0000
  C   C1745     1.0  0.89067  0.11640  0.33554  1.0000
  C   C1746     1.0  0.86311  0.10801  0.27406  1.0000
  C   C1747     1.0  0.87196  0.11300  0.25404  1.0000
  C   C1748     1.0  0.86338  0.09348  0.24370  1.0000
  C   C1749     1.0  0.84590  0.06891  0.25337  1.0000
  C   C1750     1.0  0.83701  0.06384  0.27339  1.0000
  H   H1397     1.0  0.83413  0.12992  0.31352  1.0000
  H   H1398     1.0  0.87615  0.47174  0.24727  1.0000
  H   H1399     1.0  0.89800  0.15517  0.34171  1.0000
  H   H1400     1.0  0.87010  0.12347  0.28170  1.0000
  H   H1401     1.0  0.51037  0.11077  0.35122  1.0000
  C   C1751     1.0  0.95288  0.08921  0.43564  1.0000
  H   H1402     1.0  0.83926  0.05376  0.24535  1.0000
  H   H1403     1.0  0.82348  0.04467  0.28065  1.0000
  H   H1404     1.0  0.94038  0.41930  0.41460  1.0000
  H   H1405     1.0  0.60755  0.06937  0.38235  1.0000
  C   C1752     1.0  0.51707  0.14983  0.27072  1.0000
  H   H1406     1.0  0.97167  0.46271  0.27611  1.0000
  S   S241      1.0  0.53915  0.99030  0.34594  1.0000
  S   S242      1.0  0.87090  0.35458  0.28944  1.0000
  H   H1407     1.0  0.86208  0.04081  0.29708  1.0000
  H   H1408     1.0  0.57098  0.17240  0.28915  1.0000
  C   C1753     1.0  0.92562  0.28182  0.36051  1.0000
  H   H1409     1.0  0.90629  0.11264  0.34198  1.0000
  H   H1410     1.0  0.93832  0.21128  0.44686  1.0000
  C   C1754     1.0  0.78346  0.07025  0.30263  1.0000
  C   C1755     1.0  0.95459  0.37617  0.38123  1.0000
  H   H1411     1.0  0.88800  0.38381  0.37980  1.0000
  H   H1412     1.0  0.79028  0.06646  0.28874  1.0000
  H   H1413     1.0  0.87869  0.07846  0.32840  1.0000
  P   P58       1.0  0.51198  0.47273  0.31854  1.0000
  P   P59       1.0  0.83391  0.07666  0.30983  1.0000
  C   C1756     1.0  0.89200  0.39332  0.25705  1.0000
  Fe  Fe121     1.0  0.72029  0.00036  0.39191  1.0000
  Fe  Fe122     1.0  0.95004  0.17275  0.42609  1.0000
  H   H1414     1.0  0.92809  0.27820  0.40243  1.0000
  C   C1757     1.0  0.75711  0.06836  0.30789  1.0000
  C   C1758     1.0  0.83504  0.04493  0.32112  1.0000
  C   C1759     1.0  0.59667  0.03592  0.36907  1.0000
  C   C1760     1.0  0.49859  0.39346  0.33543  1.0000
  C   C1761     1.0  0.52064  0.09665  0.34943  1.0000
  H   H1415     1.0  0.91172  0.28676  0.43423  1.0000
  H   H1416     1.0  0.91062  0.39116  0.25878  1.0000
  C   C1762     1.0  0.97536  0.47505  0.26199  1.0000
  H   H1417     1.0  0.87373  0.42282  0.37552  1.0000
  Fe  Fe123     1.0  0.79242  0.47379  0.24118  1.0000
  S   S243      1.0  0.68117  0.00267  0.38701  1.0000
  C   C1763     1.0  0.85347  0.08274  0.43015  1.0000
  C   C1764     1.0  0.83837  0.05667  0.43163  1.0000
  C   C1765     1.0  0.81116  0.04978  0.43504  1.0000
  C   C1766     1.0  0.79905  0.06898  0.43699  1.0000
  C   C1767     1.0  0.81412  0.09540  0.43497  1.0000
  C   C1768     1.0  0.84142  0.10200  0.43188  1.0000
  P   P60       1.0  0.79869  0.12053  0.43697  1.0000
  C   C1769     1.0  0.76579  0.10885  0.43294  1.0000
  C   C1770     1.0  0.74431  0.10929  0.44637  1.0000
  C   C1771     1.0  0.71888  0.09900  0.44359  1.0000
  C   C1772     1.0  0.71467  0.08824  0.42739  1.0000
  C   C1773     1.0  0.73590  0.08773  0.41397  1.0000
  C   C1774     1.0  0.76130  0.09778  0.41681  1.0000
  C   C1775     1.0  0.81854  0.14982  0.41920  1.0000
  C   C1776     1.0  0.84075  0.16683  0.42346  1.0000
  C   C1777     1.0  0.85738  0.18849  0.40951  1.0000
  C   C1778     1.0  0.85197  0.19349  0.39117  1.0000
  C   C1779     1.0  0.82976  0.17694  0.38684  1.0000
  H   H1418     1.0  0.87460  0.08832  0.42698  1.0000
  H   H1419     1.0  0.84778  0.04189  0.43001  1.0000
  C   C1780     1.0  0.91094  0.08029  0.46673  1.0000
  H   H1420     1.0  0.85362  0.12206  0.43033  1.0000
  C   C1781     1.0  0.58748  0.00848  0.37202  1.0000
  H   H1421     1.0  0.85620  0.28430  0.42383  1.0000
  H   H1422     1.0  0.69497  0.08000  0.42533  1.0000
  H   H1423     1.0  0.73269  0.07907  0.40153  1.0000
  H   H1424     1.0  0.77745  0.09647  0.40661  1.0000
  H   H1425     1.0  0.84557  0.16301  0.43744  1.0000
  H   H1426     1.0  0.87484  0.20117  0.41272  1.0000
  H   H1427     1.0  0.86523  0.21002  0.38027  1.0000
  H   H1428     1.0  0.54902  0.13102  0.31306  1.0000
  C   C1782     1.0  0.60005  0.04812  0.38473  1.0000
  H   H1429     1.0  0.79638  0.14257  0.39685  1.0000
  C   C1783     1.0  0.88741  0.42149  0.38475  1.0000
  C   C1784     1.0  0.92797  0.07337  0.43515  1.0000
  C   C1785     1.0  0.87485  0.09701  0.32789  1.0000
  Fe  Fe124     1.0  0.94187  0.20488  0.39049  1.0000
  H   H1430     1.0  0.50730  0.37893  0.33140  1.0000
  C   C1786     1.0  0.54753  0.47358  0.28595  1.0000
  C   C1787     1.0  0.86496  0.29604  0.39284  1.0000
  C   C1788     1.0  0.70280  0.46939  0.26828  1.0000
  C   C1789     1.0  0.51854  0.08329  0.33412  1.0000
  C   C1790     1.0  0.69698  0.01172  0.34730  1.0000
  H   H1431     1.0  0.89659  0.12118  0.45058  1.0000
  C   C1791     1.0  0.96409  0.35537  0.37803  1.0000
  C   C1792     1.0  0.90506  0.46733  0.28570  1.0000
  H   H1432     1.0  0.82549  0.40070  0.24957  1.0000
  H   H1433     1.0  0.74695  0.11704  0.45923  1.0000
  S   S244      1.0  0.52162  0.42613  0.25708  1.0000
  H   H1434     1.0  0.82571  0.18071  0.37255  1.0000
  C   C1793     1.0  0.94535  0.18641  0.47046  1.0000
  H   H1435     1.0  0.79758  0.16748  0.45228  1.0000
  Fe  Fe125     1.0  0.93986  0.14805  0.39135  1.0000
  C   C1794     1.0  0.86607  0.15687  0.47484  1.0000
  H   H1436     1.0  0.75490  0.01651  0.28712  1.0000
  C   C1795     1.0  0.88457  0.12556  0.46229  1.0000
  H   H1437     1.0  0.90589  0.27834  0.36814  1.0000
  C   C1796     1.0  0.91808  0.36539  0.44038  1.0000
  C   C1797     1.0  0.81251  0.03075  0.47950  1.0000
  C   C1798     1.0  0.63014  0.19306  0.25883  1.0000
  C   C1799     1.0  0.93549  0.36542  0.42373  1.0000
  H   H1438     1.0  0.96449  0.00621  0.47563  1.0000
  H   H1439     1.0  0.76886  0.46567  0.35363  1.0000
  S   S245      1.0  0.96230  0.18591  0.37004  1.0000
  C   C1800     1.0  0.65355  0.01244  0.35971  1.0000
  P   P61       1.0  0.92666  0.37025  0.40045  1.0000
  H   H1440     1.0  0.94210  0.29949  0.45605  1.0000
  C   C1801     1.0  0.92521  0.41942  0.40655  1.0000
  H   H1441     1.0  0.92001  0.48284  0.25528  1.0000
  H   H1442     1.0  0.70848  0.01910  0.31628  1.0000
  H   H1443     1.0  0.49785  0.99074  0.32432  1.0000
  C   C1802     1.0  0.92470  0.36207  0.45846  1.0000
  C   C1803     1.0  0.87800  0.46705  0.26207  1.0000
  H   H1444     1.0  0.64743  0.23374  0.24436  1.0000
  C   C1804     1.0  0.68024  0.45326  0.26406  1.0000
  C   C1805     1.0  0.48880  0.06337  0.30475  1.0000
  C   C1806     1.0  0.93615  0.09586  0.46719  1.0000
  C   C1807     1.0  0.83595  0.99544  0.33895  1.0000
  C   C1808     1.0  0.84049  0.47874  0.32752  1.0000
  H   H1445     1.0  0.51804  0.48676  0.38444  1.0000
  S   S246      1.0  0.94627  0.16112  0.45813  1.0000
  H   H1446     1.0  0.63120  0.01978  0.33835  1.0000
  C   C1809     1.0  0.78889  0.46909  0.34655  1.0000
  H   H1447     1.0  0.50813  0.15496  0.25889  1.0000
  H   H1448     1.0  0.53069  0.46671  0.27963  1.0000
  P   P62       1.0  0.49818  0.08958  0.31761  1.0000
  C   C1810     1.0  0.57241  0.47729  0.27521  1.0000
  C   C1811     1.0  0.50472  0.12608  0.28404  1.0000
  H   H1449     1.0  0.96726  0.47416  0.31223  1.0000
  H   H1450     1.0  0.73422  0.05429  0.47171  1.0000
  H   H1451     1.0  0.86167  0.99689  0.31254  1.0000
  C   C1812     1.0  0.48852  0.41678  0.26888  1.0000
  C   C1813     1.0  0.49243  0.99524  0.33827  1.0000
  C   C1814     1.0  0.96401  0.30956  0.33650  1.0000
  Fe  Fe126     1.0  0.58271  0.99796  0.27719  1.0000
  C   C1815     1.0  0.97574  0.29879  0.43626  1.0000
  S   S247      1.0  0.78594  0.99627  0.40415  1.0000
  H   H1452     1.0  0.57445  0.47341  0.26075  1.0000
  H   H1453     1.0  0.82986  0.07167  0.47883  1.0000
  C   C1816     1.0  0.86729  0.41547  0.23935  1.0000
  C   C1817     1.0  0.89114  0.41257  0.24206  1.0000
  H   H1454     1.0  0.92415  0.47236  0.28926  1.0000
  H   H1455     1.0  0.78489  0.01621  0.30993  1.0000
  C   C1818     1.0  0.61332  0.16276  0.23885  1.0000
  C   C1819     1.0  0.73805  0.03621  0.47678  1.0000
  H   H1456     1.0  0.79393  0.08778  0.47478  1.0000
  H   H1457     1.0  0.63843  0.01104  0.37182  1.0000
  C   C1820     1.0  0.54440  0.47872  0.30464  1.0000
  C   C1821     1.0  0.50231  0.00269  0.36910  1.0000
  H   H1458     1.0  0.52800  0.12425  0.23544  1.0000
  C   C1822     1.0  0.48015  0.40268  0.28804  1.0000
  C   C1823     1.0  0.55491  0.99313  0.23516  1.0000
  H   H1459     1.0  0.81117  0.99992  0.36368  1.0000
  C   C1824     1.0  0.51679  0.48141  0.35537  1.0000
  C   C1825     1.0  0.83276  0.05263  0.48069  1.0000
  C   C1826     1.0  0.79489  0.10742  0.47671  1.0000
  H   H1460     1.0  0.79443  0.03325  0.47665  1.0000
  C   C1827     1.0  0.74353  0.99497  0.47110  1.0000
  C   C1828     1.0  0.68277  0.48770  0.23712  1.0000
  C   C1829     1.0  0.50965  0.99732  0.35097  1.0000
  S   S248      1.0  0.97292  0.21265  0.40802  1.0000
  C   C1830     1.0  0.49263  0.48162  0.30197  1.0000
  H   H1461     1.0  0.93962  0.10588  0.47890  1.0000
  C   C1831     1.0  0.97640  0.29062  0.34056  1.0000
  C   C1832     1.0  0.56650  0.48713  0.31260  1.0000
  H   H1462     1.0  0.83417  0.99038  0.44115  1.0000
  C   C1833     1.0  0.81563  0.00587  0.48176  1.0000
  H   H1463     1.0  0.61369  0.48923  0.27463  1.0000
  H   H1464     1.0  0.65653  0.47600  0.69332  1.0000
  S   S249      1.0  0.93814  0.23669  0.55438  1.0000
  S   S250      1.0  0.93895  0.16739  0.57787  1.0000
  C   C1834     1.0  0.85576  0.13919  0.49250  1.0000
  S   S251      1.0  0.94792  0.29505  0.58069  1.0000
  H   H1465     1.0  0.92522  0.18207  0.54145  1.0000
  P   P63       1.0  0.55029  0.46663  0.61630  1.0000
  H   H1466     1.0  0.87771  0.02220  0.48904  1.0000
  Fe  Fe127     1.0  0.81027  0.07912  0.55049  1.0000
  S   S252      1.0  0.76849  0.07822  0.55374  1.0000
  S   S253      1.0  0.84052  0.11953  0.54263  1.0000
  Fe  Fe128     1.0  0.79576  0.01974  0.55378  1.0000
  S   S254      1.0  0.75276  0.01389  0.55771  1.0000
  H   H1467     1.0  0.80122  0.48021  0.66892  1.0000
  Fe  Fe129     1.0  0.76460  0.04966  0.53403  1.0000
  S   S255      1.0  0.74348  0.05428  0.50985  1.0000
  Fe  Fe130     1.0  0.76009  0.04280  0.57721  1.0000
  S   S256      1.0  0.73346  0.03776  0.60592  1.0000
  S   S257      1.0  0.80709  0.05360  0.52849  1.0000
  S   S258      1.0  0.80242  0.04560  0.57552  1.0000
  P   P64       1.0  0.88007  0.31294  0.64473  1.0000
  C   C1835     1.0  0.79254  0.13716  0.49846  1.0000
  Fe  Fe131     1.0  0.53736  0.45682  0.71364  1.0000
  H   H1468     1.0  0.52953  0.08683  0.66709  1.0000
  C   C1836     1.0  0.82552  0.34417  0.66814  1.0000
  S   S259      1.0  0.60015  0.43838  0.70218  1.0000
  Fe  Fe132     1.0  0.55927  0.41665  0.70012  1.0000
  S   S260      1.0  0.54734  0.37809  0.69056  1.0000
  C   C1837     1.0  0.89685  0.43781  0.72605  1.0000
  S   S261      1.0  0.55321  0.45232  0.68403  1.0000
  C   C1838     1.0  0.48368  0.08745  0.61801  1.0000
  Fe  Fe133     1.0  0.56938  0.06320  0.66481  1.0000
  S   S262      1.0  0.56465  0.06880  0.63399  1.0000
  S   S263      1.0  0.57612  0.09409  0.68284  1.0000
  H   H1469     1.0  0.95093  0.34324  0.59328  1.0000
  H   H1470     1.0  0.62729  0.46715  0.64413  1.0000
  S   S264      1.0  0.95854  0.25758  0.49870  1.0000
  Fe  Fe134     1.0  0.59223  0.04517  0.62980  1.0000
  S   S265      1.0  0.62324  0.05361  0.60260  1.0000
  Fe  Fe135     1.0  0.53299  0.02968  0.64415  1.0000
  S   S266      1.0  0.59966  0.04309  0.65972  1.0000
  S   S267      1.0  0.53557  0.02587  0.67535  1.0000
  C   C1839     1.0  0.55019  0.10703  0.68641  1.0000
  C   C1840     1.0  0.55020  0.12449  0.69893  1.0000
  H   H1471     1.0  0.56646  0.13045  0.70582  1.0000
  C   C1841     1.0  0.54029  0.48522  0.63306  1.0000
  H   H1472     1.0  0.90593  0.33722  0.67366  1.0000
  C   C1842     1.0  0.76386  0.41480  0.71056  1.0000
  C   C1843     1.0  0.57834  0.41196  0.64394  1.0000
  C   C1844     1.0  0.85978  0.11471  0.49510  1.0000
  Fe  Fe136     1.0  0.58149  0.44563  0.73004  1.0000
  H   H1473     1.0  0.50998  0.40669  0.68607  1.0000
  H   H1474     1.0  0.95487  0.28022  0.64975  1.0000
  C   C1845     1.0  0.52280  0.37554  0.67696  1.0000
  C   C1846     1.0  0.51878  0.35646  0.66566  1.0000
  C   C1847     1.0  0.74312  0.03109  0.49527  1.0000
  H   H1475     1.0  0.53076  0.34369  0.66527  1.0000
  C   C1848     1.0  0.49322  0.06962  0.73149  1.0000
  Fe  Fe137     1.0  0.96441  0.26698  0.56669  1.0000
  C   C1849     1.0  0.48488  0.20237  0.59209  1.0000
  H   H1476     1.0  0.49316  0.10557  0.67248  1.0000
  C   C1850     1.0  0.73638  0.41337  0.68705  1.0000
  C   C1851     1.0  0.91576  0.42214  0.69924  1.0000
  C   C1852     1.0  0.91104  0.39781  0.71122  1.0000
  C   C1853     1.0  0.51024  0.30737  0.72082  1.0000
  C   C1854     1.0  0.88051  0.40933  0.65689  1.0000
  H   H1477     1.0  0.92515  0.42578  0.68426  1.0000
  Fe  Fe138     1.0  0.95937  0.39577  0.67847  1.0000
  C   C1855     1.0  0.70308  0.04270  0.60496  1.0000
  C   C1856     1.0  0.68435  0.03748  0.62207  1.0000
  C   C1857     1.0  0.65992  0.04103  0.62158  1.0000
  C   C1858     1.0  0.65395  0.04958  0.60394  1.0000
  C   C1859     1.0  0.67274  0.05487  0.58684  1.0000
  C   C1860     1.0  0.69725  0.05158  0.58734  1.0000
  S   S268      1.0  0.54138  0.41991  0.72957  1.0000
  H   H1478     1.0  0.64570  0.03706  0.63484  1.0000
  H   H1479     1.0  0.66831  0.06157  0.57315  1.0000
  H   H1480     1.0  0.71153  0.05568  0.57407  1.0000
  H   H1481     1.0  0.60174  0.47467  0.59139  1.0000
  C   C1861     1.0  0.48300  0.28310  0.65031  1.0000
  H   H1482     1.0  0.76142  0.47341  0.69355  1.0000
  H   H1483     1.0  0.75977  0.99016  0.60789  1.0000
  H   H1484     1.0  0.91484  0.11648  0.50347  1.0000
  C   C1862     1.0  0.91237  0.15262  0.56769  1.0000
  C   C1863     1.0  0.89286  0.12927  0.57792  1.0000
  C   C1864     1.0  0.87087  0.11825  0.57029  1.0000
  C   C1865     1.0  0.86863  0.13036  0.55224  1.0000
  C   C1866     1.0  0.88873  0.15291  0.54172  1.0000
  C   C1867     1.0  0.91028  0.16423  0.54950  1.0000
  H   H1485     1.0  0.89435  0.12014  0.59202  1.0000
  H   H1486     1.0  0.85544  0.10084  0.57853  1.0000
  H   H1487     1.0  0.88744  0.16193  0.52753  1.0000
  C   C1868     1.0  0.52071  0.47219  0.64961  1.0000
  H   H1488     1.0  0.60606  0.98992  0.64790  1.0000
  H   H1489     1.0  0.54346  0.41109  0.63370  1.0000
  C   C1869     1.0  0.48629  0.13181  0.63394  1.0000
  H   H1490     1.0  0.50011  0.20799  0.57915  1.0000
  C   C1870     1.0  0.86833  0.42798  0.65189  1.0000
  C   C1871     1.0  0.85641  0.04979  0.48417  1.0000
  P   P65       1.0  0.81712  0.42093  0.70219  1.0000
  H   H1491     1.0  0.93477  0.44702  0.65081  1.0000
  S   S269      1.0  0.56008  0.00653  0.63736  1.0000
  C   C1872     1.0  0.82069  0.33327  0.68784  1.0000
  C   C1873     1.0  0.88990  0.07583  0.50913  1.0000
  H   H1492     1.0  0.52233  0.09208  0.62316  1.0000
  S   S270      1.0  0.49494  0.01846  0.63399  1.0000
  H   H1493     1.0  0.68872  0.03064  0.63575  1.0000
  H   H1494     1.0  0.71737  0.41146  0.68362  1.0000
  H   H1495     1.0  0.83037  0.30804  0.70976  1.0000
  C   C1874     1.0  0.96548  0.31038  0.59662  1.0000
  C   C1875     1.0  0.75788  0.41665  0.67243  1.0000
  H   H1496     1.0  0.58029  0.07925  0.73086  1.0000
  S   S271      1.0  0.92377  0.37467  0.70235  1.0000
  H   H1497     1.0  0.48882  0.32090  0.70110  1.0000
  C   C1876     1.0  0.67429  0.48056  0.69894  1.0000
  H   H1498     1.0  0.57272  0.01830  0.70142  1.0000
  C   C1877     1.0  0.85781  0.46763  0.69765  1.0000
  H   H1499     1.0  0.50396  0.38934  0.59208  1.0000
  H   H1500     1.0  0.79394  0.17608  0.48531  1.0000
  C   C1878     1.0  0.93755  0.32199  0.67601  1.0000
  H   H1501     1.0  0.79746  0.45390  0.72604  1.0000
  H   H1502     1.0  0.49310  0.05118  0.66221  1.0000
  H   H1503     1.0  0.61349  0.41861  0.65508  1.0000
  C   C1879     1.0  0.90851  0.44196  0.70658  1.0000
  H   H1504     1.0  0.75155  0.00342  0.51620  1.0000
  C   C1880     1.0  0.85260  0.39587  0.68885  1.0000
  H   H1505     1.0  0.81425  0.25982  0.61424  1.0000
  H   H1506     1.0  0.84510  0.14463  0.50436  1.0000
  H   H1507     1.0  0.90527  0.46912  0.66519  1.0000
  C   C1881     1.0  0.95287  0.20562  0.49834  1.0000
  C   C1882     1.0  0.95034  0.99711  0.48906  1.0000
  H   H1508     1.0  0.86905  0.03581  0.55397  1.0000
  Fe  Fe139     1.0  0.96058  0.21040  0.56431  1.0000
  C   C1883     1.0  0.51447  0.48597  0.66363  1.0000
  H   H1509     1.0  0.92112  0.11528  0.53680  1.0000
  H   H1510     1.0  0.51061  0.45127  0.65189  1.0000
  C   C1884     1.0  0.92027  0.47969  0.65262  1.0000
  C   C1885     1.0  0.48343  0.36996  0.65530  1.0000
  H   H1511     1.0  0.79062  0.14066  0.51303  1.0000
  H   H1512     1.0  0.49671  0.46765  0.61739  1.0000
  S   S272      1.0  0.48279  0.14047  0.69653  1.0000
  C   C1886     1.0  0.91581  0.32400  0.66868  1.0000
  C   C1887     1.0  0.48071  0.37013  0.72845  1.0000
  C   C1888     1.0  0.83394  0.31633  0.69446  1.0000
  H   H1513     1.0  0.89826  0.07522  0.56218  1.0000
  C   C1889     1.0  0.55242  0.03214  0.72368  1.0000
  C   C1890     1.0  0.52435  0.42319  0.60237  1.0000
  H   H1514     1.0  0.68651  0.02517  0.55258  1.0000
  C   C1891     1.0  0.91611  0.99889  0.51420  1.0000
  C   C1892     1.0  0.50720  0.39203  0.67728  1.0000
  H   H1515     1.0  0.52934  0.14781  0.71220  1.0000
  S   S273      1.0  0.57560  0.48309  0.71703  1.0000
  H   H1516     1.0  0.79835  0.42066  0.66528  1.0000
  H   H1517     1.0  0.84084  0.44684  0.66173  1.0000
  C   C1893     1.0  0.56238  0.42352  0.63476  1.0000
  H   H1518     1.0  0.48259  0.06997  0.61215  1.0000
  H   H1519     1.0  0.91258  0.46076  0.69714  1.0000
  C   C1894     1.0  0.95138  0.30592  0.66939  1.0000
  H   H1520     1.0  0.69947  0.00524  0.52546  1.0000
  H   H1521     1.0  0.79105  0.09704  0.50748  1.0000
  C   C1895     1.0  0.81742  0.46452  0.71874  1.0000
  H   H1522     1.0  0.54269  0.41907  0.60007  1.0000
  H   H1523     1.0  0.49292  0.36664  0.71638  1.0000
  H   H1524     1.0  0.75554  0.41731  0.65764  1.0000
  C   C1896     1.0  0.49948  0.35400  0.65466  1.0000
  H   H1525     1.0  0.86979  0.45947  0.68877  1.0000
  Fe  Fe140     1.0  0.96962  0.25075  0.52766  1.0000
  H   H1526     1.0  0.87550  0.44145  0.63796  1.0000
  C   C1897     1.0  0.81131  0.39810  0.72479  1.0000
  C   C1898     1.0  0.57049  0.45085  0.62790  1.0000
  C   C1899     1.0  0.59393  0.46650  0.63151  1.0000
  H   H1527     1.0  0.93601  0.03025  0.48945  1.0000
  C   C1900     1.0  0.73932  0.41219  0.70613  1.0000
  C   C1901     1.0  0.52931  0.13449  0.70240  1.0000
  H   H1528     1.0  0.52600  0.32596  0.71728  1.0000
  H   H1529     1.0  0.78208  0.36696  0.71731  1.0000
  C   C1902     1.0  0.90762  0.30975  0.65471  1.0000
  C   C1903     1.0  0.82762  0.25940  0.62388  1.0000
  H   H1530     1.0  0.65460  0.46067  0.72808  1.0000
  C   C1904     1.0  0.57315  0.99867  0.72969  1.0000
  H   H1531     1.0  0.76570  0.41376  0.72548  1.0000
  S   S274      1.0  0.49825  0.46258  0.71840  1.0000
  C   C1905     1.0  0.50751  0.12218  0.63208  1.0000
  H   H1532     1.0  0.52485  0.13166  0.63711  1.0000
  H   H1533     1.0  0.80688  0.33817  0.69802  1.0000
  H   H1534     1.0  0.96876  0.30508  0.67461  1.0000
  H   H1535     1.0  0.86186  0.29676  0.68674  1.0000
  C   C1906     1.0  0.74770  0.00754  0.50190  1.0000
  C   C1907     1.0  0.78235  0.41877  0.67685  1.0000
  Fe  Fe141     1.0  0.56546  0.00610  0.66767  1.0000
  H   H1536     1.0  0.54754  0.04590  0.71343  1.0000
  H   H1537     1.0  0.90414  0.36899  0.64041  1.0000
  S   S275      1.0  0.97521  0.46310  0.61681  1.0000
  H   H1538     1.0  0.48737  0.27335  0.67948  1.0000
  H   H1539     1.0  0.50306  0.08891  0.73370  1.0000
  C   C1908     1.0  0.84838  0.43072  0.66537  1.0000
  H   H1540     1.0  0.86282  0.03628  0.52098  1.0000
  C   C1909     1.0  0.49861  0.45051  0.61209  1.0000
  C   C1910     1.0  0.69407  0.99379  0.54006  1.0000
  C   C1911     1.0  0.90598  0.09817  0.51405  1.0000
  C   C1912     1.0  0.90938  0.09770  0.53301  1.0000
  C   C1913     1.0  0.89639  0.07514  0.54735  1.0000
  C   C1914     1.0  0.88003  0.05297  0.54272  1.0000
  C   C1915     1.0  0.87671  0.05330  0.52375  1.0000
  C   C1916     1.0  0.52958  0.10017  0.67687  1.0000
  H   H1541     1.0  0.49953  0.47564  0.67647  1.0000
  C   C1917     1.0  0.94359  0.29198  0.65531  1.0000
  Fe  Fe142     1.0  0.59211  0.47460  0.68901  1.0000
  C   C1918     1.0  0.94974  0.18410  0.48927  1.0000
  H   H1542     1.0  0.94405  0.33344  0.68652  1.0000
  C   C1919     1.0  0.84381  0.33833  0.65506  1.0000
  C   C1920     1.0  0.87260  0.39322  0.67531  1.0000
  H   H1543     1.0  0.48762  0.24233  0.59395  1.0000
  H   H1544     1.0  0.72249  0.40899  0.71750  1.0000
  C   C1921     1.0  0.52223  0.44477  0.61035  1.0000
  H   H1545     1.0  0.84733  0.34698  0.63986  1.0000
  H   H1546     1.0  0.89693  0.40833  0.64678  1.0000
  C   C1922     1.0  0.50263  0.40661  0.59745  1.0000
  C   C1923     1.0  0.84359  0.28293  0.62711  1.0000
  H   H1547     1.0  0.85200  0.10141  0.50900  1.0000
  C   C1924     1.0  0.78567  0.41816  0.69596  1.0000
  C   C1925     1.0  0.84572  0.23472  0.64582  1.0000
  C   C1926     1.0  0.82875  0.23530  0.63318  1.0000
  C   C1927     1.0  0.84003  0.41444  0.68393  1.0000
  C   C1928     1.0  0.50910  0.11085  0.67985  1.0000
  C   C1929     1.0  0.86123  0.28256  0.63938  1.0000
  C   C1930     1.0  0.86161  0.25821  0.64914  1.0000
  H   H1548     1.0  0.84794  0.38415  0.70334  1.0000
  C   C1931     1.0  0.92219  0.29438  0.64764  1.0000
  C   C1932     1.0  0.89407  0.33913  0.62364  1.0000
  C   C1933     1.0  0.90450  0.36498  0.62606  1.0000
  C   C1934     1.0  0.91617  0.38564  0.61001  1.0000
  C   C1935     1.0  0.91740  0.38060  0.59141  1.0000
  C   C1936     1.0  0.90730  0.35485  0.58885  1.0000
  C   C1937     1.0  0.89610  0.33407  0.60491  1.0000
  H   H1549     1.0  0.84648  0.21603  0.65314  1.0000
  H   H1550     1.0  0.81646  0.21707  0.63065  1.0000
  H   H1551     1.0  0.81547  0.35755  0.66304  1.0000
  H   H1552     1.0  0.84205  0.30144  0.62015  1.0000
  H   H1553     1.0  0.87393  0.25724  0.65950  1.0000
  C   C1938     1.0  0.83152  0.45365  0.70604  1.0000
  H   H1554     1.0  0.91741  0.28463  0.63594  1.0000
  C   C1939     1.0  0.83914  0.00285  0.48527  1.0000
  H   H1555     1.0  0.92485  0.40551  0.61200  1.0000
  H   H1556     1.0  0.92689  0.39658  0.57900  1.0000
  H   H1557     1.0  0.90930  0.35079  0.57444  1.0000
  H   H1558     1.0  0.88999  0.31416  0.60260  1.0000
  C   C1940     1.0  0.76845  0.19915  0.60832  1.0000
  C   C1941     1.0  0.76925  0.22273  0.59685  1.0000
  C   C1942     1.0  0.79026  0.23566  0.58130  1.0000
  C   C1943     1.0  0.81041  0.22495  0.57716  1.0000
  C   C1944     1.0  0.80968  0.20116  0.58855  1.0000
  C   C1945     1.0  0.78859  0.18840  0.60425  1.0000
  P   P66       1.0  0.83587  0.18756  0.58307  1.0000
  C   C1946     1.0  0.82410  0.15289  0.59432  1.0000
  C   C1947     1.0  0.84486  0.19276  0.55703  1.0000
  C   C1948     1.0  0.82555  0.18713  0.54604  1.0000
  C   C1949     1.0  0.83256  0.19212  0.52587  1.0000
  C   C1950     1.0  0.85882  0.20332  0.51649  1.0000
  C   C1951     1.0  0.87806  0.20960  0.52728  1.0000
  C   C1952     1.0  0.87112  0.20412  0.54745  1.0000
  C   C1953     1.0  0.81099  0.13401  0.58481  1.0000
  C   C1954     1.0  0.80014  0.10760  0.59424  1.0000
  C   C1955     1.0  0.80245  0.09968  0.61314  1.0000
  C   C1956     1.0  0.81553  0.11825  0.62274  1.0000
  C   C1957     1.0  0.82611  0.14477  0.61346  1.0000
  C   C1958     1.0  0.86377  0.20426  0.59223  1.0000
  C   C1959     1.0  0.88213  0.19168  0.59613  1.0000
  C   C1960     1.0  0.90403  0.20466  0.60281  1.0000
  C   C1961     1.0  0.90807  0.23044  0.60532  1.0000
  C   C1962     1.0  0.89014  0.24326  0.60118  1.0000
  C   C1963     1.0  0.86816  0.23032  0.59456  1.0000
  H   H1559     1.0  0.75200  0.18895  0.62025  1.0000
  H   H1560     1.0  0.75346  0.23085  0.59992  1.0000
  H   H1561     1.0  0.79081  0.25387  0.57233  1.0000
  H   H1562     1.0  0.82652  0.23514  0.56500  1.0000
  H   H1563     1.0  0.78738  0.16999  0.61325  1.0000
  H   H1564     1.0  0.80511  0.17875  0.55307  1.0000
  H   H1565     1.0  0.81763  0.18718  0.51753  1.0000
  H   H1566     1.0  0.86438  0.20694  0.50090  1.0000
  H   H1567     1.0  0.89852  0.21805  0.52008  1.0000
  H   H1568     1.0  0.88637  0.20838  0.55549  1.0000
  H   H1569     1.0  0.80897  0.13938  0.57014  1.0000
  H   H1570     1.0  0.78980  0.09320  0.58691  1.0000
  H   H1571     1.0  0.79390  0.07913  0.62031  1.0000
  H   H1572     1.0  0.81726  0.11209  0.63744  1.0000
  H   H1573     1.0  0.83558  0.15892  0.62134  1.0000
  H   H1574     1.0  0.87984  0.17201  0.59365  1.0000
  H   H1575     1.0  0.91832  0.19495  0.60548  1.0000
  H   H1576     1.0  0.92552  0.24083  0.60985  1.0000
  H   H1577     1.0  0.89380  0.26354  0.60259  1.0000
  H   H1578     1.0  0.85500  0.24093  0.59101  1.0000
  C   C1964     1.0  0.68650  0.00495  0.55536  1.0000
  C   C1965     1.0  0.69603  0.47842  0.72584  1.0000
  H   H1579     1.0  0.88276  0.37944  0.67943  1.0000
  C   C1966     1.0  0.50616  0.09995  0.62419  1.0000
  H   H1580     1.0  0.95717  0.20402  0.51254  1.0000
  H   H1581     1.0  0.90372  0.00936  0.52034  1.0000
  C   C1967     1.0  0.85738  0.32151  0.66164  1.0000
  C   C1968     1.0  0.60179  0.42761  0.64722  1.0000
  C   C1969     1.0  0.85956  0.02476  0.48633  1.0000
  H   H1582     1.0  0.57204  0.39088  0.64922  1.0000
  C   C1970     1.0  0.85198  0.31018  0.68139  1.0000
  C   C1971     1.0  0.50883  0.12778  0.69273  1.0000
  C   C1972     1.0  0.89720  0.39265  0.73035  1.0000
  C   C1973     1.0  0.67967  0.99035  0.57426  1.0000
  H   H1583     1.0  0.97418  0.36484  0.61638  1.0000
  C   C1974     1.0  0.60954  0.45488  0.64106  1.0000
  C   C1975     1.0  0.93700  0.46711  0.64447  1.0000
  C   C1976     1.0  0.56668  0.01656  0.71681  1.0000
  C   C1977     1.0  0.95110  0.22929  0.48878  1.0000
  C   C1978     1.0  0.79285  0.11247  0.49534  1.0000
  S   S276      1.0  0.95816  0.38963  0.64835  1.0000
  C   C1979     1.0  0.67323  0.47204  0.71853  1.0000
  C   C1980     1.0  0.96286  0.33410  0.60056  1.0000
  H   H1584     1.0  0.95175  0.16602  0.49654  1.0000
  C   C1981     1.0  0.93433  0.01065  0.49684  1.0000
  H   H1585     1.0  0.60786  0.12490  0.72707  1.0000
  H   H1586     1.0  0.50097  0.27996  0.64415  1.0000
  P   P67       1.0  0.88312  0.07800  0.48508  1.0000
  H   H1587     1.0  0.48768  0.14907  0.64013  1.0000
  C   C1982     1.0  0.97621  0.34645  0.61355  1.0000
  S   S277      1.0  0.97902  0.43953  0.66945  1.0000
  H   H1588     1.0  0.67474  0.99971  0.58595  1.0000
  H   H1589     1.0  0.49676  0.33947  0.64578  1.0000
  C   C1983     1.0  0.48730  0.38902  0.66667  1.0000
  C   C1984     1.0  0.79261  0.37305  0.72830  1.0000
  C   C1985     1.0  0.48916  0.30441  0.71160  1.0000
  C   C1986     1.0  0.95587  0.48008  0.62771  1.0000
  C   C1987     1.0  0.82960  0.48898  0.72279  1.0000
  H   H1590     1.0  0.59986  0.48777  0.62737  1.0000
  C   C1988     1.0  0.56820  0.48859  0.59372  1.0000
  C   C1989     1.0  0.59298  0.48844  0.58496  1.0000
  C   C1990     1.0  0.86563  0.47498  0.91953  1.0000
  S   S278      1.0  0.82578  0.46030  0.81193  1.0000
  C   C1991     1.0  0.79094  0.47063  0.85985  1.0000
  Fe  Fe143     1.0  0.86967  0.45995  0.76467  1.0000
  S   S279      1.0  0.86226  0.42852  0.79101  1.0000
  C   C1992     1.0  0.66849  0.42979  0.93317  1.0000
  Fe  Fe144     1.0  0.82092  0.42913  0.79446  1.0000
  S   S280      1.0  0.78481  0.39400  0.80314  1.0000
  Fe  Fe145     1.0  0.86776  0.46204  0.80653  1.0000
  S   S281      1.0  0.88713  0.46381  0.83194  1.0000
  S   S282      1.0  0.82780  0.45742  0.76665  1.0000
  C   C1993     1.0  0.62373  0.27024  0.96858  1.0000
  S   S283      1.0  0.60279  0.44471  0.75435  1.0000
  H   H1591     1.0  0.93707  0.42104  0.74750  1.0000
  S   S284      1.0  0.58594  0.45550  0.90479  1.0000
  C   C1994     1.0  0.62718  0.39872  0.93208  1.0000
  Fe  Fe146     1.0  0.56292  0.46624  0.85641  1.0000
  S   S285      1.0  0.53640  0.43811  0.88289  1.0000
  H   H1592     1.0  0.72447  0.44494  0.73385  1.0000
  Fe  Fe147     1.0  0.55246  0.46938  0.89903  1.0000
  S   S286      1.0  0.52242  0.47336  0.92293  1.0000
  Fe  Fe148     1.0  0.57147  0.42618  0.88692  1.0000
  S   S287      1.0  0.57253  0.38548  0.89663  1.0000
  H   H1593     1.0  0.55384  0.40447  0.77761  1.0000
  S   S288      1.0  0.59645  0.45116  0.85895  1.0000
  Fe  Fe149     1.0  0.73232  0.39970  0.91367  1.0000
  S   S289      1.0  0.73093  0.38143  0.88779  1.0000
  S   S290      1.0  0.74997  0.44334  0.91091  1.0000
  Fe  Fe150     1.0  0.70770  0.34739  0.94195  1.0000
  S   S291      1.0  0.70456  0.32447  0.91829  1.0000
  C   C1995     1.0  0.96238  0.47861  0.76122  1.0000
  Fe  Fe151     1.0  0.74471  0.35162  0.90442  1.0000
  S   S292      1.0  0.77748  0.34031  0.88905  1.0000
  Fe  Fe152     1.0  0.69083  0.35589  0.90361  1.0000
  S   S293      1.0  0.65828  0.34962  0.88718  1.0000
  S   S294      1.0  0.74935  0.37187  0.92921  1.0000
  S   S295      1.0  0.69078  0.37692  0.92837  1.0000
  Fe  Fe153     1.0  0.50498  0.25641  0.88162  1.0000
  S   S296      1.0  0.53109  0.23715  0.86629  1.0000
  S   S297      1.0  0.49823  0.29345  0.86800  1.0000
  Fe  Fe154     1.0  0.54333  0.23045  0.89461  1.0000
  S   S298      1.0  0.58435  0.23301  0.89766  1.0000
  S   S299      1.0  0.52013  0.25299  0.90895  1.0000
  C   C1996     1.0  0.76743  0.46518  0.77063  1.0000
  C   C1997     1.0  0.81926  0.38820  0.75706  1.0000
  C   C1998     1.0  0.64020  0.31691  0.88728  1.0000
  C   C1999     1.0  0.61726  0.31200  0.87999  1.0000
  C   C2000     1.0  0.60026  0.28620  0.88272  1.0000
  C   C2001     1.0  0.60648  0.26513  0.89229  1.0000
  C   C2002     1.0  0.63027  0.26979  0.89832  1.0000
  C   C2003     1.0  0.64702  0.29563  0.89596  1.0000
  H   H1594     1.0  0.61204  0.32817  0.87290  1.0000
  H   H1595     1.0  0.58218  0.28266  0.87769  1.0000
  H   H1596     1.0  0.63534  0.25348  0.90536  1.0000
  H   H1597     1.0  0.66479  0.29902  0.90128  1.0000
  H   H1598     1.0  0.71972  0.43188  0.95076  1.0000
  H   H1599     1.0  0.94994  0.46904  0.73542  1.0000
  C   C2004     1.0  0.60020  0.21918  0.95102  1.0000
  H   H1600     1.0  0.52184  0.39911  0.91776  1.0000
  C   C2005     1.0  0.55302  0.36131  0.88672  1.0000
  C   C2006     1.0  0.53222  0.36520  0.87881  1.0000
  C   C2007     1.0  0.51556  0.34449  0.87259  1.0000
  C   C2008     1.0  0.52005  0.32019  0.87402  1.0000
  C   C2009     1.0  0.54158  0.31693  0.88099  1.0000
  C   C2010     1.0  0.55777  0.33726  0.88756  1.0000
  H   H1601     1.0  0.52864  0.38383  0.87799  1.0000
  C   C2011     1.0  0.48519  0.18841  0.79953  1.0000
  H   H1602     1.0  0.54588  0.29873  0.88128  1.0000
  H   H1603     1.0  0.57422  0.33438  0.89307  1.0000
  C   C2012     1.0  0.65357  0.48114  0.89836  1.0000
  H   H1604     1.0  0.59502  0.32807  0.96698  1.0000
  C   C2013     1.0  0.75292  0.43885  0.77241  1.0000
  C   C2014     1.0  0.73189  0.45947  0.89860  1.0000
  C   C2015     1.0  0.71458  0.44618  0.88882  1.0000
  C   C2016     1.0  0.69748  0.45749  0.88110  1.0000
  C   C2017     1.0  0.51079  0.21249  0.95922  1.0000
  H   H1605     1.0  0.49242  0.00597  0.74005  1.0000
  H   H1606     1.0  0.71353  0.42629  0.88764  1.0000
  H   H1607     1.0  0.68551  0.44376  0.87434  1.0000
  C   C2018     1.0  0.58903  0.45502  0.77431  1.0000
  C   C2019     1.0  0.59856  0.45216  0.79119  1.0000
  C   C2020     1.0  0.58677  0.45833  0.80790  1.0000
  C   C2021     1.0  0.56547  0.46765  0.80772  1.0000
  C   C2022     1.0  0.55655  0.47145  0.79054  1.0000
  C   C2023     1.0  0.56813  0.46492  0.77389  1.0000
  H   H1608     1.0  0.61475  0.44459  0.79132  1.0000
  H   H1609     1.0  0.59401  0.45552  0.82089  1.0000
  C   C2024     1.0  0.88569  0.35941  0.83758  1.0000
  H   H1610     1.0  0.56061  0.46711  0.76088  1.0000
  C   C2025     1.0  0.78322  0.37698  0.82638  1.0000
  C   C2026     1.0  0.80591  0.37977  0.83374  1.0000
  C   C2027     1.0  0.80440  0.36691  0.85262  1.0000
  C   C2028     1.0  0.78004  0.35214  0.86442  1.0000
  C   C2029     1.0  0.75741  0.34913  0.85697  1.0000
  C   C2030     1.0  0.75904  0.36121  0.83788  1.0000
  H   H1611     1.0  0.82455  0.39214  0.82496  1.0000
  H   H1612     1.0  0.82188  0.36962  0.85844  1.0000
  H   H1613     1.0  0.73853  0.33777  0.86605  1.0000
  H   H1614     1.0  0.74144  0.35902  0.83227  1.0000
  C   C2031     1.0  0.86895  0.47466  0.93851  1.0000
  H   H1615     1.0  0.65754  0.41899  0.90714  1.0000
  C   C2032     1.0  0.54335  0.28553  0.94428  1.0000
  C   C2033     1.0  0.49776  0.38227  0.96621  1.0000
  C   C2034     1.0  0.94660  0.42433  0.77521  1.0000
  H   H1616     1.0  0.52529  0.35446  0.92390  1.0000
  C   C2035     1.0  0.82551  0.44293  0.95051  1.0000
  H   H1617     1.0  0.75392  0.42399  0.78401  1.0000
  C   C2036     1.0  0.51818  0.36233  0.93584  1.0000
  H   H1618     1.0  0.92885  0.43384  0.84555  1.0000
  C   C2037     1.0  0.48529  0.17583  0.83907  1.0000
  H   H1619     1.0  0.50167  0.21759  0.83676  1.0000
  C   C2038     1.0  0.78697  0.35593  0.74623  1.0000
  C   C2039     1.0  0.51836  0.03680  0.81087  1.0000
  C   C2040     1.0  0.75068  0.47027  0.82063  1.0000
  C   C2041     1.0  0.54472  0.03013  0.74360  1.0000
  C   C2042     1.0  0.55677  0.24475  0.79376  1.0000
  C   C2043     1.0  0.55367  0.24669  0.77467  1.0000
  C   C2044     1.0  0.55483  0.22628  0.76516  1.0000
  C   C2045     1.0  0.55918  0.20395  0.77470  1.0000
  C   C2046     1.0  0.56178  0.20156  0.79402  1.0000
  C   C2047     1.0  0.56058  0.22222  0.80348  1.0000
  P   P68       1.0  0.56872  0.17315  0.80587  1.0000
  C   C2048     1.0  0.57707  0.17888  0.82858  1.0000
  C   C2049     1.0  0.54137  0.14317  0.81066  1.0000
  H   H1620     1.0  0.51436  0.13006  0.95619  1.0000
  H   H1621     1.0  0.56477  0.44993  0.96702  1.0000
  C   C2050     1.0  0.52283  0.13987  0.79898  1.0000
  C   C2051     1.0  0.60323  0.18747  0.83040  1.0000
  H   H1622     1.0  0.50087  0.44449  0.81984  1.0000
  C   C2052     1.0  0.81739  0.48368  0.85929  1.0000
  H   H1623     1.0  0.54565  0.01014  0.77197  1.0000
  C   C2053     1.0  0.55708  0.17581  0.84451  1.0000
  C   C2054     1.0  0.59603  0.16940  0.79009  1.0000
  C   C2055     1.0  0.61630  0.19177  0.77931  1.0000
  C   C2056     1.0  0.63728  0.18908  0.76678  1.0000
  C   C2057     1.0  0.63820  0.16407  0.76493  1.0000
  C   C2058     1.0  0.61816  0.14171  0.77565  1.0000
  C   C2059     1.0  0.59714  0.14432  0.78818  1.0000
  H   H1624     1.0  0.55566  0.26047  0.80122  1.0000
  C   C2060     1.0  0.48880  0.01792  0.78453  1.0000
  C   C2061     1.0  0.68163  0.48018  0.79821  1.0000
  H   H1625     1.0  0.56042  0.18854  0.76697  1.0000
  H   H1626     1.0  0.56252  0.22119  0.81834  1.0000
  C   C2062     1.0  0.51579  0.38748  0.93230  1.0000
  H   H1627     1.0  0.83866  0.43025  0.86438  1.0000
  H   H1628     1.0  0.52320  0.15579  0.78778  1.0000
  H   H1629     1.0  0.61906  0.19036  0.81834  1.0000
  H   H1630     1.0  0.68734  0.44352  0.92586  1.0000
  C   C2063     1.0  0.56316  0.18120  0.86199  1.0000
  H   H1631     1.0  0.55004  0.26385  0.76732  1.0000
  C   C2064     1.0  0.55148  0.01226  0.75654  1.0000
  H   H1632     1.0  0.61591  0.21131  0.78060  1.0000
  H   H1633     1.0  0.72635  0.41118  0.76049  1.0000
  S   S300      1.0  0.48656  0.13366  0.75213  1.0000
  H   H1634     1.0  0.61878  0.12231  0.77411  1.0000
  H   H1635     1.0  0.58176  0.12671  0.79617  1.0000
  C   C2065     1.0  0.51419  0.37917  0.78192  1.0000
  H   H1636     1.0  0.56541  0.35258  0.93671  1.0000
  S   S301      1.0  0.54911  0.47399  0.82874  1.0000
  H   H1637     1.0  0.83984  0.42433  0.73677  1.0000
  C   C2066     1.0  0.47980  0.00716  0.80430  1.0000
  C   C2067     1.0  0.60641  0.19030  0.97789  1.0000
  P   P69       1.0  0.67248  0.46026  0.83790  1.0000
  C   C2068     1.0  0.95717  0.44150  0.78683  1.0000
  C   C2069     1.0  0.64611  0.42928  0.84250  1.0000
  C   C2070     1.0  0.64091  0.41015  0.85945  1.0000
  C   C2071     1.0  0.62130  0.38605  0.86228  1.0000
  C   C2072     1.0  0.60659  0.38060  0.84828  1.0000
  C   C2073     1.0  0.61169  0.39927  0.83128  1.0000
  C   C2074     1.0  0.63150  0.42332  0.82834  1.0000
  C   C2075     1.0  0.51189  0.37899  0.82118  1.0000
  H   H1638     1.0  0.52714  0.48043  0.74727  1.0000
  H   H1639     1.0  0.49073  0.26889  0.80789  1.0000
  C   C2076     1.0  0.48060  0.47461  0.84810  1.0000
  C   C2077     1.0  0.65178  0.46409  0.87998  1.0000
  C   C2078     1.0  0.70359  0.45408  0.83306  1.0000
  C   C2079     1.0  0.52417  0.47575  0.97904  1.0000
  C   C2080     1.0  0.90985  0.35517  0.83696  1.0000
  C   C2081     1.0  0.75158  0.44453  0.82413  1.0000
  C   C2082     1.0  0.72876  0.42361  0.83223  1.0000
  C   C2083     1.0  0.70489  0.42827  0.83665  1.0000
  C   C2084     1.0  0.58778  0.32848  0.92716  1.0000
  C   C2085     1.0  0.50573  0.39756  0.94747  1.0000
  H   H1640     1.0  0.50150  0.22864  0.80184  1.0000
  H   H1641     1.0  0.60047  0.38101  0.95928  1.0000
  H   H1642     1.0  0.65222  0.41313  0.87042  1.0000
  H   H1643     1.0  0.61736  0.37169  0.87555  1.0000
  H   H1644     1.0  0.59126  0.36192  0.85064  1.0000
  H   H1645     1.0  0.60031  0.39509  0.82038  1.0000
  H   H1646     1.0  0.63535  0.43715  0.81496  1.0000
  H   H1647     1.0  0.75473  0.41194  0.95121  1.0000
  C   C2086     1.0  0.54277  0.31113  0.94482  1.0000
  C   C2087     1.0  0.51156  0.34747  0.95469  1.0000
  H   H1648     1.0  0.64066  0.47239  0.91233  1.0000
  H   H1649     1.0  0.63749  0.44482  0.88263  1.0000
  C   C2088     1.0  0.56517  0.33268  0.93625  1.0000
  H   H1650     1.0  0.72961  0.40367  0.83509  1.0000
  H   H1651     1.0  0.68768  0.41146  0.84276  1.0000
  C   C2089     1.0  0.56569  0.99662  0.74956  1.0000
  C   C2090     1.0  0.97611  0.48717  0.85048  1.0000
  C   C2091     1.0  0.63856  0.29522  0.95754  1.0000
  H   H1652     1.0  0.94073  0.40323  0.78026  1.0000
  C   C2092     1.0  0.51268  0.03820  0.77775  1.0000
  H   H1653     1.0  0.59018  0.15667  0.74156  1.0000
  H   H1654     1.0  0.63844  0.35934  0.97677  1.0000
  C   C2093     1.0  0.58822  0.30290  0.92705  1.0000
  C   C2094     1.0  0.48713  0.02307  0.73497  1.0000
  C   C2095     1.0  0.61968  0.39440  0.95215  1.0000
  H   H1655     1.0  0.54028  0.47892  0.79022  1.0000
  C   C2096     1.0  0.49015  0.36431  0.81511  1.0000
  H   H1656     1.0  0.91056  0.33587  0.84293  1.0000
  C   C2097     1.0  0.53322  0.48058  0.94400  1.0000
  H   H1657     1.0  0.50360  0.30095  0.92280  1.0000
  H   H1658     1.0  0.53678  0.16969  0.84332  1.0000
  C   C2098     1.0  0.69218  0.25208  0.92236  1.0000
  Fe  Fe155     1.0  0.49794  0.19994  0.87927  1.0000
  C   C2099     1.0  0.94423  0.43431  0.75669  1.0000
  C   C2100     1.0  0.96531  0.46869  0.77962  1.0000
  H   H1659     1.0  0.63979  0.33529  0.94841  1.0000
  C   C2101     1.0  0.77654  0.33596  0.96035  1.0000
  H   H1660     1.0  0.85474  0.47847  0.86127  1.0000
  P   P70       1.0  0.96154  0.42807  0.81021  1.0000
  C   C2102     1.0  0.48615  0.29336  0.95331  1.0000
  H   H1661     1.0  0.51902  0.21462  0.94413  1.0000
  H   H1662     1.0  0.54633  0.06261  0.78620  1.0000
  H   H1663     1.0  0.69085  0.27137  0.97234  1.0000
  C   C2103     1.0  0.95242  0.46675  0.85452  1.0000
  C   C2104     1.0  0.76208  0.34270  0.97545  1.0000
  H   H1664     1.0  0.85166  0.45927  0.96856  1.0000
  H   H1665     1.0  0.48717  0.00861  0.83278  1.0000
  H   H1666     1.0  0.69258  0.24748  0.90814  1.0000
  H   H1667     1.0  0.51568  0.37955  0.76666  1.0000
  C   C2105     1.0  0.84195  0.46014  0.91602  1.0000
  C   C2106     1.0  0.69101  0.26544  0.95857  1.0000
  C   C2107     1.0  0.80537  0.38101  0.95072  1.0000
  H   H1668     1.0  0.48970  0.31388  0.80782  1.0000
  C   C2108     1.0  0.93305  0.37579  0.82866  1.0000
  H   H1669     1.0  0.62940  0.19986  0.84930  1.0000
  H   H1670     1.0  0.51767  0.08221  0.84026  1.0000
  H   H1671     1.0  0.95148  0.37204  0.82822  1.0000
  C   C2109     1.0  0.79826  0.35507  0.94805  1.0000
  C   C2110     1.0  0.71477  0.27236  0.94533  1.0000
  Fe  Fe156     1.0  0.60817  0.48185  0.87619  1.0000
  C   C2111     1.0  0.90780  0.40478  0.82135  1.0000
  C   C2112     1.0  0.58921  0.18972  0.86371  1.0000
  H   H1672     1.0  0.48868  0.11347  0.79293  1.0000
  C   C2113     1.0  0.60298  0.31194  0.96729  1.0000
  H   H1673     1.0  0.77083  0.31598  0.95812  1.0000
  H   H1674     1.0  0.88713  0.48662  0.94122  1.0000
  H   H1675     1.0  0.77967  0.47069  0.78082  1.0000
  H   H1676     1.0  0.49772  0.45471  0.96314  1.0000
  H   H1677     1.0  0.83901  0.46082  0.90137  1.0000
  S   S302      1.0  0.48456  0.16699  0.86383  1.0000
  H   H1678     1.0  0.48554  0.07655  0.81890  1.0000
  C   C2114     1.0  0.84887  0.45887  0.95400  1.0000
  C   C2115     1.0  0.55248  0.12805  0.75436  1.0000
  H   H1679     1.0  0.51688  0.09568  0.76525  1.0000
  H   H1680     1.0  0.56012  0.15664  0.95619  1.0000
  H   H1681     1.0  0.54453  0.14202  0.76019  1.0000
  H   H1682     1.0  0.79541  0.35075  0.77477  1.0000
  H   H1683     1.0  0.51032  0.43381  0.78777  1.0000
  C   C2116     1.0  0.66762  0.25169  0.95382  1.0000
  C   C2117     1.0  0.76662  0.48436  0.75555  1.0000
  C   C2118     1.0  0.60923  0.19286  0.84794  1.0000
  C   C2119     1.0  0.63655  0.40797  0.96282  1.0000
  H   H1684     1.0  0.86606  0.38763  0.83024  1.0000
  C   C2120     1.0  0.73448  0.43855  0.95898  1.0000
  C   C2121     1.0  0.66101  0.42570  0.95321  1.0000
  H   H1685     1.0  0.71824  0.46718  0.96889  1.0000
  C   C2122     1.0  0.58136  0.19792  0.94736  1.0000
  H   H1686     1.0  0.67416  0.43663  0.96107  1.0000
  C   C2123     1.0  0.49445  0.01672  0.81747  1.0000
  C   C2124     1.0  0.71537  0.26577  0.92720  1.0000
  C   C2125     1.0  0.50119  0.09502  0.81668  1.0000
  C   C2126     1.0  0.53679  0.10189  0.75696  1.0000
  H   H1687     1.0  0.52640  0.26862  0.95106  1.0000
  C   C2127     1.0  0.53479  0.39357  0.80767  1.0000
  C   C2128     1.0  0.49923  0.13073  0.96763  1.0000
  H   H1688     1.0  0.52979  0.04419  0.82105  1.0000
  P   P71       1.0  0.63700  0.24335  0.97096  1.0000
  C   C2129     1.0  0.49453  0.20212  0.82920  1.0000
  C   C2130     1.0  0.58781  0.28688  0.97773  1.0000
  H   H1689     1.0  0.88101  0.40942  0.75290  1.0000
  C   C2131     1.0  0.73634  0.45088  0.74411  1.0000
  S   S303      1.0  0.51222  0.19141  0.90649  1.0000
  H   H1690     1.0  0.82939  0.39411  0.76829  1.0000
  C   C2132     1.0  0.54646  0.08395  0.74848  1.0000
  H   H1691     1.0  0.49893  0.34698  0.86710  1.0000
  C   C2133     1.0  0.83444  0.46890  0.86121  1.0000
  C   C2134     1.0  0.96653  0.45167  0.82569  1.0000
  C   C2135     1.0  0.53600  0.39342  0.78809  1.0000
  C   C2136     1.0  0.48403  0.47280  0.86725  1.0000
  C   C2137     1.0  0.61297  0.21552  0.96628  1.0000
  H   H1692     1.0  0.56644  0.26166  0.93508  1.0000
  H   H1693     1.0  0.69474  0.46866  0.79636  1.0000
  C   C2138     1.0  0.52756  0.04737  0.79108  1.0000
  C   C2139     1.0  0.53941  0.12212  0.82555  1.0000
  C   C2140     1.0  0.57490  0.17294  0.95899  1.0000
  H   H1694     1.0  0.82258  0.39518  0.94122  1.0000
  C   C2141     1.0  0.76901  0.36864  0.97805  1.0000
  H   H1695     1.0  0.57145  0.20098  0.93566  1.0000
  H   H1696     1.0  0.73370  0.27201  0.91670  1.0000
  H   H1697     1.0  0.77695  0.48121  0.85928  1.0000
  H   H1698     1.0  0.54793  0.21965  0.96744  1.0000
  C   C2142     1.0  0.75055  0.47745  0.74244  1.0000
  C   C2143     1.0  0.56599  0.28145  0.93537  1.0000
  C   C2144     1.0  0.67238  0.47822  0.85737  1.0000
  H   H1699     1.0  0.65442  0.16200  0.75517  1.0000
  H   H1700     1.0  0.76990  0.44060  0.82064  1.0000
  H   H1701     1.0  0.60510  0.34491  0.92018  1.0000
  H   H1702     1.0  0.93743  0.46506  0.86690  1.0000
  C   C2145     1.0  0.75437  0.42712  0.95930  1.0000
  C   C2146     1.0  0.93215  0.40083  0.82096  1.0000
  C   C2147     1.0  0.62819  0.31601  0.95690  1.0000
  C   C2148     1.0  0.49434  0.20837  0.80946  1.0000
  H   H1703     1.0  0.60601  0.29963  0.92097  1.0000
  H   H1704     1.0  0.70992  0.38094  0.97188  1.0000
  C   C2149     1.0  0.95179  0.46142  0.74978  1.0000
  H   H1705     1.0  0.60470  0.23849  0.94193  1.0000
  H   H1706     1.0  0.65282  0.20643  0.75849  1.0000
  C   C2150     1.0  0.66840  0.24495  0.93563  1.0000
  C   C2151     1.0  0.77309  0.45585  0.97968  1.0000
  H   H1707     1.0  0.55164  0.40490  0.81239  1.0000
  C   C2152     1.0  0.59100  0.43054  0.97704  1.0000
  H   H1708     1.0  0.59388  0.19423  0.87722  1.0000
  H   H1709     1.0  0.69470  0.47194  0.74110  1.0000
  C   C2153     1.0  0.75312  0.46719  0.97940  1.0000
  C   C2154     1.0  0.58742  0.16911  0.97424  1.0000
  H   H1710     1.0  0.60806  0.44490  0.96738  1.0000
  H   H1711     1.0  0.77216  0.33683  0.74909  1.0000
  H   H1712     1.0  0.55349  0.12411  0.83476  1.0000
  C   C2155     1.0  0.48648  0.29042  0.93414  1.0000
  P   P72       1.0  0.51447  0.31498  0.95905  1.0000
  C   C2156     1.0  0.49098  0.36466  0.79535  1.0000
  C   C2157     1.0  0.51930  0.09821  0.82860  1.0000
  H   H1713     1.0  0.65075  0.23448  0.93152  1.0000
  Fe  Fe157     1.0  0.48792  0.21458  0.91848  1.0000
  P   P73       1.0  0.52594  0.05018  0.75213  1.0000
  C   C2158     1.0  0.50075  0.35732  0.96986  1.0000
  H   H1714     1.0  0.80353  0.43317  0.92842  1.0000
  H   H1715     1.0  0.48987  0.34340  0.74931  1.0000
  C   C2159     1.0  0.79032  0.38817  0.96546  1.0000
  H   H1716     1.0  0.55195  0.22756  0.75046  1.0000
  H   H1717     1.0  0.88120  0.48708  0.90752  1.0000
  C   C2160     1.0  0.77350  0.43529  0.96995  1.0000
  C   C2161     1.0  0.82184  0.44446  0.93144  1.0000
  C   C2162     1.0  0.79899  0.42876  0.86386  1.0000
  P   P74       1.0  0.79963  0.42116  0.96996  1.0000
  C   C2163     1.0  0.88471  0.38421  0.82975  1.0000
  H   H1718     1.0  0.73258  0.28368  0.94888  1.0000
  C   C2164     1.0  0.73377  0.45850  0.96907  1.0000
  H   H1719     1.0  0.76137  0.43336  0.86302  1.0000
  C   C2165     1.0  0.80013  0.36363  0.76067  1.0000
  H   H1720     1.0  0.76853  0.48645  0.81435  1.0000
  C   C2166     1.0  0.73744  0.43168  0.75911  1.0000
  H   H1721     1.0  0.92767  0.48574  0.79809  1.0000
  H   H1722     1.0  0.48373  0.38196  0.87706  1.0000
  C   C2167     1.0  0.65167  0.41620  0.92263  1.0000
  S   S304      1.0  0.69339  0.32513  0.97297  1.0000
  H   H1723     1.0  0.54764  0.17918  0.87411  1.0000
  C   C2168     1.0  0.50869  0.48422  0.74977  1.0000
  H   H1724     1.0  0.61393  0.38889  0.92375  1.0000
  C   C2169     1.0  0.50302  0.11583  0.80192  1.0000
  C   C2170     1.0  0.82531  0.44155  0.86326  1.0000
  H   H1725     1.0  0.79174  0.40757  0.86587  1.0000
  C   C2171     1.0  0.51656  0.46895  0.96215  1.0000
  H   H1726     1.0  0.58223  0.14976  0.98335  1.0000
  H   H1727     1.0  0.80936  0.34985  0.93624  1.0000
  H   H1728     1.0  0.86770  0.34352  0.84409  1.0000
  C   C2172     1.0  0.52714  0.21509  0.97246  1.0000
  H   H1729     1.0  0.49133  0.24630  0.74951  1.0000
  C   C2173     1.0  0.78187  0.44332  0.86214  1.0000
  C   C2174     1.0  0.48395  0.20702  0.96552  1.0000
  C   C2175     1.0  0.58818  0.11841  0.73574  1.0000
  H   H1730     1.0  0.50403  0.41715  0.94464  1.0000
  H   H1731     1.0  0.65822  0.29884  0.94970  1.0000
  H   H1732     1.0  0.90669  0.42395  0.81538  1.0000
  H   H1733     1.0  0.51116  0.37900  0.83636  1.0000
  C   C2176     1.0  0.94756  0.44911  0.84217  1.0000
  C   C2177     1.0  0.73333  0.48496  0.89965  1.0000
  C   C2178     1.0  0.56647  0.43335  0.97664  1.0000
  C   C2179     1.0  0.72680  0.47505  0.82506  1.0000
  S   S305      1.0  0.48589  0.19626  0.77466  1.0000
  C   C2180     1.0  0.57818  0.13631  0.74380  1.0000
  C   C2181     1.0  0.82496  0.40535  0.73918  1.0000
  C   C2182     1.0  0.59810  0.26611  0.97825  1.0000
  C   C2183     1.0  0.57233  0.09240  0.73787  1.0000
  H   H1734     1.0  0.48938  0.38978  0.97794  1.0000
  C   C2184     1.0  0.49152  0.43588  0.79309  1.0000
  C   C2185     1.0  0.49092  0.47684  0.73793  1.0000
  H   H1735     1.0  0.54389  0.34443  0.98365  1.0000
  H   H1736     1.0  0.84586  0.41428  0.98334  1.0000
  S   S306      1.0  0.89336  0.46508  0.73518  1.0000
  H   H1737     1.0  0.97469  0.48229  0.78784  1.0000
  C   C2186     1.0  0.69510  0.48373  0.88251  1.0000
  C   C2187     1.0  0.49068  0.26254  0.73892  1.0000
  C   C2188     1.0  0.89017  0.41279  0.73784  1.0000
  C   C2189     1.0  0.51906  0.30550  0.98307  1.0000
  C   C2190     1.0  0.66953  0.48113  0.81678  1.0000
  H   H1738     1.0  0.49045  0.42544  0.85711  1.0000
  C   C2191     1.0  0.48615  0.44217  0.81117  1.0000
  H   H1739     1.0  0.89325  0.37366  0.73963  1.0000
  C   C2192     1.0  0.50011  0.04758  0.73875  1.0000
  H   H1740     1.0  0.52742  0.28874  0.74154  1.0000
  Fe  Fe158     1.0  0.83643  0.48894  0.78368  1.0000
  C   C2193     1.0  0.51103  0.28643  0.73445  1.0000
  Fe  Fe159     1.0  0.54655  0.51816  0.21776  1.0000
  H   H1741     1.0  0.91719  0.64926  0.22523  1.0000
  S   S307      1.0  0.56242  0.55863  0.22380  1.0000
  C   C2194     1.0  0.53340  0.56830  0.08348  1.0000
  C   C2195     1.0  0.50252  0.54710  0.15099  1.0000
  H   H1742     1.0  0.66016  0.78605  0.20553  1.0000
  H   H1743     1.0  0.81334  0.52805  0.13822  1.0000
  C   C2196     1.0  0.83476  0.59650  0.20429  1.0000
  H   H1744     1.0  0.78914  0.54720  0.11663  1.0000
  H   H1745     1.0  0.52810  0.52645  0.08950  1.0000
  S   S308      1.0  0.53386  0.51540  0.18961  1.0000
  P   P75       1.0  0.67140  0.49949  0.21621  1.0000
  S   S309      1.0  0.83027  0.53293  0.17498  1.0000
  H   H1746     1.0  0.69136  0.55014  0.18786  1.0000
  C   C2197     1.0  0.75528  0.51241  0.12374  1.0000
  C   C2198     1.0  0.53366  0.82666  0.09683  1.0000
  H   H1747     1.0  0.88547  0.60126  0.18644  1.0000
  C   C2199     1.0  0.48413  0.80965  0.08785  1.0000
  H   H1748     1.0  0.75766  0.50422  0.17992  1.0000
  C   C2200     1.0  0.52570  0.84373  0.08431  1.0000
  C   C2201     1.0  0.71921  0.50155  0.19467  1.0000
  C   C2202     1.0  0.49186  0.53477  0.06750  1.0000
  H   H1749     1.0  0.94910  0.58633  0.10102  1.0000
  C   C2203     1.0  0.54690  0.59871  0.02962  1.0000
  C   C2204     1.0  0.97013  0.53221  0.13026  1.0000
  H   H1750     1.0  0.57432  0.57097  0.12345  1.0000
  H   H1751     1.0  0.51339  0.93046  0.22093  1.0000
  H   H1752     1.0  0.55268  0.83331  0.10044  1.0000
  C   C2205     1.0  0.56553  0.60369  0.01255  1.0000
  H   H1753     1.0  0.59134  0.58829  0.99527  1.0000
  C   C2206     1.0  0.55119  0.54627  0.10757  1.0000
  C   C2207     1.0  0.63850  0.52890  0.20888  1.0000
  C   C2208     1.0  0.48894  0.53051  0.14031  1.0000
  C   C2209     1.0  0.54628  0.59253  0.08772  1.0000
  C   C2210     1.0  0.53926  0.57432  0.04255  1.0000
  C   C2211     1.0  0.57010  0.56069  0.02165  1.0000
  H   H1754     1.0  0.49509  0.84879  0.07015  1.0000
  C   C2212     1.0  0.49235  0.79253  0.10029  1.0000
  C   C2213     1.0  0.69217  0.50604  0.14373  1.0000
  C   C2214     1.0  0.62544  0.54696  0.21241  1.0000
  H   H1755     1.0  0.57122  0.62239  0.00248  1.0000
  C   C2215     1.0  0.91806  0.57635  0.15844  1.0000
  C   C2216     1.0  0.90750  0.55866  0.17619  1.0000
  C   C2217     1.0  0.88058  0.54470  0.18124  1.0000
  C   C2218     1.0  0.86405  0.54963  0.16907  1.0000
  C   C2219     1.0  0.87462  0.56780  0.15155  1.0000
  C   C2220     1.0  0.90159  0.58075  0.14610  1.0000
  H   H1756     1.0  0.92013  0.55579  0.18590  1.0000
  H   H1757     1.0  0.87267  0.53024  0.19453  1.0000
  H   H1758     1.0  0.86200  0.57160  0.14203  1.0000
  H   H1759     1.0  0.90971  0.59452  0.13240  1.0000
  C   C2221     1.0  0.51702  0.80106  0.10478  1.0000
  H   H1760     1.0  0.54526  0.61071  0.07976  1.0000
  C   C2222     1.0  0.56306  0.57032  0.11224  1.0000
  H   H1761     1.0  0.80718  0.58978  0.18568  1.0000
  H   H1762     1.0  0.92880  0.51111  0.13891  1.0000
  H   H1763     1.0  0.53854  0.86363  0.07822  1.0000
  H   H1764     1.0  0.49799  0.51796  0.13342  1.0000
  C   C2223     1.0  0.78029  0.52732  0.12505  1.0000
  S   S310      1.0  0.95170  0.59316  0.15103  1.0000
  C   C2224     1.0  0.93608  0.54788  0.11961  1.0000
  C   C2225     1.0  0.57699  0.58460  0.00851  1.0000
  H   H1765     1.0  0.52196  0.54719  0.15253  1.0000
  C   C2226     1.0  0.89707  0.62461  0.20750  1.0000
  H   H1766     1.0  0.50099  0.57539  0.16884  1.0000
  H   H1767     1.0  0.67382  0.74689  0.21500  1.0000
  H   H1768     1.0  0.94992  0.53235  0.16828  1.0000
  C   C2227     1.0  0.91976  0.63427  0.17394  1.0000
  C   C2228     1.0  0.93895  0.65548  0.17723  1.0000
  H   H1769     1.0  0.49442  0.79992  0.01601  1.0000
  C   C2229     1.0  0.74287  0.51392  0.18140  1.0000
  H   H1770     1.0  0.49397  0.81210  0.04781  1.0000
  H   H1771     1.0  0.67622  0.53490  0.15375  1.0000
  C   C2230     1.0  0.50818  0.54368  0.98678  1.0000
  C   C2231     1.0  0.81184  0.58256  0.19916  1.0000
  C   C2232     1.0  0.70034  0.51440  0.19722  1.0000
  C   C2233     1.0  0.65490  0.52307  0.22097  1.0000
  C   C2234     1.0  0.72904  0.55186  0.17266  1.0000
  H   H1772     1.0  0.63097  0.51149  0.15136  1.0000
  H   H1773     1.0  0.57037  0.61216  0.10564  1.0000
  C   C2235     1.0  0.53658  0.54525  0.09316  1.0000
  H   H1774     1.0  0.49154  0.53065  0.20685  1.0000
  H   H1775     1.0  0.48786  0.63305  0.99294  1.0000
  S   S311      1.0  0.55682  0.50638  0.99833  1.0000
  H   H1776     1.0  0.73300  0.57146  0.16423  1.0000
  H   H1777     1.0  0.61237  0.55108  0.20331  1.0000
  C   C2236     1.0  0.52493  0.94793  0.22484  1.0000
  C   C2237     1.0  0.50046  0.56185  0.99611  1.0000
  H   H1778     1.0  0.57920  0.54598  0.01863  1.0000
  H   H1779     1.0  0.49719  0.59602  0.09294  1.0000
  H   H1780     1.0  0.63556  0.51933  0.19681  1.0000
  H   H1781     1.0  0.61832  0.57323  0.23070  1.0000
  H   H1782     1.0  0.92141  0.62950  0.15976  1.0000
  H   H1783     1.0  0.52317  0.78785  0.11452  1.0000
  H   H1784     1.0  0.84719  0.61482  0.19489  1.0000
  C   C2238     1.0  0.74785  0.53908  0.17044  1.0000
  C   C2239     1.0  0.48756  0.52329  0.05150  1.0000
  H   H1785     1.0  0.50996  0.56876  0.00736  1.0000
  C   C2240     1.0  0.49612  0.58952  0.06390  1.0000
  H   H1786     1.0  0.55345  0.52838  0.11504  1.0000
  C   C2241     1.0  0.94862  0.51340  0.17658  1.0000
  H   H1787     1.0  0.71158  0.51622  0.14535  1.0000
  H   H1788     1.0  0.77795  0.54781  0.20694  1.0000
  P   P76       1.0  0.51506  0.56713  0.06453  1.0000
  C   C2242     1.0  0.88145  0.55465  0.23094  1.0000
  H   H1789     1.0  0.74507  0.52082  0.11405  1.0000
  C   C2243     1.0  0.65897  0.75095  0.22483  1.0000
  C   C2244     1.0  0.84165  0.58646  0.22122  1.0000
  H   H1790     1.0  0.48659  0.73925  0.99550  1.0000
  C   C2245     1.0  0.64658  0.50341  0.14745  1.0000
  H   H1791     1.0  0.86866  0.54999  0.22103  1.0000
  C   C2246     1.0  0.49075  0.56306  0.16010  1.0000
  C   C2247     1.0  0.65131  0.77303  0.21951  1.0000
  S   S312      1.0  0.50782  0.97627  0.19743  1.0000
  H   H1792     1.0  0.86963  0.51140  0.14877  1.0000
  C   C2248     1.0  0.50105  0.83528  0.07980  1.0000
  C   C2249     1.0  0.95495  0.57102  0.10882  1.0000
  C   C2250     1.0  0.89920  0.61854  0.18907  1.0000
  C   C2251     1.0  0.91700  0.64545  0.21083  1.0000
  C   C2252     1.0  0.93756  0.66106  0.19566  1.0000
  H   H1793     1.0  0.95294  0.67700  0.19828  1.0000
  C   C2253     1.0  0.80142  0.54950  0.22848  1.0000
  C   C2254     1.0  0.49031  0.60054  0.07988  1.0000
  C   C2255     1.0  0.56075  0.59347  0.10224  1.0000
  H   H1794     1.0  0.53865  0.61392  0.03267  1.0000
  H   H1795     1.0  0.91557  0.54526  0.12012  1.0000
  C   C2256     1.0  0.79402  0.51650  0.13709  1.0000
  C   C2257     1.0  0.94362  0.52867  0.13036  1.0000
  H   H1796     1.0  0.54617  0.53683  0.04861  1.0000
  H   H1797     1.0  0.76645  0.54873  0.16042  1.0000
  H   H1798     1.0  0.88891  0.51757  0.23358  1.0000
  C   C2258     1.0  0.79532  0.55894  0.21115  1.0000
  H   H1799     1.0  0.95537  0.66706  0.16565  1.0000
  H   H1800     1.0  0.49343  0.72412  0.05463  1.0000
  C   C2259     1.0  0.52531  0.97275  0.21571  1.0000
  H   H1801     1.0  0.87353  0.65761  0.22771  1.0000
  Fe  Fe160     1.0  0.97613  0.59594  0.17357  1.0000
  S   S313      1.0  0.96239  0.60121  0.20339  1.0000
  H   H1802     1.0  0.51006  0.75080  0.02125  1.0000
  H   H1803     1.0  0.49857  0.53321  0.03711  1.0000
  C   C2260     1.0  0.62869  0.55939  0.22795  1.0000
  C   C2261     1.0  0.63235  0.77840  0.23228  1.0000
  C   C2262     1.0  0.70537  0.53963  0.18604  1.0000
  C   C2263     1.0  0.55135  0.55555  0.03861  1.0000
  H   H1804     1.0  0.92557  0.51848  0.20223  1.0000
  C   C2264     1.0  0.67209  0.51657  0.14876  1.0000
  H   H1805     1.0  0.48326  0.57271  0.20910  1.0000
  C   C2265     1.0  0.93483  0.50573  0.19580  1.0000
  H   H1806     1.0  0.62653  0.79561  0.22822  1.0000
  C   C2266     1.0  0.49254  0.73391  0.02450  1.0000
  C   C2267     1.0  0.97579  0.69177  0.22985  1.0000
  P   P77       1.0  0.87211  0.60282  0.22750  1.0000
  H   H1807     1.0  0.52367  0.53661  0.99077  1.0000
  H   H1808     1.0  0.71546  0.52341  0.23297  1.0000
  H   H1809     1.0  0.89494  0.49762  0.17182  1.0000
  C   C2268     1.0  0.96099  0.49694  0.16846  1.0000
  C   C2269     1.0  0.48508  0.59424  0.04782  1.0000
  Fe  Fe161     1.0  0.81791  0.49752  0.19921  1.0000
  H   H1810     1.0  0.48807  0.58482  0.03577  1.0000
  C   C2270     1.0  0.48326  0.71885  0.04328  1.0000
  S   S314      1.0  0.83414  0.49334  0.22593  1.0000
  C   C2271     1.0  0.82437  0.56329  0.23356  1.0000
  C   C2272     1.0  0.48063  0.57112  0.99084  1.0000
  C   C2273     1.0  0.86929  0.49112  0.15187  1.0000
  H   H1811     1.0  0.47972  0.77268  0.10668  1.0000
  C   C2274     1.0  0.78290  0.49067  0.14762  1.0000
  S   S315      1.0  0.56593  0.48957  0.05090  1.0000
  C   C2275     1.0  0.59143  0.49086  0.30180  1.0000
  H   H1812     1.0  0.82796  0.50954  0.26883  1.0000
  Fe  Fe162     1.0  0.90457  0.79120  0.41059  1.0000
  S   S316      1.0  0.91347  0.75314  0.41387  1.0000
  S   S317      1.0  0.86335  0.79107  0.42093  1.0000
  Fe  Fe163     1.0  0.94613  0.77338  0.42712  1.0000
  Fe  Fe164     1.0  0.94196  0.77147  0.38567  1.0000
  S   S318      1.0  0.94425  0.75007  0.36085  1.0000
  S   S319      1.0  0.93483  0.80995  0.42628  1.0000
  S   S320      1.0  0.93090  0.80861  0.38140  1.0000
  Fe  Fe165     1.0  0.69335  0.74582  0.37390  1.0000
  S   S321      1.0  0.71829  0.78596  0.35690  1.0000
  S   S322      1.0  0.67591  0.71370  0.35830  1.0000
  Fe  Fe166     1.0  0.70717  0.75889  0.41188  1.0000
  S   S323      1.0  0.73343  0.79972  0.39782  1.0000
  S   S324      1.0  0.70113  0.74249  0.44375  1.0000
  Fe  Fe167     1.0  0.70150  0.80086  0.38186  1.0000
  S   S325      1.0  0.68674  0.83569  0.37963  1.0000
  Fe  Fe168     1.0  0.74782  0.78094  0.37449  1.0000
  S   S326      1.0  0.79028  0.79086  0.36050  1.0000
  S   S327      1.0  0.67389  0.76106  0.39756  1.0000
  S   S328      1.0  0.72425  0.73980  0.38978  1.0000
  Fe  Fe169     1.0  0.50676  0.63038  0.30809  1.0000
  S   S329      1.0  0.49560  0.63573  0.33829  1.0000
  Fe  Fe170     1.0  0.54097  0.59809  0.31921  1.0000
  S   S330      1.0  0.53307  0.60113  0.35038  1.0000
  S   S331      1.0  0.56591  0.57401  0.30919  1.0000
  Fe  Fe171     1.0  0.49152  0.59291  0.34708  1.0000
  C   C2276     1.0  0.49401  0.95119  0.41198  1.0000
  Fe  Fe172     1.0  0.53813  0.64350  0.33904  1.0000
  S   S332      1.0  0.55604  0.67661  0.35369  1.0000
  S   S333      1.0  0.49897  0.58685  0.31673  1.0000
  S   S334      1.0  0.54974  0.64130  0.30800  1.0000
  Fe  Fe173     1.0  0.91814  0.57720  0.32059  1.0000
  S   S335      1.0  0.89633  0.58457  0.29729  1.0000
  S   S336      1.0  0.94817  0.55617  0.31637  1.0000
  Fe  Fe174     1.0  0.89648  0.61043  0.34518  1.0000
  S   S337      1.0  0.87267  0.61996  0.32422  1.0000
  S   S338      1.0  0.89528  0.62629  0.37258  1.0000
  Fe  Fe175     1.0  0.86285  0.57757  0.32192  1.0000
  S   S339      1.0  0.82052  0.55622  0.32304  1.0000
  Fe  Fe176     1.0  0.90805  0.62617  0.30144  1.0000
  S   S340      1.0  0.92062  0.66332  0.27881  1.0000
  S   S341      1.0  0.88363  0.56709  0.34518  1.0000
  S   S342      1.0  0.93286  0.61984  0.32251  1.0000
  P   P78       1.0  0.69236  0.92900  0.32092  1.0000
  H   H1813     1.0  0.90346  0.51430  0.34130  1.0000
  C   C2277     1.0  0.72723  0.88382  0.29268  1.0000
  H   H1814     1.0  0.84878  0.51534  0.33724  1.0000
  C   C2278     1.0  0.55673  0.90474  0.29774  1.0000
  C   C2279     1.0  0.61407  0.95923  0.41153  1.0000
  H   H1815     1.0  0.91852  0.52792  0.25631  1.0000
  C   C2280     1.0  0.48133  0.92471  0.29219  1.0000
  C   C2281     1.0  0.94018  0.52160  0.32184  1.0000
  H   H1816     1.0  0.54388  0.59206  0.24585  1.0000
  C   C2282     1.0  0.84625  0.97825  0.39600  1.0000
  C   C2283     1.0  0.91601  0.56676  0.25556  1.0000
  H   H1817     1.0  0.51890  0.56324  0.41703  1.0000
  H   H1818     1.0  0.71966  0.92049  0.28547  1.0000
  H   H1819     1.0  0.58688  0.55303  0.34332  1.0000
  C   C2284     1.0  0.94525  0.66557  0.25923  1.0000
  C   C2285     1.0  0.95315  0.64384  0.25637  1.0000
  C   C2286     1.0  0.58863  0.91312  0.43936  1.0000
  H   H1820     1.0  0.64682  0.56295  0.25239  1.0000
  H   H1821     1.0  0.94449  0.62536  0.26667  1.0000
  H   H1822     1.0  0.80822  0.78046  0.42561  1.0000
  C   C2287     1.0  0.81520  0.51392  0.28007  1.0000
  C   C2288     1.0  0.82590  0.53046  0.29227  1.0000
  C   C2289     1.0  0.80928  0.53600  0.30696  1.0000
  C   C2290     1.0  0.78225  0.52484  0.30945  1.0000
  C   C2291     1.0  0.62190  0.63692  0.39656  1.0000
  H   H1823     1.0  0.84687  0.53870  0.29040  1.0000
  C   C2292     1.0  0.62093  0.76162  0.25033  1.0000
  C   C2293     1.0  0.71519  0.49472  0.25714  1.0000
  C   C2294     1.0  0.67026  0.93396  0.30546  1.0000
  H   H1824     1.0  0.97578  0.52240  0.30359  1.0000
  H   H1825     1.0  0.90940  0.60419  0.25245  1.0000
  C   C2295     1.0  0.90973  0.54212  0.25065  1.0000
  H   H1826     1.0  0.73260  0.84703  0.30418  1.0000
  C   C2296     1.0  0.65827  0.91402  0.29626  1.0000
  C   C2297     1.0  0.55233  0.58347  0.27408  1.0000
  C   C2298     1.0  0.56327  0.56858  0.28589  1.0000
  C   C2299     1.0  0.57291  0.54971  0.27885  1.0000
  C   C2300     1.0  0.57109  0.54530  0.26022  1.0000
  H   H1827     1.0  0.54506  0.59827  0.27931  1.0000
  H   H1828     1.0  0.58163  0.53842  0.28787  1.0000
  H   H1829     1.0  0.57845  0.53064  0.25489  1.0000
  C   C2301     1.0  0.64252  0.70371  0.35713  1.0000
  C   C2302     1.0  0.62529  0.71558  0.36554  1.0000
  C   C2303     1.0  0.59881  0.70706  0.36437  1.0000
  C   C2304     1.0  0.58940  0.68668  0.35480  1.0000
  C   C2305     1.0  0.60660  0.67484  0.34637  1.0000
  C   C2306     1.0  0.63308  0.68331  0.34754  1.0000
  H   H1830     1.0  0.63235  0.73130  0.37294  1.0000
  H   H1831     1.0  0.58556  0.71630  0.37093  1.0000
  H   H1832     1.0  0.59942  0.65913  0.33899  1.0000
  H   H1833     1.0  0.64632  0.67407  0.34100  1.0000
  C   C2307     1.0  0.75046  0.91424  0.37340  1.0000
  C   C2308     1.0  0.75711  0.89270  0.36826  1.0000
  C   C2309     1.0  0.73772  0.86836  0.37044  1.0000
  C   C2310     1.0  0.71148  0.86573  0.37716  1.0000
  C   C2311     1.0  0.70469  0.88757  0.38139  1.0000
  C   C2312     1.0  0.72413  0.91172  0.37957  1.0000
  H   H1834     1.0  0.77725  0.89475  0.36261  1.0000
  H   H1835     1.0  0.74306  0.85173  0.36670  1.0000
  H   H1836     1.0  0.68439  0.88572  0.38624  1.0000
  H   H1837     1.0  0.71864  0.92842  0.38267  1.0000
  C   C2313     1.0  0.92750  0.71603  0.36433  1.0000
  C   C2314     1.0  0.92735  0.70409  0.34829  1.0000
  C   C2315     1.0  0.91737  0.67662  0.35067  1.0000
  C   C2316     1.0  0.90675  0.66088  0.36915  1.0000
  C   C2317     1.0  0.90573  0.67283  0.38517  1.0000
  C   C2318     1.0  0.91602  0.70033  0.38278  1.0000
  H   H1838     1.0  0.93539  0.71609  0.33397  1.0000
  H   H1839     1.0  0.91811  0.66762  0.33821  1.0000
  H   H1840     1.0  0.89743  0.66076  0.39950  1.0000
  H   H1841     1.0  0.91578  0.70923  0.39526  1.0000
  C   C2319     1.0  0.84329  0.78993  0.40389  1.0000
  C   C2320     1.0  0.85368  0.79459  0.38410  1.0000
  C   C2321     1.0  0.83723  0.79433  0.37083  1.0000
  C   C2322     1.0  0.81040  0.78955  0.37731  1.0000
  C   C2323     1.0  0.79996  0.78433  0.39712  1.0000
  C   C2324     1.0  0.81639  0.78454  0.41034  1.0000
  H   H1842     1.0  0.87439  0.79857  0.37899  1.0000
  H   H1843     1.0  0.84537  0.79817  0.35552  1.0000
  H   H1844     1.0  0.77926  0.78031  0.40227  1.0000
  H   H1845     1.0  0.76932  0.52885  0.32079  1.0000
  C   C2325     1.0  0.64119  0.66039  0.39640  1.0000
  C   C2326     1.0  0.63483  0.67919  0.40578  1.0000
  C   C2327     1.0  0.60921  0.67434  0.41562  1.0000
  C   C2328     1.0  0.58989  0.65076  0.41596  1.0000
  H   H1846     1.0  0.64975  0.69766  0.40516  1.0000
  H   H1847     1.0  0.60435  0.68901  0.42282  1.0000
  H   H1848     1.0  0.57018  0.64720  0.42380  1.0000
  H   H1849     1.0  0.63911  0.64458  0.44029  1.0000
  C   C2329     1.0  0.66440  0.93400  0.37637  1.0000
  H   H1850     1.0  0.97519  0.57392  0.27725  1.0000
  H   H1851     1.0  0.80167  0.89942  0.38623  1.0000
  H   H1852     1.0  0.95071  0.70641  0.24829  1.0000
  H   H1853     1.0  0.86396  0.67985  0.25425  1.0000
  H   H1854     1.0  0.89025  0.79061  0.46152  1.0000
  C   C2330     1.0  0.89288  0.53624  0.23803  1.0000
  C   C2331     1.0  0.83241  0.79763  0.46668  1.0000
  C   C2332     1.0  0.57605  0.54668  0.37437  1.0000
  H   H1855     1.0  0.66213  0.89542  0.29819  1.0000
  H   H1856     1.0  0.49827  0.52920  0.26300  1.0000
  C   C2333     1.0  0.64321  0.91089  0.38286  1.0000
  H   H1857     1.0  0.59774  0.60132  0.33840  1.0000
  C   C2334     1.0  0.52288  0.91777  0.40360  1.0000
  H   H1858     1.0  0.71007  0.84461  0.33754  1.0000
  H   H1859     1.0  0.53961  0.85822  0.33918  1.0000
  C   C2335     1.0  0.48964  0.51120  0.27394  1.0000
  C   C2336     1.0  0.55920  0.88629  0.31259  1.0000
  C   C2337     1.0  0.70414  0.90239  0.31569  1.0000
  H   H1860     1.0  0.73517  0.94000  0.34102  1.0000
  S   S343      1.0  0.50918  0.48941  0.23551  1.0000
  H   H1861     1.0  0.57325  0.71663  0.25637  1.0000
  C   C2338     1.0  0.80105  0.85595  0.47809  1.0000
  C   C2339     1.0  0.84743  0.61750  0.28031  1.0000
  C   C2340     1.0  0.80888  0.61008  0.34854  1.0000
  C   C2341     1.0  0.81763  0.60059  0.36458  1.0000
  C   C2342     1.0  0.82703  0.61735  0.37668  1.0000
  C   C2343     1.0  0.82760  0.64360  0.37282  1.0000
  C   C2344     1.0  0.81869  0.65326  0.35676  1.0000
  C   C2345     1.0  0.80977  0.63639  0.34447  1.0000
  P   P79       1.0  0.82316  0.68795  0.34974  1.0000
  C   C2346     1.0  0.79319  0.69485  0.34726  1.0000
  C   C2347     1.0  0.83499  0.70503  0.36792  1.0000
  C   C2348     1.0  0.81716  0.70482  0.38440  1.0000
  C   C2349     1.0  0.82575  0.71869  0.39832  1.0000
  C   C2350     1.0  0.85221  0.73250  0.39603  1.0000
  C   C2351     1.0  0.87002  0.73294  0.37966  1.0000
  C   C2352     1.0  0.86155  0.71919  0.36566  1.0000
  C   C2353     1.0  0.76966  0.67455  0.34906  1.0000
  C   C2354     1.0  0.74646  0.68040  0.34824  1.0000
  C   C2355     1.0  0.74649  0.70645  0.34586  1.0000
  C   C2356     1.0  0.76971  0.72670  0.34430  1.0000
  C   C2357     1.0  0.79294  0.72098  0.34507  1.0000
  C   C2358     1.0  0.84734  0.69891  0.32741  1.0000
  C   C2359     1.0  0.84459  0.71566  0.31147  1.0000
  C   C2360     1.0  0.86317  0.72288  0.29410  1.0000
  C   C2361     1.0  0.88455  0.71347  0.29259  1.0000
  C   C2362     1.0  0.88745  0.69698  0.30846  1.0000
  C   C2363     1.0  0.86887  0.68958  0.32573  1.0000
  H   H1862     1.0  0.80244  0.59724  0.33882  1.0000
  H   H1863     1.0  0.81798  0.58049  0.36722  1.0000
  H   H1864     1.0  0.83494  0.61030  0.38861  1.0000
  H   H1865     1.0  0.83604  0.65643  0.38194  1.0000
  H   H1866     1.0  0.80425  0.64379  0.33140  1.0000
  H   H1867     1.0  0.79653  0.69436  0.38634  1.0000
  H   H1868     1.0  0.81187  0.71925  0.41069  1.0000
  H   H1869     1.0  0.85886  0.74335  0.40675  1.0000
  H   H1870     1.0  0.89042  0.74427  0.37770  1.0000
  H   H1871     1.0  0.87584  0.71999  0.35312  1.0000
  H   H1872     1.0  0.76888  0.65418  0.35153  1.0000
  H   H1873     1.0  0.72830  0.66473  0.34976  1.0000
  H   H1874     1.0  0.72845  0.71097  0.34555  1.0000
  H   H1875     1.0  0.76963  0.74687  0.34288  1.0000
  H   H1876     1.0  0.81060  0.73697  0.34438  1.0000
  H   H1877     1.0  0.82815  0.72304  0.31229  1.0000
  H   H1878     1.0  0.86101  0.73578  0.28182  1.0000
  H   H1879     1.0  0.89890  0.71881  0.27916  1.0000
  H   H1880     1.0  0.90404  0.68973  0.30739  1.0000
  H   H1881     1.0  0.87133  0.67650  0.33780  1.0000
  C   C2364     1.0  0.97608  0.69983  0.30078  1.0000
  H   H1882     1.0  0.60201  0.93066  0.32273  1.0000
  H   H1883     1.0  0.49734  0.86655  0.33961  1.0000
  C   C2365     1.0  0.53289  0.90952  0.29792  1.0000
  C   C2366     1.0  0.64476  0.55356  0.24015  1.0000
  C   C2367     1.0  0.64003  0.65162  0.45361  1.0000
  C   C2368     1.0  0.96751  0.63328  0.36475  1.0000
  H   H1884     1.0  0.70928  0.79851  0.43582  1.0000
  H   H1885     1.0  0.57318  0.91537  0.28592  1.0000
  C   C2369     1.0  0.96212  0.59145  0.35507  1.0000
  C   C2370     1.0  0.51136  0.89605  0.31311  1.0000
  H   H1886     1.0  0.63484  0.94663  0.34210  1.0000
  C   C2371     1.0  0.82244  0.77114  0.47631  1.0000
  C   C2372     1.0  0.51030  0.53085  0.34873  1.0000
  Fe  Fe177     1.0  0.96243  0.82440  0.39743  1.0000
  H   H1887     1.0  0.93091  0.82035  0.46711  1.0000
  C   C2373     1.0  0.57269  0.55847  0.39024  1.0000
  C   C2374     1.0  0.71184  0.86100  0.32609  1.0000
  H   H1888     1.0  0.93001  0.57157  0.26469  1.0000
  C   C2375     1.0  0.85140  0.64454  0.27631  1.0000
  H   H1889     1.0  0.69544  0.95786  0.35297  1.0000
  H   H1890     1.0  0.66104  0.66443  0.38857  1.0000
  P   P80       1.0  0.48007  0.90096  0.31318  1.0000
  C   C2376     1.0  0.81441  0.88913  0.44846  1.0000
  H   H1891     1.0  0.65469  0.88902  0.44591  1.0000
  C   C2377     1.0  0.96482  0.77748  0.46801  1.0000
  H   H1892     1.0  0.95995  0.64470  0.37391  1.0000
  P   P81       1.0  0.80881  0.90203  0.42539  1.0000
  C   C2378     1.0  0.82215  0.88677  0.40731  1.0000
  C   C2379     1.0  0.81454  0.88821  0.38946  1.0000
  C   C2380     1.0  0.97215  0.49989  0.26032  1.0000
  C   C2381     1.0  0.90448  0.58514  0.24856  1.0000
  C   C2382     1.0  0.84720  0.85857  0.39770  1.0000
  C   C2383     1.0  0.83882  0.87205  0.41124  1.0000
  C   C2384     1.0  0.77406  0.89459  0.42679  1.0000
  C   C2385     1.0  0.75996  0.87216  0.42084  1.0000
  C   C2386     1.0  0.73356  0.86749  0.42052  1.0000
  C   C2387     1.0  0.72084  0.88467  0.42666  1.0000
  C   C2388     1.0  0.73427  0.90612  0.43369  1.0000
  C   C2389     1.0  0.76083  0.91121  0.43364  1.0000
  P   P82       1.0  0.57136  0.60115  0.40738  1.0000
  S   S344      1.0  0.77522  0.94417  0.37176  1.0000
  C   C2390     1.0  0.83479  0.97934  0.42980  1.0000
  H   H1893     1.0  0.85362  0.91638  0.44366  1.0000
  H   H1894     1.0  0.62731  0.62267  0.38918  1.0000
  H   H1895     1.0  0.95086  0.57096  0.35654  1.0000
  H   H1896     1.0  0.84513  0.87048  0.42480  1.0000
  H   H1897     1.0  0.55495  0.91130  0.42726  1.0000
  H   H1898     1.0  0.76929  0.85840  0.41614  1.0000
  H   H1899     1.0  0.72302  0.85065  0.41528  1.0000
  H   H1900     1.0  0.70070  0.88149  0.42567  1.0000
  H   H1901     1.0  0.72431  0.91919  0.43884  1.0000
  H   H1902     1.0  0.53375  0.90474  0.39986  1.0000
  C   C2391     1.0  0.56999  0.93326  0.34315  1.0000
  C   C2392     1.0  0.59599  0.93501  0.33664  1.0000
  C   C2393     1.0  0.61447  0.94390  0.34756  1.0000
  C   C2394     1.0  0.60687  0.95020  0.36527  1.0000
  C   C2395     1.0  0.58065  0.94783  0.37220  1.0000
  H   H1903     1.0  0.84513  0.84876  0.36986  1.0000
  C   C2396     1.0  0.66379  0.95731  0.30330  1.0000
  C   C2397     1.0  0.57517  0.92228  0.42620  1.0000
  H   H1904     1.0  0.83988  0.60626  0.29498  1.0000
  C   C2398     1.0  0.72147  0.95707  0.31707  1.0000
  H   H1905     1.0  0.87698  0.69086  0.44041  1.0000
  H   H1906     1.0  0.50706  0.95740  0.30094  1.0000
  C   C2399     1.0  0.57006  0.55306  0.46653  1.0000
  H   H1907     1.0  0.60041  0.68398  0.25165  1.0000
  H   H1908     1.0  0.82187  0.73004  0.45703  1.0000
  C   C2400     1.0  0.53991  0.60463  0.40569  1.0000
  H   H1909     1.0  0.50718  0.54970  0.34630  1.0000
  C   C2401     1.0  0.51338  0.49191  0.33712  1.0000
  C   C2402     1.0  0.70173  0.88092  0.33030  1.0000
  H   H1910     1.0  0.76050  0.75782  0.46836  1.0000
  C   C2403     1.0  0.70527  0.50386  0.24164  1.0000
  H   H1911     1.0  0.57768  0.88258  0.31235  1.0000
  H   H1912     1.0  0.60502  0.57195  0.42027  1.0000
  C   C2404     1.0  0.95807  0.51009  0.31368  1.0000
  H   H1913     1.0  0.55595  0.92801  0.33414  1.0000
  C   C2405     1.0  0.57905  0.58595  0.38753  1.0000
  C   C2406     1.0  0.56238  0.93990  0.36073  1.0000
  H   H1914     1.0  0.66712  0.90935  0.47296  1.0000
  C   C2407     1.0  0.55162  0.57991  0.25514  1.0000
  C   C2408     1.0  0.66009  0.87798  0.45759  1.0000
  C   C2409     1.0  0.91501  0.80946  0.47923  1.0000
  H   H1915     1.0  0.81426  0.94215  0.44903  1.0000
  H   H1916     1.0  0.86240  0.89706  0.47445  1.0000
  H   H1917     1.0  0.66918  0.94768  0.38582  1.0000
  C   C2410     1.0  0.82362  0.93745  0.41953  1.0000
  C   C2411     1.0  0.82281  0.87457  0.37600  1.0000
  C   C2412     1.0  0.51045  0.51694  0.33387  1.0000
  H   H1918     1.0  0.65394  0.71727  0.24687  1.0000
  C   C2413     1.0  0.58963  0.56985  0.43251  1.0000
  H   H1919     1.0  0.52575  0.70818  0.26581  1.0000
  C   C2414     1.0  0.66825  0.83847  0.47172  1.0000
  C   C2415     1.0  0.71715  0.90381  0.29686  1.0000
  H   H1920     1.0  0.77505  0.97768  0.33649  1.0000
  H   H1921     1.0  0.73287  0.50704  0.26034  1.0000
  C   C2416     1.0  0.63923  0.76133  0.31843  1.0000
  C   C2417     1.0  0.66238  0.75611  0.32039  1.0000
  C   C2418     1.0  0.67109  0.73984  0.30950  1.0000
  C   C2419     1.0  0.65644  0.72840  0.29687  1.0000
  C   C2420     1.0  0.63250  0.73253  0.29549  1.0000
  C   C2421     1.0  0.62454  0.74995  0.30580  1.0000
  P   P83       1.0  0.61377  0.71788  0.27901  1.0000
  C   C2422     1.0  0.62817  0.73914  0.25560  1.0000
  C   C2423     1.0  0.61396  0.68475  0.27846  1.0000
  C   C2424     1.0  0.61974  0.66962  0.29384  1.0000
  C   C2425     1.0  0.61872  0.64363  0.29358  1.0000
  C   C2426     1.0  0.61150  0.63241  0.27816  1.0000
  C   C2427     1.0  0.60500  0.64706  0.26306  1.0000
  C   C2428     1.0  0.60616  0.67313  0.26321  1.0000
  C   C2429     1.0  0.86372  0.61931  0.24643  1.0000
  C   C2430     1.0  0.62749  0.95000  0.42462  1.0000
  C   C2431     1.0  0.85366  0.60494  0.26547  1.0000
  H   H1922     1.0  0.78864  0.53124  0.23786  1.0000
  C   C2432     1.0  0.91732  0.50559  0.33491  1.0000
  C   C2433     1.0  0.57956  0.71452  0.28561  1.0000
  C   C2434     1.0  0.56718  0.70948  0.30509  1.0000
  C   C2435     1.0  0.54029  0.70501  0.31030  1.0000
  C   C2436     1.0  0.52546  0.70494  0.29610  1.0000
  C   C2437     1.0  0.53756  0.70955  0.27667  1.0000
  C   C2438     1.0  0.56448  0.71420  0.27142  1.0000
  H   H1923     1.0  0.63248  0.77387  0.32697  1.0000
  H   H1924     1.0  0.67339  0.76428  0.33060  1.0000
  H   H1925     1.0  0.68892  0.73562  0.31126  1.0000
  H   H1926     1.0  0.66362  0.71599  0.28845  1.0000
  H   H1927     1.0  0.60686  0.75456  0.30432  1.0000
  H   H1928     1.0  0.62440  0.67758  0.30625  1.0000
  H   H1929     1.0  0.62280  0.63187  0.30559  1.0000
  H   H1930     1.0  0.61017  0.61209  0.27819  1.0000
  H   H1931     1.0  0.48277  0.96428  0.41474  1.0000
  H   H1932     1.0  0.96198  0.71283  0.39728  1.0000
  H   H1933     1.0  0.48563  0.97636  0.24672  1.0000
  C   C2439     1.0  0.49560  0.90786  0.40887  1.0000
  H   H1934     1.0  0.83473  0.94041  0.38867  1.0000
  C   C2440     1.0  0.97895  0.70700  0.39266  1.0000
  H   H1935     1.0  0.60645  0.76615  0.26017  1.0000
  H   H1936     1.0  0.57811  0.70814  0.31634  1.0000
  H   H1937     1.0  0.53081  0.70058  0.32541  1.0000
  H   H1938     1.0  0.50443  0.70021  0.30016  1.0000
  C   C2441     1.0  0.97709  0.51614  0.24215  1.0000
  H   H1939     1.0  0.62171  0.95755  0.37319  1.0000
  H   H1940     1.0  0.93558  0.59789  0.37798  1.0000
  P   P84       1.0  0.57120  0.95756  0.39456  1.0000
  H   H1941     1.0  0.62071  0.87532  0.37566  1.0000
  H   H1942     1.0  0.72178  0.83224  0.45533  1.0000
  C   C2442     1.0  0.58833  0.60133  0.36876  1.0000
  H   H1943     1.0  0.60151  0.62624  0.46819  1.0000
  C   C2443     1.0  0.89195  0.79268  0.47613  1.0000
  H   H1944     1.0  0.82445  0.82985  0.45011  1.0000
  C   C2444     1.0  0.84742  0.70889  0.44779  1.0000
  C   C2445     1.0  0.83910  0.72496  0.45914  1.0000
  C   C2446     1.0  0.48116  0.92457  0.41305  1.0000
  C   C2447     1.0  0.66355  0.68035  0.47216  1.0000
  H   H1945     1.0  0.79978  0.98895  0.48088  1.0000
  C   C2448     1.0  0.79035  0.79549  0.45886  1.0000
  H   H1946     1.0  0.64929  0.76968  0.47248  1.0000
  C   C2449     1.0  0.83397  0.49704  0.33740  1.0000
  C   C2450     1.0  0.67946  0.93961  0.35767  1.0000
  H   H1947     1.0  0.65534  0.84365  0.44496  1.0000
  C   C2451     1.0  0.50308  0.50525  0.28813  1.0000
  C   C2452     1.0  0.86653  0.64625  0.24235  1.0000
  H   H1948     1.0  0.83652  0.70163  0.43729  1.0000
  C   C2453     1.0  0.52130  0.96111  0.40687  1.0000
  C   C2454     1.0  0.54006  0.94576  0.23878  1.0000
  H   H1949     1.0  0.77801  0.80475  0.45193  1.0000
  H   H1950     1.0  0.80318  0.50693  0.35401  1.0000
  C   C2455     1.0  0.58947  0.55552  0.45051  1.0000
  H   H1951     1.0  0.64700  0.88510  0.34256  1.0000
  H   H1952     1.0  0.53135  0.92349  0.28604  1.0000
  C   C2456     1.0  0.83907  0.85968  0.38015  1.0000
  C   C2457     1.0  0.59153  0.58947  0.35293  1.0000
  C   C2458     1.0  0.59599  0.63212  0.40608  1.0000
  C   C2459     1.0  0.76181  0.97803  0.32674  1.0000
  H   H1953     1.0  0.63161  0.90664  0.39736  1.0000
  H   H1954     1.0  0.90275  0.70852  0.46375  1.0000
  C   C2460     1.0  0.71907  0.81188  0.46127  1.0000
  H   H1955     1.0  0.52196  0.51880  0.28801  1.0000
  C   C2461     1.0  0.55103  0.57950  0.44662  1.0000
  C   C2462     1.0  0.73908  0.95673  0.32934  1.0000
  C   C2463     1.0  0.65205  0.89889  0.35188  1.0000
  H   H1956     1.0  0.48557  0.88732  0.40937  1.0000
  C   C2464     1.0  0.63703  0.89334  0.37061  1.0000
  Fe  Fe178     1.0  0.76166  0.97380  0.38589  1.0000
  C   C2465     1.0  0.61885  0.64133  0.46933  1.0000
  C   C2466     1.0  0.55502  0.96834  0.24397  1.0000
  C   C2467     1.0  0.53778  0.87264  0.32771  1.0000
  S   S345      1.0  0.72391  0.96287  0.40746  1.0000
  C   C2468     1.0  0.58528  0.56216  0.35572  1.0000
  H   H1957     1.0  0.81621  0.87505  0.36250  1.0000
  H   H1958     1.0  0.59204  0.62238  0.36631  1.0000
  C   C2469     1.0  0.86077  0.65887  0.25732  1.0000
  H   H1959     1.0  0.67012  0.53125  0.24638  1.0000
  C   C2470     1.0  0.67364  0.92188  0.34535  1.0000
  C   C2471     1.0  0.49152  0.60808  0.39927  1.0000
  H   H1960     1.0  0.73735  0.88504  0.27815  1.0000
  H   H1961     1.0  0.64779  0.96090  0.42390  1.0000
  C   C2472     1.0  0.48718  0.92180  0.34615  1.0000
  C   C2473     1.0  0.87630  0.72849  0.47427  1.0000
  C   C2474     1.0  0.51757  0.58225  0.41101  1.0000
  C   C2475     1.0  0.51633  0.49534  0.37025  1.0000
  C   C2476     1.0  0.71217  0.79282  0.45019  1.0000
  C   C2477     1.0  0.83858  0.89987  0.45338  1.0000
  H   H1962     1.0  0.55504  0.64575  0.39124  1.0000
  H   H1963     1.0  0.66927  0.81896  0.47107  1.0000
  C   C2478     1.0  0.53790  0.62858  0.39665  1.0000
  H   H1964     1.0  0.50796  0.52582  0.32005  1.0000
  H   H1965     1.0  0.96801  0.69050  0.28978  1.0000
  H   H1966     1.0  0.62516  0.91996  0.44880  1.0000
  H   H1967     1.0  0.67197  0.97261  0.31079  1.0000
  C   C2479     1.0  0.72777  0.97845  0.30144  1.0000
  C   C2480     1.0  0.95676  0.68957  0.24607  1.0000
  H   H1968     1.0  0.51203  0.53082  0.37844  1.0000
  H   H1969     1.0  0.60846  0.49779  0.30788  1.0000
  S   S346      1.0  0.59229  0.98625  0.30573  1.0000
  H   H1970     1.0  0.84749  0.65438  0.28797  1.0000
  C   C2481     1.0  0.72458  0.86241  0.30730  1.0000
  C   C2482     1.0  0.57015  0.58155  0.43038  1.0000
  H   H1971     1.0  0.77086  0.92833  0.43872  1.0000
  C   C2483     1.0  0.97711  0.80359  0.45828  1.0000
  C   C2484     1.0  0.53601  0.94448  0.40266  1.0000
  C   C2485     1.0  0.78795  0.50303  0.28267  1.0000
  S   S347      1.0  0.49475  0.64763  0.28172  1.0000
  H   H1972     1.0  0.65467  0.72614  0.47604  1.0000
  H   H1973     1.0  0.85086  0.58405  0.26896  1.0000
  H   H1974     1.0  0.69241  0.87956  0.34501  1.0000
  H   H1975     1.0  0.59837  0.63792  0.25153  1.0000
  C   C2486     1.0  0.61478  0.92695  0.43856  1.0000
  H   H1976     1.0  0.85254  0.80900  0.46556  1.0000
  S   S348      1.0  0.57444  0.96520  0.26097  1.0000
  C   C2487     1.0  0.83489  0.95088  0.40035  1.0000
  C   C2488     1.0  0.82349  0.95196  0.43420  1.0000
  H   H1977     1.0  0.82892  0.55554  0.24695  1.0000
  H   H1978     1.0  0.57074  0.52548  0.37642  1.0000
  H   H1979     1.0  0.62432  0.97724  0.40095  1.0000
  C   C2489     1.0  0.81643  0.80965  0.45792  1.0000
  C   C2490     1.0  0.64093  0.91791  0.28450  1.0000
  H   H1980     1.0  0.85964  0.84678  0.40096  1.0000
  H   H1981     1.0  0.62217  0.94492  0.27263  1.0000
  H   H1982     1.0  0.54243  0.93970  0.36491  1.0000
  C   C2491     1.0  0.51370  0.63033  0.39369  1.0000
  H   H1983     1.0  0.56437  0.54608  0.40446  1.0000
  S   S349      1.0  0.97596  0.78877  0.39919  1.0000
  C   C2492     1.0  0.66045  0.85242  0.45702  1.0000
  H   H1984     1.0  0.67865  0.67968  0.44273  1.0000
  C   C2493     1.0  0.71136  0.75921  0.47685  1.0000
  H   H1985     1.0  0.97741  0.62884  0.23739  1.0000
  H   H1986     1.0  0.53635  0.58915  0.44549  1.0000
  C   C2494     1.0  0.49626  0.95118  0.29010  1.0000
  H   H1987     1.0  0.57873  0.89531  0.45024  1.0000
  H   H1988     1.0  0.63188  0.90261  0.27731  1.0000
  C   C2495     1.0  0.88463  0.71259  0.46277  1.0000
  C   C2496     1.0  0.70874  0.76648  0.45780  1.0000
  C   C2497     1.0  0.64756  0.73411  0.24287  1.0000
  C   C2498     1.0  0.58784  0.94541  0.41208  1.0000
  S   S350      1.0  0.95218  0.75343  0.45514  1.0000
  C   C2499     1.0  0.85335  0.73473  0.47263  1.0000
  C   C2500     1.0  0.63539  0.94165  0.28189  1.0000
  C   C2501     1.0  0.55091  0.56512  0.46459  1.0000
  S   S351      1.0  0.97247  0.54681  0.24090  1.0000
  H   H1989     1.0  0.60449  0.54641  0.45206  1.0000
  C   C2502     1.0  0.51298  0.52006  0.36693  1.0000
  C   C2503     1.0  0.78040  0.76906  0.46821  1.0000
  C   C2504     1.0  0.87016  0.70271  0.44959  1.0000
  H   H1990     1.0  0.96575  0.87128  0.47604  1.0000
  C   C2505     1.0  0.79579  0.86683  0.46081  1.0000
  C   C2506     1.0  0.66732  0.88950  0.47294  1.0000
  Fe  Fe179     1.0  0.74766  0.98796  0.42449  1.0000
  C   C2507     1.0  0.64684  0.96129  0.29128  1.0000
  H   H1991     1.0  0.56456  0.49116  0.32699  1.0000
  H   H1992     1.0  0.71533  0.97885  0.29115  1.0000
  H   H1993     1.0  0.49261  0.93901  0.37098  1.0000
  C   C2508     1.0  0.66233  0.67120  0.45501  1.0000
  C   C2509     1.0  0.72249  0.80481  0.48004  1.0000
  S   S352      1.0  0.74518  0.97265  0.45594  1.0000
  C   C2510     1.0  0.95356  0.60660  0.36714  1.0000
  C   C2511     1.0  0.51392  0.87744  0.32795  1.0000
  H   H1994     1.0  0.77726  0.85764  0.45716  1.0000
  C   C2512     1.0  0.56085  0.56073  0.24819  1.0000
  H   H1995     1.0  0.51237  0.64876  0.38636  1.0000
  C   C2513     1.0  0.97179  0.64585  0.23984  1.0000
  C   C2514     1.0  0.49779  0.96972  0.27375  1.0000
  C   C2515     1.0  0.84371  0.88892  0.47071  1.0000
  C   C2516     1.0  0.97685  0.72566  0.30134  1.0000
  H   H1996     1.0  0.64256  0.97969  0.28924  1.0000
  H   H1997     1.0  0.54003  0.92655  0.24561  1.0000
  H   H1998     1.0  0.91926  0.86955  0.48072  1.0000
  C   C2517     1.0  0.49346  0.58405  0.40792  1.0000
  H   H1999     1.0  0.50670  0.92041  0.34360  1.0000
  H   H2000     1.0  0.96579  0.50657  0.27312  1.0000
  C   C2518     1.0  0.79627  0.75695  0.47699  1.0000
  C   C2519     1.0  0.77170  0.50847  0.29746  1.0000
  H   H2001     1.0  0.68098  0.69562  0.47291  1.0000
  H   H2002     1.0  0.75071  0.50003  0.29966  1.0000
  H   H2003     1.0  0.83567  0.97605  0.34577  1.0000
  C   C2520     1.0  0.48421  0.96209  0.25953  1.0000
  H   H2004     1.0  0.96630  0.69494  0.36766  1.0000
  C   C2521     1.0  0.88663  0.57892  0.23660  1.0000
  H   H2005     1.0  0.96901  0.73617  0.29095  1.0000
  C   C2522     1.0  0.65788  0.53548  0.23669  1.0000
  H   H2006     1.0  0.77514  0.90089  0.47882  1.0000
  H   H2007     1.0  0.53599  0.56342  0.47706  1.0000
  H   H2008     1.0  0.97280  0.61380  0.28927  1.0000
  H   H2009     1.0  0.53069  0.98189  0.40579  1.0000
  H   H2010     1.0  0.72775  0.88384  0.48160  1.0000
  H   H2011     1.0  0.85467  0.98849  0.38116  1.0000
  C   C2523     1.0  0.80821  0.49226  0.34687  1.0000
  C   C2524     1.0  0.82491  0.86701  0.48305  1.0000
  H   H2012     1.0  0.56993  0.54194  0.48048  1.0000
  H   H2013     1.0  0.70848  0.73882  0.48288  1.0000
  C   C2525     1.0  0.97786  0.93383  0.57444  1.0000
  H   H2014     1.0  0.77508  0.73380  0.54757  1.0000
  H   H2015     1.0  0.86558  0.52111  0.71740  1.0000
  Fe  Fe180     1.0  0.95366  0.82872  0.57006  1.0000
  S   S353      1.0  0.95487  0.79766  0.55275  1.0000
  S   S354      1.0  0.91596  0.83409  0.58377  1.0000
  C   C2526     1.0  0.97911  0.49583  0.69307  1.0000
  H   H2016     1.0  0.70219  0.87050  0.54287  1.0000
  H   H2017     1.0  0.68947  0.93366  0.56503  1.0000
  H   H2018     1.0  0.51891  0.65628  0.69771  1.0000
  P   P85       1.0  0.66978  0.94498  0.60240  1.0000
  C   C2527     1.0  0.95327  0.64488  0.71321  1.0000
  H   H2019     1.0  0.55074  0.72743  0.71719  1.0000
  Fe  Fe181     1.0  0.79143  0.82237  0.53917  1.0000
  S   S355      1.0  0.76760  0.81300  0.56933  1.0000
  S   S356      1.0  0.83461  0.82944  0.52935  1.0000
  Fe  Fe182     1.0  0.74448  0.82040  0.52076  1.0000
  S   S357      1.0  0.71687  0.81064  0.54929  1.0000
  S   S358      1.0  0.73131  0.82964  0.49312  1.0000
  Fe  Fe183     1.0  0.74815  0.84154  0.55748  1.0000
  S   S359      1.0  0.73568  0.87101  0.57269  1.0000
  Fe  Fe184     1.0  0.73840  0.78301  0.55841  1.0000
  S   S360      1.0  0.71986  0.74105  0.57522  1.0000
  S   S361      1.0  0.77433  0.85333  0.52815  1.0000
  S   S362      1.0  0.76379  0.79036  0.52901  1.0000
  Fe  Fe185     1.0  0.91198  0.61649  0.63287  1.0000
  S   S363      1.0  0.94200  0.59573  0.63361  1.0000
  S   S364      1.0  0.90702  0.64109  0.60618  1.0000
  H   H2020     1.0  0.56790  0.81819  0.63432  1.0000
  S   S365      1.0  0.91802  0.57630  0.68087  1.0000
  Fe  Fe186     1.0  0.94789  0.61123  0.66055  1.0000
  Fe  Fe187     1.0  0.90974  0.56255  0.65374  1.0000
  C   C2528     1.0  0.62577  0.90276  0.60275  1.0000
  S   S366      1.0  0.87892  0.58190  0.65082  1.0000
  H   H2021     1.0  0.54395  0.67728  0.66474  1.0000
  Fe  Fe188     1.0  0.57715  0.65045  0.60263  1.0000
  S   S367      1.0  0.56724  0.65492  0.63313  1.0000
  S   S368      1.0  0.59950  0.68602  0.57884  1.0000
  Fe  Fe189     1.0  0.57468  0.61664  0.64103  1.0000
  S   S369      1.0  0.60054  0.61377  0.66206  1.0000
  S   S370      1.0  0.58770  0.61382  0.61044  1.0000
  C   C2529     1.0  0.80092  0.52922  0.70305  1.0000
  H   H2022     1.0  0.82895  0.85833  0.49635  1.0000
  S   S371      1.0  0.53571  0.62842  0.60235  1.0000
  C   C2530     1.0  0.79230  0.95547  0.55670  1.0000
  C   C2531     1.0  0.60414  0.82035  0.64330  1.0000
  H   H2023     1.0  0.66534  0.95271  0.64250  1.0000
  C   C2532     1.0  0.72019  0.49307  0.71352  1.0000
  C   C2533     1.0  0.61735  0.53586  0.66530  1.0000
  C   C2534     1.0  0.63702  0.55947  0.65617  1.0000
  C   C2535     1.0  0.63189  0.58347  0.65530  1.0000
  C   C2536     1.0  0.60688  0.58380  0.66301  1.0000
  C   C2537     1.0  0.58702  0.56018  0.67160  1.0000
  C   C2538     1.0  0.59231  0.53622  0.67294  1.0000
  H   H2024     1.0  0.65634  0.55922  0.65016  1.0000
  H   H2025     1.0  0.64721  0.60173  0.64849  1.0000
  H   H2026     1.0  0.56760  0.56045  0.67728  1.0000
  H   H2027     1.0  0.57692  0.51799  0.67967  1.0000
  C   C2539     1.0  0.92266  0.50562  0.64447  1.0000
  H   H2028     1.0  0.49895  0.52618  0.63352  1.0000
  H   H2029     1.0  0.51723  0.97068  0.69551  1.0000
  C   C2540     1.0  0.60053  0.61909  0.71172  1.0000
  C   C2541     1.0  0.52373  0.70504  0.60693  1.0000
  C   C2542     1.0  0.68661  0.72552  0.57560  1.0000
  C   C2543     1.0  0.67201  0.73908  0.56654  1.0000
  C   C2544     1.0  0.64530  0.72677  0.56775  1.0000
  C   C2545     1.0  0.63295  0.70081  0.57799  1.0000
  C   C2546     1.0  0.64751  0.68711  0.58698  1.0000
  C   C2547     1.0  0.67435  0.69941  0.58566  1.0000
  H   H2030     1.0  0.68122  0.75905  0.55861  1.0000
  H   H2031     1.0  0.63413  0.73751  0.56086  1.0000
  H   H2032     1.0  0.63813  0.66704  0.59487  1.0000
  H   H2033     1.0  0.68553  0.68875  0.59265  1.0000
  H   H2034     1.0  0.49317  0.70363  0.63032  1.0000
  C   C2548     1.0  0.64854  0.95787  0.61726  1.0000
  H   H2035     1.0  0.70235  0.96013  0.53179  1.0000
  C   C2549     1.0  0.95561  0.52469  0.68180  1.0000
  H   H2036     1.0  0.62874  0.78360  0.50078  1.0000
  P   P86       1.0  0.74949  0.50244  0.72309  1.0000
  H   H2037     1.0  0.55793  0.70703  0.58656  1.0000
  H   H2038     1.0  0.72379  0.91276  0.64359  1.0000
  C   C2550     1.0  0.55381  0.51209  0.63087  1.0000
  H   H2039     1.0  0.72082  0.77277  0.50251  1.0000
  H   H2040     1.0  0.97210  0.69689  0.64017  1.0000
  C   C2551     1.0  0.80019  0.93501  0.55066  1.0000
  C   C2552     1.0  0.78282  0.90912  0.55535  1.0000
  C   C2553     1.0  0.75768  0.90343  0.56642  1.0000
  C   C2554     1.0  0.74994  0.92386  0.57263  1.0000
  C   C2555     1.0  0.76711  0.94980  0.56769  1.0000
  H   H2041     1.0  0.81966  0.93925  0.54220  1.0000
  H   H2042     1.0  0.78886  0.89354  0.55046  1.0000
  H   H2043     1.0  0.73071  0.91972  0.58132  1.0000
  C   C2556     1.0  0.50379  0.53477  0.60255  1.0000
  C   C2557     1.0  0.63248  0.57233  0.70932  1.0000
  C   C2558     1.0  0.94796  0.71623  0.57824  1.0000
  C   C2559     1.0  0.92894  0.69113  0.58390  1.0000
  C   C2560     1.0  0.93191  0.67160  0.59782  1.0000
  C   C2561     1.0  0.95454  0.67680  0.60529  1.0000
  H   H2044     1.0  0.49229  0.53754  0.72080  1.0000
  H   H2045     1.0  0.94544  0.73137  0.56773  1.0000
  H   H2046     1.0  0.91169  0.68699  0.57780  1.0000
  H   H2047     1.0  0.95732  0.66172  0.61570  1.0000
  H   H2048     1.0  0.90017  0.79831  0.52819  1.0000
  C   C2562     1.0  0.89317  0.83277  0.56883  1.0000
  C   C2563     1.0  0.90154  0.83936  0.54877  1.0000
  C   C2564     1.0  0.88325  0.83888  0.53700  1.0000
  C   C2565     1.0  0.85651  0.83122  0.54508  1.0000
  C   C2566     1.0  0.84805  0.82470  0.56517  1.0000
  C   C2567     1.0  0.86641  0.82562  0.57704  1.0000
  H   H2049     1.0  0.92212  0.84498  0.54228  1.0000
  H   H2050     1.0  0.88979  0.84397  0.52148  1.0000
  H   H2051     1.0  0.82746  0.81906  0.57156  1.0000
  H   H2052     1.0  0.85988  0.82064  0.59257  1.0000
  S   S372      1.0  0.81416  0.98789  0.55026  1.0000
  C   C2568     1.0  0.96319  0.71151  0.64362  1.0000
  H   H2053     1.0  0.63870  0.81640  0.65260  1.0000
  H   H2054     1.0  0.54868  0.95481  0.61704  1.0000
  H   H2055     1.0  0.96064  0.96161  0.49238  1.0000
  C   C2569     1.0  0.64952  0.56062  0.70046  1.0000
  C   C2570     1.0  0.49265  0.92662  0.65152  1.0000
  C   C2571     1.0  0.63068  0.76412  0.50236  1.0000
  H   H2056     1.0  0.84140  0.98349  0.48738  1.0000
  H   H2057     1.0  0.52302  0.71841  0.65168  1.0000
  C   C2572     1.0  0.56100  0.56205  0.73279  1.0000
  C   C2573     1.0  0.55052  0.71011  0.60064  1.0000
  H   H2058     1.0  0.59434  0.68409  0.66287  1.0000
  C   C2574     1.0  0.97161  0.79038  0.49836  1.0000
  C   C2575     1.0  0.48412  0.61668  0.68216  1.0000
  H   H2059     1.0  0.57674  0.74876  0.68443  1.0000
  H   H2060     1.0  0.48900  0.96053  0.67441  1.0000
  C   C2576     1.0  0.82340  0.73473  0.51073  1.0000
  C   C2577     1.0  0.69811  0.49568  0.68667  1.0000
  H   H2061     1.0  0.55570  0.63855  0.72234  1.0000
  C   C2578     1.0  0.65293  0.91137  0.60138  1.0000
  C   C2579     1.0  0.74324  0.97225  0.61281  1.0000
  H   H2062     1.0  0.81859  0.67958  0.54302  1.0000
  C   C2580     1.0  0.92481  0.66303  0.69688  1.0000
  C   C2581     1.0  0.92429  0.72461  0.64898  1.0000
  C   C2582     1.0  0.62928  0.73655  0.62640  1.0000
  C   C2583     1.0  0.95864  0.50621  0.61953  1.0000
  H   H2063     1.0  0.90365  0.72071  0.64916  1.0000
  H   H2064     1.0  0.59203  0.87058  0.60219  1.0000
  C   C2584     1.0  0.71847  0.77839  0.48793  1.0000
  C   C2585     1.0  0.54601  0.68843  0.67607  1.0000
  H   H2065     1.0  0.63309  0.67072  0.65362  1.0000
  C   C2586     1.0  0.68809  0.95334  0.56254  1.0000
  H   H2066     1.0  0.71976  0.98670  0.59551  1.0000
  C   C2587     1.0  0.58950  0.76577  0.64542  1.0000
  C   C2588     1.0  0.77812  0.50818  0.70449  1.0000
  C   C2589     1.0  0.56429  0.72856  0.68705  1.0000
  H   H2067     1.0  0.96486  0.66813  0.68426  1.0000
  C   C2590     1.0  0.93650  0.70646  0.64406  1.0000
  S   S373      1.0  0.92008  0.63441  0.65822  1.0000
  C   C2591     1.0  0.96985  0.72181  0.58661  1.0000
  Fe  Fe190     1.0  0.54518  0.59184  0.61289  1.0000
  C   C2592     1.0  0.53305  0.69056  0.70951  1.0000
  S   S374      1.0  0.53533  0.55817  0.59744  1.0000
  H   H2068     1.0  0.52829  0.52274  0.70587  1.0000
  H   H2069     1.0  0.88130  0.56613  0.71858  1.0000
  H   H2070     1.0  0.68796  0.89995  0.59689  1.0000
  C   C2593     1.0  0.62527  0.72200  0.52251  1.0000
  C   C2594     1.0  0.57084  0.52404  0.56756  1.0000
  C   C2595     1.0  0.61308  0.77906  0.65018  1.0000
  H   H2071     1.0  0.56942  0.52257  0.61850  1.0000
  H   H2072     1.0  0.63751  0.97222  0.66197  1.0000
  C   C2596     1.0  0.96521  0.91044  0.50883  1.0000
  H   H2073     1.0  0.88499  0.65240  0.71237  1.0000
  H   H2074     1.0  0.70122  0.94290  0.48620  1.0000
  H   H2075     1.0  0.63029  0.68427  0.70875  1.0000
  H   H2076     1.0  0.92157  0.67425  0.68419  1.0000
  C   C2597     1.0  0.81444  0.69708  0.53692  1.0000
  H   H2077     1.0  0.51039  0.69779  0.59782  1.0000
  H   H2078     1.0  0.56223  0.53803  0.56113  1.0000
  H   H2079     1.0  0.75113  0.97123  0.49498  1.0000
  H   H2080     1.0  0.62816  0.75444  0.61808  1.0000
  H   H2081     1.0  0.73912  0.51426  0.68424  1.0000
  C   C2598     1.0  0.74454  0.95144  0.62628  1.0000
  H   H2082     1.0  0.88809  0.73621  0.48418  1.0000
  H   H2083     1.0  0.66738  0.74122  0.60978  1.0000
  H   H2084     1.0  0.97602  0.55569  0.65744  1.0000
  C   C2599     1.0  0.79503  0.70482  0.54725  1.0000
  H   H2085     1.0  0.63057  0.50210  0.73245  1.0000
  C   C2600     1.0  0.92946  0.95965  0.51580  1.0000
  C   C2601     1.0  0.60673  0.50631  0.56772  1.0000
  P   P87       1.0  0.92692  0.92733  0.52860  1.0000
  C   C2602     1.0  0.93889  0.90949  0.51177  1.0000
  C   C2603     1.0  0.94685  0.93020  0.54657  1.0000
  C   C2604     1.0  0.96045  0.95492  0.54977  1.0000
  C   C2605     1.0  0.64149  0.93668  0.52584  1.0000
  H   H2086     1.0  0.66993  0.69942  0.62739  1.0000
  C   C2606     1.0  0.52536  0.91091  0.72802  1.0000
  C   C2607     1.0  0.94948  0.90744  0.55714  1.0000
  C   C2608     1.0  0.92246  0.89486  0.50134  1.0000
  H   H2087     1.0  0.52344  0.52340  0.67219  1.0000
  C   C2609     1.0  0.61994  0.65066  0.48646  1.0000
  C   C2610     1.0  0.96561  0.75332  0.65252  1.0000
  C   C2611     1.0  0.69899  0.94719  0.61178  1.0000
  C   C2612     1.0  0.89275  0.91059  0.53964  1.0000
  C   C2613     1.0  0.87354  0.91090  0.52872  1.0000
  C   C2614     1.0  0.84711  0.89806  0.53705  1.0000
  C   C2615     1.0  0.83955  0.88554  0.55651  1.0000
  C   C2616     1.0  0.85837  0.88596  0.56766  1.0000
  C   C2617     1.0  0.88485  0.89823  0.55928  1.0000
  H   H2088     1.0  0.68159  0.83879  0.49830  1.0000
  H   H2089     1.0  0.50291  0.53816  0.57238  1.0000
  C   C2618     1.0  0.54384  0.95008  0.70265  1.0000
  H   H2090     1.0  0.63284  0.59149  0.70216  1.0000
  C   C2619     1.0  0.50348  0.91746  0.66661  1.0000
  C   C2620     1.0  0.48262  0.63829  0.66949  1.0000
  C   C2621     1.0  0.75696  0.55628  0.71800  1.0000
  H   H2091     1.0  0.62575  0.76839  0.65493  1.0000
  C   C2622     1.0  0.63231  0.68947  0.64641  1.0000
  H   H2092     1.0  0.93948  0.88817  0.55474  1.0000
  H   H2093     1.0  0.90203  0.89316  0.50342  1.0000
  C   C2623     1.0  0.95681  0.50368  0.69510  1.0000
  C   C2624     1.0  0.56767  0.71808  0.61278  1.0000
  C   C2625     1.0  0.57326  0.78009  0.63968  1.0000
  H   H2094     1.0  0.78676  0.83857  0.48752  1.0000
  H   H2095     1.0  0.87895  0.92088  0.51371  1.0000
  H   H2096     1.0  0.83244  0.89753  0.52842  1.0000
  H   H2097     1.0  0.81914  0.87515  0.56294  1.0000
  H   H2098     1.0  0.85248  0.87604  0.58271  1.0000
  H   H2099     1.0  0.89881  0.89773  0.56833  1.0000
  C   C2626     1.0  0.72097  0.50205  0.69392  1.0000
  C   C2627     1.0  0.50082  0.91443  0.72975  1.0000
  C   C2628     1.0  0.86316  0.56461  0.72790  1.0000
  C   C2629     1.0  0.82327  0.51547  0.67662  1.0000
  C   C2630     1.0  0.63669  0.71396  0.50656  1.0000
  C   C2631     1.0  0.93456  0.57534  0.72847  1.0000
  P   P88       1.0  0.64392  0.68327  0.50983  1.0000
  C   C2632     1.0  0.62055  0.65961  0.52987  1.0000
  C   C2633     1.0  0.62212  0.74690  0.52038  1.0000
  H   H2100     1.0  0.66149  0.52613  0.70146  1.0000
  H   H2101     1.0  0.81911  0.49719  0.73294  1.0000
  C   C2634     1.0  0.49051  0.52133  0.62137  1.0000
  H   H2102     1.0  0.95919  0.97286  0.54168  1.0000
  H   H2103     1.0  0.94035  0.49337  0.70685  1.0000
  C   C2635     1.0  0.62863  0.64277  0.54266  1.0000
  C   C2636     1.0  0.61028  0.62382  0.55768  1.0000
  C   C2637     1.0  0.58383  0.62158  0.56006  1.0000
  C   C2638     1.0  0.57567  0.63846  0.54757  1.0000
  C   C2639     1.0  0.59393  0.65740  0.53250  1.0000
  C   C2640     1.0  0.67644  0.68993  0.51462  1.0000
  C   C2641     1.0  0.68639  0.71038  0.52400  1.0000
  C   C2642     1.0  0.71176  0.71587  0.52732  1.0000
  C   C2643     1.0  0.72732  0.70092  0.52139  1.0000
  C   C2644     1.0  0.71743  0.68022  0.51237  1.0000
  C   C2645     1.0  0.69202  0.67459  0.50912  1.0000
  H   H2104     1.0  0.55486  0.77033  0.63614  1.0000
  H   H2105     1.0  0.68323  0.90929  0.63154  1.0000
  H   H2106     1.0  0.69868  0.50277  0.67157  1.0000
  C   C2646     1.0  0.50909  0.93993  0.63355  1.0000
  C   C2647     1.0  0.94921  0.65972  0.69696  1.0000
  C   C2648     1.0  0.97815  0.73542  0.64714  1.0000
  P   P89       1.0  0.57975  0.73050  0.64751  1.0000
  C   C2649     1.0  0.56239  0.71468  0.67201  1.0000
  C   C2650     1.0  0.69542  0.96822  0.54367  1.0000
  H   H2107     1.0  0.60323  0.64251  0.49835  1.0000
  H   H2108     1.0  0.64902  0.64425  0.54118  1.0000
  H   H2109     1.0  0.61655  0.61104  0.56768  1.0000
  H   H2110     1.0  0.56967  0.60697  0.57177  1.0000
  H   H2111     1.0  0.55520  0.63702  0.54977  1.0000
  H   H2112     1.0  0.58728  0.67033  0.52293  1.0000
  H   H2113     1.0  0.67472  0.72224  0.52873  1.0000
  H   H2114     1.0  0.71930  0.73173  0.53454  1.0000
  H   H2115     1.0  0.74698  0.70528  0.52389  1.0000
  H   H2116     1.0  0.72948  0.66854  0.50790  1.0000
  H   H2117     1.0  0.68459  0.65836  0.50224  1.0000
  S   S375      1.0  0.49285  0.64304  0.64441  1.0000
  H   H2118     1.0  0.48014  0.50095  0.69831  1.0000
  C   C2651     1.0  0.65007  0.91489  0.52468  1.0000
  H   H2119     1.0  0.68602  0.98120  0.48837  1.0000
  C   C2652     1.0  0.93268  0.54991  0.72581  1.0000
  H   H2120     1.0  0.62598  0.50638  0.56113  1.0000
  H   H2121     1.0  0.64785  0.97748  0.51372  1.0000
  C   C2653     1.0  0.71833  0.90125  0.50599  1.0000
  C   C2654     1.0  0.66833  0.86326  0.52964  1.0000
  C   C2655     1.0  0.64260  0.84677  0.53154  1.0000
  C   C2656     1.0  0.63105  0.82585  0.54745  1.0000
  C   C2657     1.0  0.64505  0.82128  0.56160  1.0000
  C   C2658     1.0  0.67049  0.83779  0.55992  1.0000
  C   C2659     1.0  0.68217  0.85863  0.54401  1.0000
  H   H2122     1.0  0.60978  0.84141  0.64254  1.0000
  H   H2123     1.0  0.89016  0.50235  0.69532  1.0000
  C   C2660     1.0  0.77267  0.92096  0.50240  1.0000
  C   C2661     1.0  0.75596  0.92676  0.51667  1.0000
  C   C2662     1.0  0.72892  0.91692  0.51850  1.0000
  C   C2663     1.0  0.89769  0.79702  0.51365  1.0000
  H   H2124     1.0  0.55778  0.54659  0.64289  1.0000
  H   H2125     1.0  0.53774  0.50614  0.59110  1.0000
  H   H2126     1.0  0.76331  0.55721  0.70274  1.0000
  C   C2664     1.0  0.82321  0.53305  0.68897  1.0000
  H   H2127     1.0  0.94420  0.53916  0.62163  1.0000
  C   C2665     1.0  0.91378  0.97356  0.52371  1.0000
  C   C2666     1.0  0.62993  0.96727  0.60965  1.0000
  H   H2128     1.0  0.49286  0.60306  0.67660  1.0000
  H   H2129     1.0  0.61140  0.81292  0.54863  1.0000
  H   H2130     1.0  0.63641  0.80473  0.57370  1.0000
  C   C2667     1.0  0.96461  0.90924  0.57120  1.0000
  H   H2131     1.0  0.66522  0.85462  0.59540  1.0000
  C   C2668     1.0  0.61745  0.98046  0.63951  1.0000
  H   H2132     1.0  0.79359  0.92829  0.50122  1.0000
  H   H2133     1.0  0.76393  0.93893  0.52633  1.0000
  H   H2134     1.0  0.71630  0.92134  0.52982  1.0000
  C   C2669     1.0  0.62711  0.85962  0.59855  1.0000
  C   C2670     1.0  0.85571  0.50264  0.71414  1.0000
  C   C2671     1.0  0.52793  0.51275  0.66127  1.0000
  H   H2135     1.0  0.53868  0.91513  0.67563  1.0000
  C   C2672     1.0  0.61025  0.69713  0.65155  1.0000
  C   C2673     1.0  0.93878  0.74791  0.65342  1.0000
  H   H2136     1.0  0.80099  0.76100  0.51603  1.0000
  H   H2137     1.0  0.84377  0.70585  0.51104  1.0000
  H   H2138     1.0  0.92931  0.76199  0.65724  1.0000
  C   C2674     1.0  0.49769  0.93585  0.71787  1.0000
  C   C2675     1.0  0.54677  0.92860  0.71446  1.0000
  C   C2676     1.0  0.58059  0.80728  0.63864  1.0000
  C   C2677     1.0  0.54741  0.52582  0.64482  1.0000
  S   S376      1.0  0.53301  0.59129  0.64442  1.0000
  C   C2678     1.0  0.78999  0.72763  0.53949  1.0000
  C   C2679     1.0  0.69999  0.92676  0.62596  1.0000
  C   C2680     1.0  0.80091  0.49406  0.67828  1.0000
  C   C2681     1.0  0.96225  0.77081  0.48806  1.0000
  C   C2682     1.0  0.97484  0.89689  0.49590  1.0000
  C   C2683     1.0  0.60999  0.64613  0.70412  1.0000
  C   C2684     1.0  0.97355  0.70169  0.59946  1.0000
  H   H2139     1.0  0.58823  0.72102  0.60773  1.0000
  H   H2140     1.0  0.92537  0.68858  0.64031  1.0000
  C   C2685     1.0  0.80445  0.74282  0.52149  1.0000
  H   H2141     1.0  0.93262  0.58931  0.71680  1.0000
  H   H2142     1.0  0.76354  0.59801  0.71395  1.0000
  H   H2143     1.0  0.57175  0.53800  0.71348  1.0000
  C   C2686     1.0  0.82862  0.71198  0.51872  1.0000
  C   C2687     1.0  0.51938  0.95391  0.70447  1.0000
  H   H2144     1.0  0.84093  0.51813  0.66610  1.0000
  S   S377      1.0  0.89903  0.51914  0.65414  1.0000
  H   H2145     1.0  0.63164  0.84989  0.52055  1.0000
  H   H2146     1.0  0.61446  0.91592  0.60477  1.0000
  H   H2147     1.0  0.49126  0.90773  0.68076  1.0000
  C   C2688     1.0  0.61295  0.87700  0.60128  1.0000
  C   C2689     1.0  0.55804  0.72108  0.63135  1.0000
  H   H2148     1.0  0.85893  0.77004  0.52303  1.0000
  S   S378      1.0  0.62454  0.50619  0.66766  1.0000
  H   H2149     1.0  0.50785  0.61627  0.73064  1.0000
  S   S379      1.0  0.57111  0.97111  0.68544  1.0000
  Fe  Fe191     1.0  0.52670  0.62964  0.63371  1.0000
  C   C2690     1.0  0.62042  0.80626  0.64900  1.0000
  C   C2691     1.0  0.72052  0.97018  0.60568  1.0000
  C   C2692     1.0  0.67958  0.96414  0.57797  1.0000
  C   C2693     1.0  0.81578  0.64609  0.61664  1.0000
  C   C2694     1.0  0.83167  0.63876  0.62844  1.0000
  C   C2695     1.0  0.85517  0.65703  0.62929  1.0000
  C   C2696     1.0  0.86287  0.68266  0.61836  1.0000
  C   C2697     1.0  0.84685  0.69040  0.60669  1.0000
  C   C2698     1.0  0.82342  0.67173  0.60568  1.0000
  P   P90       1.0  0.85756  0.72297  0.59141  1.0000
  C   C2699     1.0  0.87897  0.74592  0.60228  1.0000
  C   C2700     1.0  0.87491  0.72187  0.56804  1.0000
  C   C2701     1.0  0.86971  0.69829  0.56126  1.0000
  C   C2702     1.0  0.88322  0.69755  0.54320  1.0000
  C   C2703     1.0  0.90200  0.72028  0.53177  1.0000
  C   C2704     1.0  0.90733  0.74376  0.53841  1.0000
  C   C2705     1.0  0.89374  0.74466  0.55640  1.0000
  C   C2706     1.0  0.90497  0.74650  0.60091  1.0000
  C   C2707     1.0  0.92207  0.76426  0.60889  1.0000
  C   C2708     1.0  0.91325  0.78174  0.61837  1.0000
  C   C2709     1.0  0.88726  0.78121  0.62000  1.0000
  C   C2710     1.0  0.87014  0.76341  0.61196  1.0000
  C   C2711     1.0  0.83019  0.73439  0.58838  1.0000
  C   C2712     1.0  0.80744  0.72597  0.60299  1.0000
  C   C2713     1.0  0.78640  0.73509  0.60068  1.0000
  C   C2714     1.0  0.78817  0.75313  0.58402  1.0000
  C   C2715     1.0  0.81101  0.76220  0.56969  1.0000
  C   C2716     1.0  0.83197  0.75292  0.57183  1.0000
  H   H2150     1.0  0.79781  0.63173  0.61572  1.0000
  H   H2151     1.0  0.82618  0.61876  0.63661  1.0000
  H   H2152     1.0  0.86795  0.65103  0.63788  1.0000
  H   H2153     1.0  0.88163  0.69598  0.61880  1.0000
  H   H2154     1.0  0.81127  0.67682  0.59616  1.0000
  H   H2155     1.0  0.85559  0.68032  0.56995  1.0000
  H   H2156     1.0  0.87946  0.67921  0.53820  1.0000
  H   H2157     1.0  0.91265  0.71966  0.51785  1.0000
  H   H2158     1.0  0.92216  0.76125  0.52959  1.0000
  H   H2159     1.0  0.89802  0.76312  0.56126  1.0000
  H   H2160     1.0  0.91197  0.73320  0.59359  1.0000
  H   H2161     1.0  0.94223  0.76460  0.60747  1.0000
  H   H2162     1.0  0.92673  0.79624  0.62392  1.0000
  H   H2163     1.0  0.88074  0.79543  0.62674  1.0000
  H   H2164     1.0  0.85033  0.76384  0.61300  1.0000
  H   H2165     1.0  0.80598  0.71257  0.61625  1.0000
  H   H2166     1.0  0.76871  0.72836  0.61183  1.0000
  H   H2167     1.0  0.77187  0.76017  0.58228  1.0000
  H   H2168     1.0  0.81248  0.77648  0.55686  1.0000
  H   H2169     1.0  0.84957  0.76056  0.56064  1.0000
  C   C2717     1.0  0.63537  0.97058  0.64739  1.0000
  P   P91       1.0  0.84264  0.75506  0.48780  1.0000
  H   H2170     1.0  0.60652  0.53835  0.54592  1.0000
  H   H2171     1.0  0.61933  0.70927  0.53672  1.0000
  C   C2718     1.0  0.66698  0.89380  0.59844  1.0000
  C   C2719     1.0  0.53034  0.92154  0.66376  1.0000
  H   H2172     1.0  0.78404  0.69336  0.56135  1.0000
  C   C2720     1.0  0.67577  0.96263  0.49841  1.0000
  C   C2721     1.0  0.90424  0.65089  0.71283  1.0000
  H   H2173     1.0  0.84078  0.54922  0.68806  1.0000
  C   C2722     1.0  0.65151  0.72909  0.62159  1.0000
  C   C2723     1.0  0.59575  0.52425  0.55910  1.0000
  H   H2174     1.0  0.50141  0.94773  0.62180  1.0000
  Fe  Fe192     1.0  0.88955  0.59814  0.67648  1.0000
  C   C2724     1.0  0.65102  0.95947  0.63629  1.0000
  H   H2175     1.0  0.76099  0.96530  0.57269  1.0000
  C   C2725     1.0  0.72285  0.92876  0.63297  1.0000
  C   C2726     1.0  0.54958  0.71653  0.70571  1.0000
  H   H2176     1.0  0.66265  0.57077  0.68675  1.0000
  H   H2177     1.0  0.64005  0.89676  0.53514  1.0000
  H   H2178     1.0  0.62509  0.93522  0.53709  1.0000
  H   H2179     1.0  0.93778  0.52975  0.68269  1.0000
  C   C2727     1.0  0.65408  0.86799  0.59734  1.0000
  C   C2728     1.0  0.93218  0.88136  0.48836  1.0000
  C   C2729     1.0  0.53160  0.67645  0.69476  1.0000
  S   S380      1.0  0.85789  0.60197  0.69927  1.0000
  H   H2180     1.0  0.62775  0.96653  0.59497  1.0000
  C   C2730     1.0  0.61479  0.97891  0.62064  1.0000
  C   C2731     1.0  0.60859  0.72081  0.64162  1.0000
  C   C2732     1.0  0.73524  0.89579  0.49151  1.0000
  P   P92       1.0  0.68331  0.88921  0.50837  1.0000
  C   C2733     1.0  0.84855  0.58060  0.72211  1.0000
  C   C2734     1.0  0.53108  0.71648  0.63739  1.0000
  C   C2735     1.0  0.91788  0.81156  0.49800  1.0000
  C   C2736     1.0  0.51405  0.70844  0.62523  1.0000
  H   H2181     1.0  0.89968  0.96482  0.53724  1.0000
  C   C2737     1.0  0.65300  0.70554  0.63155  1.0000
  H   H2182     1.0  0.68163  0.83412  0.57069  1.0000
  H   H2183     1.0  0.60763  0.65352  0.68981  1.0000
  H   H2184     1.0  0.97227  0.64228  0.71294  1.0000
  C   C2738     1.0  0.51167  0.54500  0.72364  1.0000
  C   C2739     1.0  0.53190  0.53660  0.71532  1.0000
  C   C2740     1.0  0.65427  0.96051  0.51267  1.0000
  H   H2185     1.0  0.61724  0.83968  0.59739  1.0000
  C   C2741     1.0  0.63154  0.52196  0.72622  1.0000
  C   C2742     1.0  0.64234  0.67033  0.48801  1.0000
  C   C2743     1.0  0.55701  0.50606  0.58466  1.0000
  C   C2744     1.0  0.67160  0.91687  0.51029  1.0000
  H   H2186     1.0  0.56565  0.92560  0.71308  1.0000
  H   H2187     1.0  0.59093  0.60600  0.70315  1.0000
  C   C2745     1.0  0.62272  0.66333  0.71478  1.0000
  H   H2188     1.0  0.95302  0.75058  0.49558  1.0000
  H   H2189     1.0  0.76228  0.95304  0.63164  1.0000
  C   C2746     1.0  0.53597  0.94389  0.63075  1.0000
  C   C2747     1.0  0.49271  0.52812  0.58695  1.0000
  H   H2190     1.0  0.61350  0.75296  0.53282  1.0000
  C   C2748     1.0  0.94229  0.51916  0.62809  1.0000
  H   H2191     1.0  0.52119  0.68133  0.72385  1.0000
  H   H2192     1.0  0.92928  0.54439  0.71236  1.0000
  C   C2749     1.0  0.64514  0.73137  0.48851  1.0000
  H   H2193     1.0  0.96601  0.89146  0.57959  1.0000
  C   C2750     1.0  0.68442  0.94093  0.49725  1.0000
  C   C2751     1.0  0.87435  0.78079  0.51062  1.0000
  C   C2752     1.0  0.76230  0.90555  0.48981  1.0000
  C   C2753     1.0  0.97600  0.95666  0.56361  1.0000
  H   H2194     1.0  0.80186  0.54247  0.71296  1.0000
  H   H2195     1.0  0.93585  0.82424  0.50049  1.0000
  C   C2754     1.0  0.54659  0.93482  0.64588  1.0000
  H   H2196     1.0  0.60156  0.98752  0.61436  1.0000
  H   H2197     1.0  0.96985  0.78522  0.51378  1.0000
  H   H2198     1.0  0.56748  0.93864  0.64398  1.0000
  C   C2755     1.0  0.93283  0.63306  0.72947  1.0000
  C   C2756     1.0  0.95834  0.88235  0.48567  1.0000
  C   C2757     1.0  0.94803  0.97175  0.49855  1.0000
  C   C2758     1.0  0.55648  0.54498  0.71993  1.0000
  C   C2759     1.0  0.86967  0.49211  0.70148  1.0000
  C   C2760     1.0  0.77844  0.49032  0.69223  1.0000
  H   H2199     1.0  0.97328  0.51634  0.60654  1.0000
  H   H2200     1.0  0.49275  0.54930  0.68629  1.0000
  C   C2761     1.0  0.90813  0.63581  0.72906  1.0000
  H   H2201     1.0  0.97658  0.77159  0.65584  1.0000
  C   C2762     1.0  0.64894  0.53543  0.70881  1.0000
  H   H2202     1.0  0.97831  0.92127  0.51673  1.0000
  C   C2763     1.0  0.97737  0.53916  0.66726  1.0000
  C   C2764     1.0  0.61504  0.55905  0.72690  1.0000
  C   C2765     1.0  0.87138  0.77833  0.49181  1.0000
  C   C2766     1.0  0.75694  0.57945  0.72429  1.0000
  C   C2767     1.0  0.74750  0.98935  0.48990  1.0000
  H   H2203     1.0  0.81426  0.59172  0.73030  1.0000
  C   C2768     1.0  0.64214  0.75630  0.48643  1.0000
  H   H2204     1.0  0.49210  0.58385  0.59848  1.0000
  H   H2205     1.0  0.58388  0.98639  0.72416  1.0000
  C   C2769     1.0  0.60398  0.60888  0.72998  1.0000
  C   C2770     1.0  0.74928  0.53226  0.73134  1.0000
  H   H2206     1.0  0.78819  0.73641  0.48410  1.0000
  C   C2771     1.0  0.67486  0.87541  0.48791  1.0000
  C   C2772     1.0  0.67538  0.84986  0.48710  1.0000
  C   C2773     1.0  0.62573  0.65345  0.73318  1.0000
  H   H2207     1.0  0.52767  0.94212  0.76105  1.0000
  H   H2208     1.0  0.51157  0.82548  0.80499  1.0000
  C   C2774     1.0  0.58958  0.54273  0.80279  1.0000
  H   H2209     1.0  0.48631  0.55170  0.84930  1.0000
  C   C2775     1.0  0.51566  0.93344  0.83212  1.0000
  C   C2776     1.0  0.56700  0.53612  0.79535  1.0000
  H   H2210     1.0  0.61854  0.61925  0.75514  1.0000
  C   C2777     1.0  0.82553  0.57921  0.73458  1.0000
  C   C2778     1.0  0.51111  0.67250  0.80106  1.0000
  C   C2779     1.0  0.96032  0.53525  0.81785  1.0000
  H   H2211     1.0  0.96016  0.66946  0.75216  1.0000
  C   C2780     1.0  0.53098  0.91220  0.85808  1.0000
  H   H2212     1.0  0.54613  0.91181  0.86614  1.0000
  C   C2781     1.0  0.92113  0.50632  0.84048  1.0000
  H   H2213     1.0  0.54411  0.73671  0.81779  1.0000
  C   C2782     1.0  0.49524  0.81753  0.81724  1.0000
  C   C2783     1.0  0.48146  0.71279  0.85784  1.0000
  C   C2784     1.0  0.61452  0.53363  0.73519  1.0000
  H   H2214     1.0  0.63026  0.51655  0.80397  1.0000
  C   C2785     1.0  0.65134  0.49480  0.81864  1.0000
  C   C2786     1.0  0.49555  0.49722  0.83418  1.0000
  H   H2215     1.0  0.79868  0.56013  0.76177  1.0000
  C   C2787     1.0  0.89765  0.57526  0.83280  1.0000
  H   H2216     1.0  0.94740  0.54108  0.84631  1.0000
  C   C2788     1.0  0.65742  0.50633  0.78387  1.0000
  C   C2789     1.0  0.86826  0.58417  0.78885  1.0000
  H   H2217     1.0  0.92625  0.57500  0.80850  1.0000
  H   H2218     1.0  0.72644  0.49502  0.82189  1.0000
  H   H2219     1.0  0.96952  0.49960  0.75549  1.0000
  H   H2220     1.0  0.51913  0.94993  0.82035  1.0000
  C   C2790     1.0  0.61376  0.56982  0.77160  1.0000
  C   C2791     1.0  0.54168  0.65454  0.76608  1.0000
  C   C2792     1.0  0.78475  0.54279  0.82387  1.0000
  C   C2793     1.0  0.51743  0.62683  0.74056  1.0000
  C   C2794     1.0  0.74036  0.53159  0.75095  1.0000
  H   H2221     1.0  0.58319  0.52157  0.95855  1.0000
  C   C2795     1.0  0.50264  0.49706  0.76462  1.0000
  C   C2796     1.0  0.49543  0.95717  0.76064  1.0000
  H   H2222     1.0  0.57075  0.98274  0.75952  1.0000
  H   H2223     1.0  0.55385  0.94858  0.83837  1.0000
  H   H2224     1.0  0.55152  0.66519  0.77579  1.0000
  P   P93       1.0  0.82830  0.51830  0.85951  1.0000
  H   H2225     1.0  0.53343  0.52994  0.86186  1.0000
  H   H2226     1.0  0.50066  0.75194  0.89355  1.0000
  C   C2797     1.0  0.53074  0.67348  0.81173  1.0000
  H   H2227     1.0  0.58902  0.53388  0.81755  1.0000
  C   C2798     1.0  0.51453  0.64191  0.77085  1.0000
  C   C2799     1.0  0.48902  0.56923  0.83863  1.0000
  H   H2228     1.0  0.48927  0.69514  0.78761  1.0000
  H   H2229     1.0  0.50220  0.52036  0.96526  1.0000
  H   H2230     1.0  0.53689  0.65641  0.81546  1.0000
  H   H2231     1.0  0.50559  0.85186  0.82977  1.0000
  C   C2800     1.0  0.48727  0.89274  0.85330  1.0000
  C   C2801     1.0  0.90737  0.56447  0.81796  1.0000
  C   C2802     1.0  0.54258  0.69657  0.81773  1.0000
  C   C2803     1.0  0.95504  0.51939  0.80442  1.0000
  H   H2232     1.0  0.85832  0.50657  0.82592  1.0000
  H   H2233     1.0  0.96838  0.52426  0.79064  1.0000
  H   H2234     1.0  0.85079  0.56741  0.79107  1.0000
  H   H2235     1.0  0.86724  0.53883  0.91593  1.0000
  H   H2236     1.0  0.81562  0.52559  0.82170  1.0000
  C   C2804     1.0  0.50415  0.69522  0.79597  1.0000
  C   C2805     1.0  0.49191  0.83241  0.83117  1.0000
  C   C2806     1.0  0.93480  0.53132  0.74063  1.0000
  H   H2237     1.0  0.48045  0.78093  0.80838  1.0000
  H   H2238     1.0  0.78334  0.54306  0.80891  1.0000
  C   C2807     1.0  0.82813  0.51847  0.88478  1.0000
  P   P94       1.0  0.59268  0.57362  0.73866  1.0000
  C   C2808     1.0  0.51025  0.94382  0.76955  1.0000
  C   C2809     1.0  0.87344  0.56144  0.84513  1.0000
  H   H2239     1.0  0.51628  0.50294  0.77371  1.0000
  H   H2240     1.0  0.86936  0.53976  0.88137  1.0000
  H   H2241     1.0  0.72050  0.51654  0.89426  1.0000
  S   S381      1.0  0.65010  0.50825  0.86863  1.0000
  C   C2810     1.0  0.85077  0.53040  0.89127  1.0000
  C   C2811     1.0  0.80319  0.53302  0.83112  1.0000
  H   H2242     1.0  0.67491  0.52371  0.90558  1.0000
  C   C2812     1.0  0.81666  0.56126  0.75237  1.0000
  H   H2243     1.0  0.74682  0.49557  0.90745  1.0000
  C   C2813     1.0  0.50264  0.62788  0.75799  1.0000
  C   C2814     1.0  0.53516  0.71892  0.81293  1.0000
  C   C2815     1.0  0.50281  0.58433  0.89860  1.0000
  H   H2244     1.0  0.48698  0.63110  0.95862  1.0000
  C   C2816     1.0  0.94332  0.52879  0.83590  1.0000
  C   C2817     1.0  0.93227  0.49761  0.80867  1.0000
  C   C2818     1.0  0.55648  0.65335  0.74864  1.0000
  C   C2819     1.0  0.54070  0.57076  0.74084  1.0000
  C   C2820     1.0  0.59088  0.56381  0.76420  1.0000
  H   H2245     1.0  0.49126  0.55005  0.81444  1.0000
  H   H2246     1.0  0.54373  0.58374  0.75094  1.0000
  H   H2247     1.0  0.49570  0.58910  0.79041  1.0000
  H   H2248     1.0  0.93980  0.52338  0.76966  1.0000
  C   C2821     1.0  0.48983  0.61453  0.83101  1.0000
  C   C2822     1.0  0.54436  0.63945  0.73590  1.0000
  C   C2823     1.0  0.94050  0.56340  0.76101  1.0000
  C   C2824     1.0  0.93850  0.58229  0.74611  1.0000
  H   H2249     1.0  0.49263  0.49940  0.81947  1.0000
  P   P95       1.0  0.93858  0.61426  0.75041  1.0000
  C   C2825     1.0  0.91228  0.60919  0.77083  1.0000
  H   H2250     1.0  0.50617  0.49072  0.88683  1.0000
  C   C2826     1.0  0.52177  0.57315  0.89208  1.0000
  C   C2827     1.0  0.51607  0.71829  0.80196  1.0000
  H   H2251     1.0  0.70786  0.54698  0.86889  1.0000
  H   H2252     1.0  0.63233  0.58162  0.76227  1.0000
  H   H2253     1.0  0.93305  0.51155  0.73860  1.0000
  C   C2828     1.0  0.91373  0.62694  0.78331  1.0000
  C   C2829     1.0  0.89245  0.62346  0.79827  1.0000
  H   H2254     1.0  0.82592  0.51449  0.93978  1.0000
  C   C2830     1.0  0.61622  0.62633  0.74084  1.0000
  C   C2831     1.0  0.88943  0.58766  0.77386  1.0000
  C   C2832     1.0  0.96989  0.63330  0.75403  1.0000
  S   S382      1.0  0.81854  0.52161  0.78001  1.0000
  H   H2255     1.0  0.60061  0.52252  0.74839  1.0000
  C   C2833     1.0  0.80428  0.50286  0.91820  1.0000
  H   H2256     1.0  0.90016  0.53189  0.80362  1.0000
  H   H2257     1.0  0.73357  0.55412  0.77236  1.0000
  C   C2834     1.0  0.56752  0.54678  0.77627  1.0000
  C   C2835     1.0  0.69523  0.52688  0.87169  1.0000
  C   C2836     1.0  0.67478  0.51261  0.89426  1.0000
  H   H2258     1.0  0.50322  0.87638  0.87595  1.0000
  H   H2259     1.0  0.53736  0.54111  0.89812  1.0000
  H   H2260     1.0  0.78803  0.49356  0.89384  1.0000
  C   C2837     1.0  0.51844  0.51473  0.85811  1.0000
  H   H2261     1.0  0.51279  0.91994  0.79539  1.0000
  H   H2262     1.0  0.86567  0.57058  0.85602  1.0000
  H   H2263     1.0  0.93111  0.64347  0.78162  1.0000
  H   H2264     1.0  0.89369  0.63723  0.80782  1.0000
  H   H2265     1.0  0.90884  0.59443  0.83459  1.0000
  H   H2266     1.0  0.94329  0.56816  0.77484  1.0000
  H   H2267     1.0  0.88787  0.57359  0.76458  1.0000
  H   H2268     1.0  0.55744  0.69710  0.82620  1.0000
  C   C2838     1.0  0.53531  0.93288  0.84243  1.0000
  C   C2839     1.0  0.48412  0.54773  0.92619  1.0000
  C   C2840     1.0  0.86968  0.60214  0.80098  1.0000
  H   H2269     1.0  0.50243  0.60271  0.89047  1.0000
  C   C2841     1.0  0.89272  0.54005  0.81529  1.0000
  H   H2270     1.0  0.74884  0.59671  0.74874  1.0000
  H   H2271     1.0  0.54986  0.54066  0.77086  1.0000
  C   C2842     1.0  0.85405  0.54624  0.74562  1.0000
  C   C2843     1.0  0.85962  0.53592  0.84353  1.0000
  C   C2844     1.0  0.51604  0.56199  0.73644  1.0000
  C   C2845     1.0  0.74019  0.55475  0.75718  1.0000
  C   C2846     1.0  0.56472  0.50660  0.95962  1.0000
  C   C2847     1.0  0.80515  0.50421  0.89848  1.0000
  H   H2272     1.0  0.50003  0.56759  0.74345  1.0000
  C   C2848     1.0  0.86904  0.52568  0.82810  1.0000
  C   C2849     1.0  0.49363  0.61407  0.81123  1.0000
  H   H2273     1.0  0.70651  0.51864  0.83951  1.0000
  S   S383      1.0  0.87905  0.49378  0.77981  1.0000
  C   C2850     1.0  0.82652  0.51578  0.92448  1.0000
  C   C2851     1.0  0.50691  0.89222  0.86357  1.0000
  P   P96       1.0  0.49528  0.64251  0.79367  1.0000
  C   C2852     1.0  0.80524  0.53237  0.85046  1.0000
  C   C2853     1.0  0.78869  0.54177  0.86244  1.0000
  C   C2854     1.0  0.77017  0.55142  0.85516  1.0000
  C   C2855     1.0  0.76815  0.55189  0.83590  1.0000
  C   C2856     1.0  0.91549  0.49095  0.82673  1.0000
  C   C2857     1.0  0.61296  0.55980  0.79095  1.0000
  H   H2274     1.0  0.73358  0.51327  0.76149  1.0000
  H   H2275     1.0  0.63062  0.56449  0.79661  1.0000
  H   H2276     1.0  0.54924  0.52175  0.80409  1.0000
  C   C2858     1.0  0.49591  0.53450  0.97231  1.0000
  C   C2859     1.0  0.69423  0.50941  0.85358  1.0000
  H   H2277     1.0  0.85327  0.59926  0.81264  1.0000
  H   H2278     1.0  0.86522  0.53359  0.74986  1.0000
  H   H2279     1.0  0.52604  0.53457  0.82851  1.0000
  H   H2280     1.0  0.48419  0.59250  0.85986  1.0000
  C   C2860     1.0  0.55752  0.49910  0.94281  1.0000
  C   C2861     1.0  0.52241  0.54967  0.90284  1.0000
  S   S384      1.0  0.57592  0.49894  0.87203  1.0000
  C   C2862     1.0  0.83068  0.54444  0.75782  1.0000
  H   H2281     1.0  0.78983  0.54152  0.87738  1.0000
  H   H2282     1.0  0.75728  0.55840  0.86452  1.0000
  H   H2283     1.0  0.75372  0.55927  0.83033  1.0000
  C   C2863     1.0  0.84977  0.52950  0.91102  1.0000
  C   C2864     1.0  0.93872  0.53808  0.75817  1.0000
  H   H2284     1.0  0.53615  0.58282  0.87884  1.0000
  C   C2865     1.0  0.50177  0.93138  0.78903  1.0000
  H   H2285     1.0  0.63554  0.66680  0.74148  1.0000
  H   H2286     1.0  0.90802  0.50129  0.85443  1.0000
  C   C2866     1.0  0.64529  0.50726  0.80227  1.0000
  H   H2287     1.0  0.51020  0.73558  0.79834  1.0000
  H   H2288     1.0  0.57039  0.50832  0.92887  1.0000
  C   C2867     1.0  0.50315  0.49260  0.87215  1.0000
  C   C2868     1.0  0.51443  0.51718  0.83923  1.0000
  C   C2869     1.0  0.54815  0.49490  0.97778  1.0000
  H   H2289     1.0  0.49388  0.71534  0.86828  1.0000
  H   H2290     1.0  0.52781  0.89440  0.73719  1.0000
  H   H2291     1.0  0.89170  0.62607  0.74101  1.0000
  H   H2292     1.0  0.65200  0.51525  0.77123  1.0000
  H   H2293     1.0  0.77861  0.50458  0.75418  1.0000
  C   C2870     1.0  0.49165  0.91303  0.83723  1.0000
  C   C2871     1.0  0.67570  0.49293  0.78185  1.0000
  H   H2294     1.0  0.50184  0.96618  0.74542  1.0000
  H   H2295     1.0  0.49405  0.79560  0.88905  1.0000
  H   H2296     1.0  0.50499  0.51922  0.92820  1.0000
  H   H2297     1.0  0.64092  0.49486  0.83276  1.0000
  C   C2872     1.0  0.71658  0.49679  0.89171  1.0000
  H   H2298     1.0  0.68447  0.49161  0.76760  1.0000
  H   H2299     1.0  0.57735  0.66321  0.74499  1.0000
  C   C2873     1.0  0.74868  0.57871  0.74388  1.0000
  H   H2300     1.0  0.78644  0.49124  0.92856  1.0000
  C   C2874     1.0  0.50383  0.53715  0.91991  1.0000
  C   C2875     1.0  0.49413  0.59060  0.80540  1.0000
  C   C2876     1.0  0.49176  0.56829  0.81907  1.0000
  C   C2877     1.0  0.48425  0.57187  0.91572  1.0000
  H   H2301     1.0  0.48270  0.76750  0.93683  1.0000
  H   H2302     1.0  0.48764  0.63177  0.83604  1.0000
  C   C2878     1.0  0.48794  0.59231  0.84459  1.0000
  C   C2879     1.0  0.97497  0.66021  0.75407  1.0000
  C   C2880     1.0  0.48148  0.75342  0.89840  1.0000
  H   H2303     1.0  0.48775  0.67678  0.85275  1.0000
  H   H2304     1.0  0.48189  0.61771  0.76139  1.0000
