data_image0
_chemical_formula_structural       C3H2CHC7H5C2H3PCHC2HCPHC3HC6H2C2HCHC2HCHCH2CHCHC3HCH2CHC3H4CHCHCH3CSC2H5FeCHCHFeH2PCHCH3C2H2CPHSCHSC3H2C2SC7FeCHC2HSCHCHC2HC2H2CFeC2HCSH2C3H2C2H3CSH2CHCH3C5SH3CHCH2C3HCHC3H2CPC2HC2H2C7H4C2HCHC2HCH2SCHC2HC4HSFeC2SC3FeC2HCPCSH2C4H5C4H2C4HCHCHS2CHCFeH2FeHCH4SCHC2H2C2H2CSHCSFe2C2SCH6PHCHCHCHC2H2CHCHCHC2HCHCSCH5FeCSC6FeCH2C2HSC3HPHC3H4C2SHFeC2H4C3HC2HC3SCPHSCHSCH2C2HPCHC2H2C2H3CFeCHCHC3HCFeHCH2CH2C4H2CSHCFeSHS2C2SFeC2HSCH2C3HCHSH3CSHCHCHFeHC2HC3PCH2CHCH2CFeC2SCH2C2HC2H2CHC6HSHCSH2C2H2Fe2CPHCS2FeC7HSHSH2CHCHC3HSH2C3HCHCH3CHC3H2C2SH2CHC2HCHSCSFeCHCH2CH3SH3FeCHC2HCFeSCH2CSC2HCHC2HCSFeHSCFeH2C5HCH2C2FeCHC2H4C2H2SC3H3C3HSCHCHCSCHPC3H4CH3CFeC2SHCSH2C3HC4HC2HC3H2C3H2CHC2HC4HCSH3C2HC2SC2HCSCSC4HC3H2CHCHPCFeC3H2C2HFeH3C3SHCH2CHCH2CH2C5SHFeH2FeCH2SH2SC2HCFeH2CHCSH2CHC2H5CH2FeH2SCHC2HC5SC2H3CPC6H2CHSHCHC6SHC4HC4S2H3C2H2CHCHCSC3HCHC8HC3H4CSCHSCH2C3H4CH2C2HC2H2CH2C2HC4HC5HPC3HCFeCHC2HCH2SHCHSCHFeC2PC2HCHCH3CHSC2H2C2HCHCH2C2HCH3C2HC6H3C4HC4HC3HC3H2C2H5CH2C4HC2H3C2HFeHSHSCH3CHC2SHCH3FeHC2HCHC3H6SC4HSCHCHCH3CFeC4H2C2HC7HCH2CH2CHC3HPC3H2C5HCHCP2H5CHC2
_chemical_formula_sum              "C600 H480 P20 S80 Fe40"
_cell_length_a       21.6793
_cell_length_b       29.4298
_cell_length_c       27.1301
_cell_angle_alpha    78.5835
_cell_angle_beta     82.9893
_cell_angle_gamma    107.132

_space_group_name_H-M_alt    "P 1"
_space_group_IT_number       1

loop_
  _space_group_symop_operation_xyz
  'x, y, z'

loop_
  _atom_site_type_symbol
  _atom_site_label
  _atom_site_symmetry_multiplicity
  _atom_site_fract_x
  _atom_site_fract_y
  _atom_site_fract_z
  _atom_site_occupancy
  C   C1        1.0  0.99728  0.25877  0.62044  1.0000
  C   C2        1.0  0.21858  0.99249  0.61387  1.0000
  C   C3        1.0  0.28973  0.33487  0.67596  1.0000
  H   H1        1.0  0.02312  0.96259  0.81951  1.0000
  H   H2        1.0  0.98943  0.18786  0.77671  1.0000
  C   C4        1.0  0.11433  0.23917  0.62984  1.0000
  H   H3        1.0  0.21052  0.10372  0.80296  1.0000
  C   C5        1.0  0.19369  0.13315  0.78549  1.0000
  C   C6        1.0  0.17281  0.97518  0.65980  1.0000
  C   C7        1.0  0.11962  0.16224  0.73716  1.0000
  C   C8        1.0  0.13972  0.12358  0.76102  1.0000
  C   C9        1.0  0.02675  0.06683  0.59683  1.0000
  C   C10       1.0  0.27554  0.97949  0.60974  1.0000
  C   C11       1.0  0.10712  0.44056  0.65075  1.0000
  H   H4        1.0  0.94879  0.05209  0.72973  1.0000
  H   H5        1.0  0.21694  0.39824  0.74218  1.0000
  H   H6        1.0  0.26829  0.18813  0.80668  1.0000
  H   H7        1.0  0.09190  0.37838  0.77004  1.0000
  H   H8        1.0  0.27753  0.11054  0.66150  1.0000
  C   C12       1.0  0.22686  0.18102  0.78730  1.0000
  C   C13       1.0  0.05683  0.29150  0.59075  1.0000
  H   H9        1.0  0.23065  0.25630  0.76800  1.0000
  H   H10       1.0  0.97852  0.41723  0.79200  1.0000
  H   H11       1.0  0.16740  0.12629  0.66174  1.0000
  P   P1        1.0  0.39929  0.30323  0.68420  1.0000
  C   C14       1.0  0.30230  0.37901  0.75800  1.0000
  H   H12       1.0  0.10209  0.44530  0.68938  1.0000
  C   C15       1.0  0.05471  0.20632  0.66021  1.0000
  C   C16       1.0  0.95813  0.15076  0.78001  1.0000
  H   H13       1.0  0.05906  0.33613  0.70255  1.0000
  C   C17       1.0  0.05686  0.41724  0.58036  1.0000
  P   P2        1.0  0.05316  0.14993  0.70212  1.0000
  H   H14       1.0  0.38942  0.36001  0.76203  1.0000
  C   C18       1.0  0.01469  0.09178  0.63395  1.0000
  C   C19       1.0  0.34823  0.35731  0.74267  1.0000
  C   C20       1.0  0.12730  0.10867  0.64519  1.0000
  H   H15       1.0  0.31755  0.26526  0.61393  1.0000
  C   C21       1.0  0.33280  0.15312  0.70718  1.0000
  C   C22       1.0  0.20580  0.21943  0.76526  1.0000
  C   C23       1.0  0.32018  0.23441  0.64164  1.0000
  C   C24       1.0  0.36195  0.20022  0.71364  1.0000
  C   C25       1.0  0.24480  0.35769  0.69065  1.0000
  C   C26       1.0  0.13959  0.08499  0.60727  1.0000
  H   H16       1.0  0.96730  0.09708  0.64114  1.0000
  H   H17       1.0  0.40447  0.07578  0.77549  1.0000
  C   C27       1.0  0.97689  0.12288  0.74837  1.0000
  C   C28       1.0  0.06495  0.11235  0.65900  1.0000
  H   H18       1.0  0.30768  0.39643  0.78949  1.0000
  C   C29       1.0  0.35594  0.24146  0.68079  1.0000
  H   H19       1.0  0.37982  0.03452  0.64906  1.0000
  C   C30       1.0  0.42380  0.28016  0.78316  1.0000
  C   C31       1.0  0.43973  0.37563  0.59140  1.0000
  H   H20       1.0  0.40671  0.39260  0.60718  1.0000
  C   C32       1.0  0.08935  0.06398  0.58304  1.0000
  H   H21       1.0  0.33833  0.12164  0.73213  1.0000
  C   C33       1.0  0.99618  0.21611  0.65461  1.0000
  H   H22       1.0  0.95175  0.26597  0.61643  1.0000
  H   H23       1.0  0.20642  0.35992  0.66899  1.0000
  C   C34       1.0  0.25079  0.37942  0.73189  1.0000
  H   H24       1.0  0.37092  0.26464  0.79556  1.0000
  C   C35       1.0  0.02904  0.32318  0.74079  1.0000
  H   H25       1.0  0.00286  0.41437  0.65356  1.0000
  C   C36       1.0  0.34151  0.33373  0.70232  1.0000
  C   C37       1.0  0.29799  0.14677  0.66771  1.0000
  C   C38       1.0  0.29111  0.18745  0.63535  1.0000
  H   H26       1.0  0.13536  0.24032  0.72546  1.0000
  C   C39       1.0  0.11537  0.28176  0.59549  1.0000
  H   H27       1.0  0.38992  0.20390  0.74370  1.0000
  H   H28       1.0  0.12827  0.98495  0.66263  1.0000
  C   C40       1.0  0.15166  0.21007  0.74108  1.0000
  H   H29       1.0  0.11472  0.08631  0.75945  1.0000
  C   C41       1.0  0.04762  0.34676  0.77921  1.0000
  C   C42       1.0  0.97003  0.28434  0.75088  1.0000
  C   C43       1.0  0.41964  0.02379  0.66251  1.0000
  H   H30       1.0  0.18886  0.08505  0.59512  1.0000
  H   H31       1.0  0.28460  0.31958  0.64315  1.0000
  H   H32       1.0  0.15976  0.23101  0.63119  1.0000
  H   H33       1.0  0.94950  0.19033  0.67562  1.0000
  C   C44       1.0  0.05081  0.42317  0.63041  1.0000
  H   H34       1.0  0.20955  0.01531  0.58096  1.0000
  C   C45       1.0  0.42442  0.97723  0.66283  1.0000
  H   H35       1.0  0.26492  0.18304  0.60415  1.0000
  C   C46       1.0  0.01696  0.44418  0.80293  1.0000
  H   H36       1.0  0.95410  0.26788  0.72039  1.0000
  H   H37       1.0  0.98908  0.05282  0.57591  1.0000
  H   H38       1.0  0.95910  0.02737  0.88258  1.0000
  C   C47       1.0  0.00344  0.20476  0.02900  1.0000
  S   S1        1.0  0.30164  0.14821  0.90356  1.0000
  C   C48       1.0  0.02075  0.08588  0.04853  1.0000
  C   C49       1.0  0.29586  0.05883  0.88672  1.0000
  H   H39       1.0  0.30505  0.41574  0.98115  1.0000
  H   H40       1.0  0.34990  0.37622  0.91934  1.0000
  H   H41       1.0  0.98060  0.09621  0.03503  1.0000
  H   H42       1.0  0.06200  0.37063  0.97558  1.0000
  H   H43       1.0  0.06454  0.20219  0.96278  1.0000
  Fe  Fe1       1.0  0.38250  0.19306  0.06260  1.0000
  C   C50       1.0  0.06974  0.96581  0.96833  1.0000
  H   H44       1.0  0.13010  0.02735  0.02180  1.0000
  C   C51       1.0  0.28422  0.00817  0.90197  1.0000
  H   H45       1.0  0.12144  0.24731  0.84585  1.0000
  Fe  Fe2       1.0  0.32226  0.18638  0.96689  1.0000
  H   H46       1.0  0.29381  0.98844  0.87389  1.0000
  H   H47       1.0  0.97396  0.28710  0.96894  1.0000
  P   P3        1.0  0.02685  0.36626  0.87529  1.0000
  C   C52       1.0  0.19522  0.33524  0.95005  1.0000
  H   H48       1.0  0.10506  0.05828  0.86120  1.0000
  C   C53       1.0  0.35486  0.41474  0.90782  1.0000
  H   H49       1.0  0.14112  0.33846  0.83760  1.0000
  H   H50       1.0  0.39559  0.95842  0.06927  1.0000
  H   H51       1.0  0.96308  0.11286  0.91097  1.0000
  C   C54       1.0  0.01534  0.13247  0.90255  1.0000
  C   C55       1.0  0.25951  0.98299  0.95345  1.0000
  H   H52       1.0  0.00323  0.19896  0.86163  1.0000
  H   H53       1.0  0.16059  0.12318  0.93127  1.0000
  C   C56       1.0  0.13213  0.99326  0.86548  1.0000
  P   P4        1.0  0.03206  0.04907  0.96248  1.0000
  H   H54       1.0  0.14942  0.35131  0.01636  1.0000
  S   S2        1.0  0.31191  0.26099  0.95758  1.0000
  C   C57       1.0  0.09408  0.35523  0.90365  1.0000
  H   H55       1.0  0.22773  0.98935  0.02946  1.0000
  S   S3        1.0  0.42606  0.21104  0.97896  1.0000
  C   C58       1.0  0.19284  0.33174  0.89964  1.0000
  C   C59       1.0  0.00747  0.33119  0.82824  1.0000
  C   C60       1.0  0.12022  0.23438  0.06606  1.0000
  H   H56       1.0  0.36372  0.01979  0.01136  1.0000
  H   H57       1.0  0.44145  0.26363  0.86017  1.0000
  C   C61       1.0  0.05974  0.11054  0.92198  1.0000
  C   C62       1.0  0.09814  0.35986  0.95380  1.0000
  S   S4        1.0  0.37789  0.26861  0.05915  1.0000
  C   C63       1.0  0.10468  0.04739  0.04077  1.0000
  C   C64       1.0  0.94970  0.29059  0.83865  1.0000
  C   C65       1.0  0.95443  0.34937  0.92472  1.0000
  C   C66       1.0  0.24689  0.00861  0.98965  1.0000
  C   C67       1.0  0.12620  0.13880  0.91452  1.0000
  C   C68       1.0  0.28532  0.08472  0.92318  1.0000
  C   C69       1.0  0.03790  0.18150  0.87446  1.0000
  Fe  Fe3       1.0  0.27674  0.23918  0.04303  1.0000
  C   C70       1.0  0.14247  0.34179  0.87639  1.0000
  H   H58       1.0  0.31423  0.07820  0.84689  1.0000
  C   C71       1.0  0.05138  0.05871  0.02325  1.0000
  C   C72       1.0  0.12166  0.22393  0.01812  1.0000
  H   H59       1.0  0.16757  0.22661  0.99524  1.0000
  S   S5        1.0  0.27897  0.16237  0.05125  1.0000
  C   C73       1.0  0.14830  0.18799  0.88741  1.0000
  H   H60       1.0  0.40756  0.42382  0.83303  1.0000
  C   C74       1.0  0.07316  0.01103  0.93741  1.0000
  H   H61       1.0  0.22945  0.32043  0.87907  1.0000
  C   C75       1.0  0.06353  0.21034  0.99937  1.0000
  C   C76       1.0  0.10445  0.20909  0.86639  1.0000
  H   H62       1.0  0.25338  0.07959  0.00290  1.0000
  C   C77       1.0  0.14806  0.34940  0.97698  1.0000
  C   C78       1.0  0.26147  0.05969  0.97467  1.0000
  H   H63       1.0  0.23272  0.32610  0.96898  1.0000
  H   H64       1.0  0.19944  0.20971  0.88342  1.0000
  C   C79       1.0  0.04833  0.43023  0.84291  1.0000
  Fe  Fe4       1.0  0.41332  0.28423  0.97470  1.0000
  C   C80       1.0  0.10361  0.02419  0.88569  1.0000
  C   C81       1.0  0.40963  0.01389  0.00009  1.0000
  H   H65       1.0  0.04714  0.95537  0.00852  1.0000
  C   C82       1.0  0.42809  0.97969  0.03321  1.0000
  S   S6        1.0  0.06244  0.44961  0.02091  1.0000
  H   H66       1.0  0.19371  0.44319  0.00351  1.0000
  H   H67       1.0  0.43656  0.06915  0.92952  1.0000
  C   C83       1.0  0.94616  0.01897  0.96468  1.0000
  C   C84       1.0  0.32992  0.43706  0.94272  1.0000
  C   C85       1.0  0.38899  0.44242  0.85884  1.0000
  H   H68       1.0  0.43828  0.38315  0.00387  1.0000
  H   H69       1.0  0.15749  0.00430  0.82592  1.0000
  C   C86       1.0  0.04433  0.10251  0.08967  1.0000
  C   C87       1.0  0.06265  0.36249  0.16225  1.0000
  H   H70       1.0  0.34805  0.42485  0.22474  1.0000
  H   H71       1.0  0.03958  0.02874  0.19966  1.0000
  H   H72       1.0  0.42063  0.03209  0.27134  1.0000
  C   C88       1.0  0.22490  0.32059  0.29175  1.0000
  S   S7        1.0  0.11288  0.96326  0.18823  1.0000
  H   H73       1.0  0.25773  0.02456  0.15415  1.0000
  H   H74       1.0  0.06794  0.35160  0.28839  1.0000
  C   C89       1.0  0.09054  0.19782  0.25795  1.0000
  H   H75       1.0  0.23782  0.37417  0.22016  1.0000
  C   C90       1.0  0.30688  0.30499  0.16309  1.0000
  H   H76       1.0  0.04680  0.20829  0.25653  1.0000
  H   H77       1.0  0.37030  0.04199  0.10643  1.0000
  H   H78       1.0  0.11049  0.32941  0.11242  1.0000
  C   C91       1.0  0.37713  0.96537  0.21634  1.0000
  C   C92       1.0  0.15188  0.14489  0.23808  1.0000
  C   C93       1.0  0.30827  0.34815  0.12972  1.0000
  C   C94       1.0  0.00823  0.99720  0.18971  1.0000
  C   C95       1.0  0.35124  0.37905  0.29638  1.0000
  S   S8        1.0  0.42120  0.15863  0.12831  1.0000
  H   H79       1.0  0.02520  0.39385  0.21980  1.0000
  H   H80       1.0  0.24426  0.23427  0.28578  1.0000
  H   H81       1.0  0.05854  0.23660  0.13362  1.0000
  C   C96       1.0  0.10046  0.33355  0.15110  1.0000
  H   H82       1.0  0.04250  0.37986  0.13222  1.0000
  C   C97       1.0  0.24005  0.08181  0.32575  1.0000
  H   H83       1.0  0.16963  0.05560  0.09492  1.0000
  H   H84       1.0  0.36186  0.26642  0.20404  1.0000
  C   C98       1.0  0.12546  0.30997  0.18974  1.0000
  C   C99       1.0  0.09440  0.15729  0.23968  1.0000
  C   C100      1.0  0.25921  0.36297  0.25257  1.0000
  H   H85       1.0  0.15544  0.11409  0.22303  1.0000
  C   C101      1.0  0.29099  0.00803  0.17143  1.0000
  H   H86       1.0  0.02136  0.12412  0.10854  1.0000
  C   C102      1.0  0.39734  0.99625  0.16663  1.0000
  C   C103      1.0  0.11253  0.31512  0.23997  1.0000
  C   C104      1.0  0.09912  0.09288  0.10533  1.0000
  H   H87       1.0  0.39984  0.40167  0.29839  1.0000
  H   H88       1.0  0.29104  0.10528  0.31420  1.0000
  C   C105      1.0  0.31367  0.95666  0.24357  1.0000
  P   P5        1.0  0.14280  0.28320  0.29022  1.0000
  C   C106      1.0  0.35433  0.01752  0.14439  1.0000
  C   C107      1.0  0.14426  0.22626  0.27496  1.0000
  H   H89       1.0  0.25091  0.16449  0.25179  1.0000
  C   C108      1.0  0.05221  0.36973  0.21159  1.0000
  C   C109      1.0  0.20141  0.21288  0.27404  1.0000
  H   H90       1.0  0.95483  0.21001  0.10084  1.0000
  H   H91       1.0  0.12744  0.99492  0.28819  1.0000
  C   C110      1.0  0.94535  0.99583  0.18105  1.0000
  C   C111      1.0  0.20545  0.17293  0.25484  1.0000
  C   C112      1.0  0.32217  0.39200  0.25496  1.0000
  C   C113      1.0  0.42486  0.33806  0.15810  1.0000
  C   C114      1.0  0.07679  0.34592  0.25042  1.0000
  C   C115      1.0  0.36465  0.30007  0.17783  1.0000
  C   C116      1.0  0.42602  0.38094  0.12358  1.0000
  H   H92       1.0  0.24226  0.05032  0.26102  1.0000
  H   H93       1.0  0.26330  0.35193  0.11866  1.0000
  H   H94       1.0  0.11861  0.10717  0.13610  1.0000
  H   H95       1.0  0.22119  0.96931  0.24160  1.0000
  C   C117      1.0  0.06004  0.22960  0.09594  1.0000
  C   C118      1.0  0.36773  0.38623  0.11028  1.0000
  H   H96       1.0  0.43921  0.15745  0.26321  1.0000
  C   C119      1.0  0.21267  0.05022  0.29619  1.0000
  H   H97       1.0  0.05354  0.13631  0.22534  1.0000
  C   C120      1.0  0.14744  0.01891  0.31186  1.0000
  C   C121      1.0  0.03144  0.95872  0.18359  1.0000
  H   H98       1.0  0.15454  0.28759  0.18022  1.0000
  C   C122      1.0  0.27048  0.97708  0.22074  1.0000
  H   H99       1.0  0.26102  0.27499  0.17683  1.0000
  H   H100      1.0  0.36844  0.41981  0.08492  1.0000
  S   S9        1.0  0.19367  0.25406  0.08810  1.0000
  C   C123      1.0  0.94455  0.08121  0.31412  1.0000
  H   H101      1.0  0.95169  0.11954  0.31240  1.0000
  C   C124      1.0  0.12816  0.06419  0.08180  1.0000
  C   C125      1.0  0.00138  0.21438  0.07754  1.0000
  H   H102      1.0  0.12448  0.42403  0.51204  1.0000
  C   C126      1.0  0.10609  0.30668  0.38202  1.0000
  C   C127      1.0  0.06447  0.29999  0.42842  1.0000
  C   C128      1.0  0.10905  0.01910  0.35742  1.0000
  C   C129      1.0  0.20180  0.08332  0.37022  1.0000
  H   H103      1.0  0.09964  0.04761  0.55193  1.0000
  S   S10       1.0  0.18014  0.21035  0.52794  1.0000
  Fe  Fe5       1.0  0.27786  0.20562  0.49662  1.0000
  C   C130      1.0  0.11991  0.16098  0.46115  1.0000
  C   C131      1.0  0.98766  0.22889  0.41220  1.0000
  S   S11       1.0  0.36543  0.09856  0.39949  1.0000
  C   C132      1.0  0.97224  0.37774  0.35796  1.0000
  C   C133      1.0  0.21972  0.97336  0.48061  1.0000
  C   C134      1.0  0.39535  0.43661  0.43482  1.0000
  Fe  Fe6       1.0  0.40192  0.19555  0.53225  1.0000
  C   C135      1.0  0.99339  0.14761  0.51280  1.0000
  C   C136      1.0  0.11217  0.18061  0.50352  1.0000
  H   H104      1.0  0.38157  0.35921  0.45838  1.0000
  C   C137      1.0  0.31112  0.00635  0.38836  1.0000
  P   P6        1.0  0.02436  0.97905  0.37796  1.0000
  C   C138      1.0  0.00093  0.12689  0.47130  1.0000
  S   S12       1.0  0.98676  0.39413  0.55484  1.0000
  H   H105      1.0  0.07471  0.42183  0.33408  1.0000
  H   H106      1.0  0.97371  0.25504  0.48001  1.0000
  C   C139      1.0  0.02434  0.42182  0.33849  1.0000
  C   C140      1.0  0.25449  0.30785  0.33328  1.0000
  C   C141      1.0  0.97488  0.00832  0.34247  1.0000
  C   C142      1.0  0.13664  0.05230  0.38594  1.0000
  H   H107      1.0  0.35713  0.43547  0.46513  1.0000
  H   H108      1.0  0.10830  0.05432  0.42056  1.0000
  H   H109      1.0  0.16127  0.30615  0.57101  1.0000
  H   H110      1.0  0.43209  0.11771  0.52878  1.0000
  H   H111      1.0  0.04266  0.19112  0.56015  1.0000
  C   C143      1.0  0.08967  0.27352  0.35096  1.0000
  C   C144      1.0  0.11954  0.42892  0.55065  1.0000
  C   C145      1.0  0.98468  0.05833  0.33848  1.0000
  C   C146      1.0  0.40915  0.39344  0.43100  1.0000
  H   H112      1.0  0.15107  0.33774  0.37071  1.0000
  H   H113      1.0  0.05744  0.32374  0.56312  1.0000
  C   C147      1.0  0.04892  0.17532  0.52805  1.0000
  C   C148      1.0  0.00533  0.26101  0.44355  1.0000
  C   C149      1.0  0.99772  0.97204  0.44552  1.0000
  C   C150      1.0  0.06421  0.13508  0.44441  1.0000
  H   H114      1.0  0.16864  0.16581  0.44131  1.0000
  C   C151      1.0  0.31740  0.33702  0.33548  1.0000
  H   H115      1.0  0.07828  0.32481  0.45288  1.0000
  C   C152      1.0  0.44233  0.96210  0.54818  1.0000
  H   H116      1.0  0.22875  0.27549  0.36413  1.0000
  S   S13       1.0  0.32052  0.21805  0.41364  1.0000
  S   S14       1.0  0.31006  0.14047  0.52322  1.0000
  C   C153      1.0  0.31038  0.03807  0.42044  1.0000
  H   H117      1.0  0.02256  0.07954  0.35509  1.0000
  C   C154      1.0  0.26476  0.02155  0.46676  1.0000
  Fe  Fe7       1.0  0.35952  0.15656  0.44140  1.0000
  H   H118      1.0  0.34591  0.01902  0.35247  1.0000
  H   H119      1.0  0.07030  0.12109  0.41102  1.0000
  Fe  Fe8       1.0  0.41072  0.26802  0.43173  1.0000
  H   H120      1.0  0.01547  0.20861  0.34355  1.0000
  C   C155      1.0  0.26539  0.95899  0.40144  1.0000
  H   H121      1.0  0.33988  0.32720  0.36770  1.0000
  H   H122      1.0  0.98270  0.34368  0.36825  1.0000
  H   H123      1.0  0.94480  0.14249  0.53315  1.0000
  H   H124      1.0  0.26389  0.04611  0.49134  1.0000
  S   S15       1.0  0.36592  0.25938  0.51267  1.0000
  C   C156      1.0  0.03930  0.96461  0.47997  1.0000
  H   H125      1.0  0.22328  0.10802  0.39300  1.0000
  C   C157      1.0  0.17596  0.44795  0.57038  1.0000
  C   C158      1.0  0.02981  0.23472  0.36637  1.0000
  H   H126      1.0  0.05146  0.95442  0.55869  1.0000
  H   H127      1.0  0.08721  0.96245  0.46635  1.0000
  C   C159      1.0  0.95682  0.96097  0.55048  1.0000
  C   C160      1.0  0.01918  0.95981  0.53218  1.0000
  H   H128      1.0  0.18421  0.96060  0.51613  1.0000
  H   H129      1.0  0.31068  0.99402  0.57377  1.0000
  C   C161      1.0  0.16967  0.45385  0.62044  1.0000
  S   S16       1.0  0.14558  0.86331  0.61108  1.0000
  H   H130      1.0  0.33612  0.65047  0.70314  1.0000
  C   C162      1.0  0.05808  0.54657  0.62869  1.0000
  S   S17       1.0  0.01466  0.77347  0.67841  1.0000
  Fe  Fe9       1.0  0.11583  0.78175  0.63985  1.0000
  Fe  Fe10      1.0  0.98480  0.76378  0.60420  1.0000
  C   C163      1.0  0.34101  0.78736  0.70398  1.0000
  C   C164      1.0  0.06619  0.81225  0.78265  1.0000
  S   S18       1.0  0.23935  0.47818  0.64562  1.0000
  C   C165      1.0  0.12775  0.81055  0.76272  1.0000
  H   H131      1.0  0.98022  0.59537  0.70470  1.0000
  H   H132      1.0  0.29989  0.47479  0.77816  1.0000
  H   H133      1.0  0.20395  0.77940  0.77595  1.0000
  H   H134      1.0  0.22623  0.58802  0.71290  1.0000
  H   H135      1.0  0.33770  0.75507  0.68966  1.0000
  H   H136      1.0  0.15078  0.82897  0.72319  1.0000
  P   P7        1.0  0.36087  0.93173  0.64493  1.0000
  H   H137      1.0  0.12562  0.54104  0.67975  1.0000
  C   C166      1.0  0.12046  0.55465  0.64102  1.0000
  H   H138      1.0  0.35247  0.90270  0.75561  1.0000
  C   C167      1.0  0.18357  0.94421  0.70160  1.0000
  H   H139      1.0  0.42783  0.62538  0.72972  1.0000
  C   C168      1.0  0.24035  0.93066  0.69754  1.0000
  H   H140      1.0  0.09626  0.56733  0.76987  1.0000
  C   C169      1.0  0.08315  0.52914  0.79018  1.0000
  C   C170      1.0  0.05164  0.56205  0.57812  1.0000
  H   H141      1.0  0.96669  0.57268  0.79635  1.0000
  H   H142      1.0  0.00942  0.50378  0.74655  1.0000
  C   C171      1.0  0.03444  0.49338  0.77681  1.0000
  H   H143      1.0  0.24727  0.90632  0.73018  1.0000
  C   C172      1.0  0.15777  0.78245  0.79257  1.0000
  H   H144      1.0  0.20898  0.50050  0.74984  1.0000
  C   C173      1.0  0.26630  0.57718  0.72569  1.0000
  H   H145      1.0  0.23873  0.66946  0.67689  1.0000
  C   C174      1.0  0.25644  0.52775  0.74675  1.0000
  C   C175      1.0  0.30838  0.51317  0.76194  1.0000
  H   H146      1.0  0.04224  0.83229  0.75823  1.0000
  C   C176      1.0  0.32810  0.61217  0.72009  1.0000
  H   H147      1.0  0.33557  0.75048  0.78206  1.0000
  C   C177      1.0  0.37080  0.54790  0.75598  1.0000
  S   S19       1.0  0.17848  0.74306  0.67773  1.0000
  C   C178      1.0  0.34554  0.83134  0.67023  1.0000
  H   H148      1.0  0.41273  0.50848  0.67865  1.0000
  H   H149      1.0  0.98274  0.67688  0.65718  1.0000
  H   H150      1.0  0.34618  0.83212  0.63016  1.0000
  H   H151      1.0  0.22473  0.58378  0.61218  1.0000
  H   H152      1.0  0.01439  0.52722  0.65784  1.0000
  Fe  Fe11      1.0  0.04110  0.85374  0.64370  1.0000
  C   C179      1.0  0.34346  0.82640  0.77455  1.0000
  S   S20       1.0  0.01165  0.90183  0.68998  1.0000
  C   C180      1.0  0.33979  0.78480  0.75607  1.0000
  C   C181      1.0  0.34857  0.87055  0.74084  1.0000
  C   C182      1.0  0.34938  0.87337  0.68838  1.0000
  C   C183      1.0  0.38032  0.59765  0.73500  1.0000
  C   C184      1.0  0.23149  0.73421  0.62930  1.0000
  C   C185      1.0  0.25472  0.69456  0.63948  1.0000
  Fe  Fe12      1.0  0.32406  0.52803  0.58357  1.0000
  C   C186      1.0  0.29722  0.68696  0.60110  1.0000
  H   H153      1.0  0.34240  0.82445  0.81497  1.0000
  H   H154      1.0  0.28633  0.88134  0.57775  1.0000
  C   C187      1.0  0.98239  0.92947  0.82357  1.0000
  C   C188      1.0  0.17646  0.57878  0.60283  1.0000
  H   H155      1.0  0.31426  0.65595  0.60902  1.0000
  S   S21       1.0  0.39015  0.59565  0.59970  1.0000
  C   C189      1.0  0.25154  0.76691  0.58087  1.0000
  C   C190      1.0  0.28663  0.94798  0.65139  1.0000
  C   C191      1.0  0.38176  0.93130  0.57850  1.0000
  H   H156      1.0  0.14686  0.92979  0.73664  1.0000
  P   P8        1.0  0.43581  0.52836  0.77900  1.0000
  H   H157      1.0  0.14389  0.56087  0.99611  1.0000
  C   C192      1.0  0.33347  0.79858  0.94450  1.0000
  C   C193      1.0  0.01197  0.63919  0.94278  1.0000
  C   C194      1.0  0.12687  0.46203  0.05496  1.0000
  H   H158      1.0  0.04095  0.73720  0.90128  1.0000
  H   H159      1.0  0.99280  0.63006  0.90972  1.0000
  H   H160      1.0  0.38575  0.81245  0.94339  1.0000
  H   H161      1.0  0.96425  0.66692  0.05356  1.0000
  C   C195      1.0  0.29978  0.83092  0.92856  1.0000
  C   C196      1.0  0.20247  0.55068  0.93211  1.0000
  S   S22       1.0  0.43065  0.72220  0.04046  1.0000
  H   H162      1.0  0.23284  0.58781  0.04942  1.0000
  Fe  Fe13      1.0  0.43930  0.64670  0.06483  1.0000
  C   C197      1.0  0.22492  0.61156  0.07345  1.0000
  C   C198      1.0  0.33882  0.48714  0.92852  1.0000
  H   H163      1.0  0.20553  0.83843  0.92067  1.0000
  H   H164      1.0  0.17686  0.51157  0.94100  1.0000
  H   H165      1.0  0.37778  0.55336  0.86890  1.0000
  H   H166      1.0  0.29242  0.69089  0.89860  1.0000
  C   C199      1.0  0.23186  0.81308  0.93152  1.0000
  C   C200      1.0  0.96777  0.54371  0.87553  1.0000
  C   C201      1.0  0.21650  0.62951  0.95232  1.0000
  H   H167      1.0  0.32036  0.50466  0.95585  1.0000
  C   C202      1.0  0.19756  0.76299  0.95050  1.0000
  C   C203      1.0  0.96798  0.78452  0.95301  1.0000
  H   H168      1.0  0.02004  0.56140  0.87197  1.0000
  C   C204      1.0  0.09705  0.93445  0.94788  1.0000
  C   C205      1.0  0.94908  0.77157  0.00628  1.0000
  C   C206      1.0  0.18404  0.57874  0.96340  1.0000
  S   S23       1.0  0.97658  0.53174  0.07042  1.0000
  C   C207      1.0  0.06512  0.75843  0.86290  1.0000
  P   P9        1.0  0.95004  0.78161  0.85415  1.0000
  H   H169      1.0  0.01498  0.81238  0.93536  1.0000
  S   S24       1.0  0.24498  0.91959  0.97189  1.0000
  C   C208      1.0  0.10152  0.65442  0.98992  1.0000
  H   H170      1.0  0.32472  0.64080  0.84434  1.0000
  S   S25       1.0  0.38452  0.58448  0.03378  1.0000
  C   C209      1.0  0.07666  0.64238  0.94693  1.0000
  H   H171      1.0  0.26608  0.55119  0.86454  1.0000
  H   H172      1.0  0.11966  0.45676  0.88874  1.0000
  C   C210      1.0  0.18619  0.45461  0.03859  1.0000
  C   C211      1.0  0.99590  0.66022  0.02389  1.0000
  H   H173      1.0  0.14947  0.73386  0.86522  1.0000
  P   P10       1.0  0.18786  0.66529  0.99125  1.0000
  C   C212      1.0  0.29929  0.74848  0.96394  1.0000
  H   H174      1.0  0.15227  0.92482  0.88157  1.0000
  C   C213      1.0  0.37253  0.51485  0.87939  1.0000
  C   C214      1.0  0.39889  0.49302  0.84424  1.0000
  H   H175      1.0  0.09619  0.90025  0.97231  1.0000
  H   H176      1.0  0.38820  0.80609  0.03262  1.0000
  C   C215      1.0  0.25300  0.57303  0.88922  1.0000
  C   C216      1.0  0.28555  0.62354  0.87769  1.0000
  H   H177      1.0  0.98162  0.78913  0.02924  1.0000
  H   H178      1.0  0.32575  0.72403  0.97787  1.0000
  H   H179      1.0  0.07679  0.67120  0.06282  1.0000
  C   C217      1.0  0.12670  0.75660  0.84274  1.0000
  Fe  Fe14      1.0  0.97381  0.45583  0.06781  1.0000
  C   C218      1.0  0.23125  0.73013  0.96601  1.0000
  H   H180      1.0  0.95299  0.51045  0.95605  1.0000
  C   C219      1.0  0.11352  0.51575  0.83060  1.0000
  H   H181      1.0  0.94442  0.89908  0.02050  1.0000
  C   C220      1.0  0.09619  0.46646  0.85709  1.0000
  C   C221      1.0  0.20276  0.65105  0.05576  1.0000
  C   C222      1.0  0.97204  0.64887  0.98089  1.0000
  H   H182      1.0  0.32576  0.87004  0.91553  1.0000
  C   C223      1.0  0.06010  0.66259  0.02883  1.0000
  Fe  Fe15      1.0  0.19819  0.88737  0.05513  1.0000
  H   H183      1.0  0.10733  0.63620  0.91611  1.0000
  C   C224      1.0  0.26728  0.65181  0.90895  1.0000
  H   H184      1.0  0.15001  0.54377  0.84153  1.0000
  H   H185      1.0  0.14475  0.75052  0.95386  1.0000
  C   C225      1.0  0.12862  0.94829  0.89658  1.0000
  H   H186      1.0  0.28107  0.45519  0.05589  1.0000
  H   H187      1.0  0.18139  0.71355  0.07480  1.0000
  C   C226      1.0  0.23543  0.46120  0.06823  1.0000
  C   C227      1.0  0.37430  0.78565  0.07215  1.0000
  C   C228      1.0  0.03414  0.78595  0.83271  1.0000
  C   C229      1.0  0.99195  0.88381  0.83357  1.0000
  H   H188      1.0  0.04007  0.88208  0.83845  1.0000
  H   H189      1.0  0.01194  0.86136  0.26926  1.0000
  C   C230      1.0  0.98671  0.60257  0.18491  1.0000
  S   S26       1.0  0.26742  0.79059  0.20248  1.0000
  H   H190      1.0  0.29744  0.93493  0.28270  1.0000
  C   C231      1.0  0.20754  0.67192  0.13789  1.0000
  Fe  Fe16      1.0  0.07576  0.81162  0.12697  1.0000
  S   S27       1.0  0.17153  0.80693  0.09091  1.0000
  H   H191      1.0  0.15714  0.49196  0.16656  1.0000
  S   S28       1.0  0.97686  0.75667  0.13341  1.0000
  S   S29       1.0  0.28350  0.47936  0.15388  1.0000
  C   C232      1.0  0.00083  0.68862  0.29856  1.0000
  C   C233      1.0  0.03953  0.64301  0.18584  1.0000
  S   S30       1.0  0.98856  0.54306  0.20644  1.0000
  Fe  Fe17      1.0  0.37743  0.53727  0.11147  1.0000
  C   C234      1.0  0.03707  0.69061  0.16939  1.0000
  C   C235      1.0  0.11799  0.47763  0.09995  1.0000
  H   H192      1.0  0.25626  0.57261  0.13628  1.0000
  S   S31       1.0  0.11067  0.82896  0.19731  1.0000
  C   C236      1.0  0.33698  0.85500  0.30140  1.0000
  H   H193      1.0  0.20111  0.69555  0.16266  1.0000
  H   H194      1.0  0.98529  0.72001  0.28633  1.0000
  C   C237      1.0  0.01096  0.86595  0.30797  1.0000
  C   C238      1.0  0.98905  0.91647  0.17451  1.0000
  C   C239      1.0  0.01726  0.91205  0.31714  1.0000
  H   H195      1.0  0.40756  0.84606  0.21995  1.0000
  C   C240      1.0  0.98077  0.69750  0.15349  1.0000
  H   H196      1.0  0.14019  0.65756  0.28491  1.0000
  S   S32       1.0  0.24252  0.91058  0.12036  1.0000
  H   H197      1.0  0.02210  0.94242  0.28555  1.0000
  H   H198      1.0  0.00529  0.88539  0.17260  1.0000
  H   H199      1.0  0.05157  0.49961  0.30595  1.0000
  C   C241      1.0  0.08902  0.65361  0.29731  1.0000
  S   S33       1.0  0.42610  0.60004  0.14422  1.0000
  H   H200      1.0  0.10224  0.72897  0.26282  1.0000
  C   C242      1.0  0.31944  0.77478  0.15910  1.0000
  H   H201      1.0  0.38717  0.68513  0.15106  1.0000
  C   C243      1.0  0.22844  0.63215  0.15547  1.0000
  H   H202      1.0  0.32609  0.71401  0.21486  1.0000
  Fe  Fe18      1.0  0.20893  0.83014  0.15868  1.0000
  H   H203      1.0  0.32266  0.83265  0.09525  1.0000
  C   C244      1.0  0.37479  0.71799  0.13903  1.0000
  C   C245      1.0  0.23820  0.60256  0.12299  1.0000
  H   H204      1.0  0.23836  0.62480  0.19388  1.0000
  C   C246      1.0  0.33754  0.80090  0.10772  1.0000
  C   C247      1.0  0.06744  0.69394  0.28483  1.0000
  C   C248      1.0  0.16565  0.48186  0.13071  1.0000
  P   P11       1.0  0.43507  0.94219  0.24669  1.0000
  C   C249      1.0  0.39369  0.89266  0.30318  1.0000
  H   H205      1.0  0.08235  0.63735  0.19897  1.0000
  H   H206      1.0  0.07363  0.48521  0.11207  1.0000
  C   C250      1.0  0.34008  0.73432  0.17512  1.0000
  H   H207      1.0  0.31600  0.85626  0.26707  1.0000
  C   C251      1.0  0.39090  0.74316  0.08728  1.0000
  H   H208      1.0  0.26179  0.63133  0.31482  1.0000
  H   H209      1.0  0.07829  0.72179  0.16991  1.0000
  C   C252      1.0  0.22436  0.47366  0.11494  1.0000
  Fe  Fe19      1.0  0.14056  0.90731  0.15347  1.0000
  C   C253      1.0  0.19577  0.68177  0.08808  1.0000
  C   C254      1.0  0.01143  0.46576  0.32322  1.0000
  S   S34       1.0  0.09892  0.88995  0.08532  1.0000
  C   C255      1.0  0.04428  0.60806  0.32456  1.0000
  H   H210      1.0  0.15021  0.80884  0.40569  1.0000
  H   H211      1.0  0.00407  0.80287  0.42915  1.0000
  C   C256      1.0  0.10775  0.58545  0.53931  1.0000
  C   C257      1.0  0.25294  0.56473  0.36945  1.0000
  H   H212      1.0  0.18227  0.65341  0.37046  1.0000
  C   C258      1.0  0.17784  0.54663  0.44991  1.0000
  C   C259      1.0  0.38834  0.85036  0.39112  1.0000
  H   H213      1.0  0.15495  0.52267  0.48756  1.0000
  H   H214      1.0  0.01512  0.88342  0.44545  1.0000
  C   C260      1.0  0.96473  0.58063  0.47814  1.0000
  H   H215      1.0  0.23367  0.79769  0.57283  1.0000
  C   C261      1.0  0.01767  0.91919  0.36665  1.0000
  C   C262      1.0  0.00653  0.83307  0.39783  1.0000
  C   C263      1.0  0.22295  0.53434  0.41816  1.0000
  C   C264      1.0  0.01292  0.87925  0.40696  1.0000
  C   C265      1.0  0.97789  0.60280  0.33916  1.0000
  C   C266      1.0  0.13952  0.76962  0.41954  1.0000
  H   H216      1.0  0.17605  0.68827  0.50881  1.0000
  S   S35       1.0  0.00466  0.84369  0.57128  1.0000
  H   H217      1.0  0.05352  0.66180  0.39693  1.0000
  C   C267      1.0  0.94866  0.49205  0.44998  1.0000
  S   S36       1.0  0.31039  0.56843  0.50881  1.0000
  H   H218      1.0  0.05180  0.50788  0.44570  1.0000
  H   H219      1.0  0.22426  0.45765  0.54699  1.0000
  C   C268      1.0  0.31726  0.71941  0.55259  1.0000
  C   C269      1.0  0.17018  0.59495  0.55229  1.0000
  H   H220      1.0  0.38837  0.62597  0.35097  1.0000
  H   H221      1.0  0.34941  0.69035  0.37782  1.0000
  Fe  Fe20      1.0  0.38184  0.63492  0.52250  1.0000
  Fe  Fe21      1.0  0.10721  0.84704  0.54137  1.0000
  C   C270      1.0  0.16669  0.75163  0.46009  1.0000
  P   P12       1.0  0.10034  0.60302  0.47332  1.0000
  H   H222      1.0  0.31175  0.78590  0.50587  1.0000
  C   C271      1.0  0.01122  0.52145  0.45271  1.0000
  S   S37       1.0  0.16175  0.88315  0.46078  1.0000
  S   S38       1.0  0.40695  0.50683  0.54797  1.0000
  Fe  Fe22      1.0  0.39816  0.55227  0.47430  1.0000
  C   C272      1.0  0.42889  0.48060  0.39787  1.0000
  C   C273      1.0  0.40136  0.69464  0.37184  1.0000
  C   C274      1.0  0.08493  0.68655  0.41483  1.0000
  C   C275      1.0  0.19293  0.62003  0.38425  1.0000
  C   C276      1.0  0.21946  0.94240  0.44737  1.0000
  C   C277      1.0  0.29543  0.76002  0.54285  1.0000
  C   C278      1.0  0.16206  0.58936  0.43313  1.0000
  H   H223      1.0  0.21398  0.61437  0.52317  1.0000
  S   S39       1.0  0.36881  0.70938  0.50376  1.0000
  H   H224      1.0  0.96972  0.61351  0.49168  1.0000
  S   S40       1.0  0.40831  0.53393  0.39812  1.0000
  H   H225      1.0  0.19763  0.77708  0.47801  1.0000
  H   H226      1.0  0.00273  0.55488  0.56974  1.0000
  C   C279      1.0  0.33305  0.81248  0.38830  1.0000
  H   H227      1.0  0.26411  0.78580  0.34129  1.0000
  C   C280      1.0  0.34634  0.90860  0.50247  1.0000
  H   H228      1.0  0.41487  0.94525  0.43121  1.0000
  C   C281      1.0  0.09876  0.73707  0.39685  1.0000
  C   C282      1.0  0.33400  0.90433  0.55527  1.0000
  C   C283      1.0  0.40642  0.94011  0.47239  1.0000
  H   H229      1.0  0.40780  0.84844  0.42618  1.0000
  S   S41       1.0  0.08405  0.76565  0.56805  1.0000
  H   H230      1.0  0.30835  0.88883  0.48463  1.0000
  H   H231      1.0  0.23553  0.50157  0.43158  1.0000
  C   C284      1.0  0.15372  0.70107  0.47770  1.0000
  C   C285      1.0  0.42317  0.65830  0.35705  1.0000
  C   C286      1.0  0.00522  0.82638  0.34834  1.0000
  H   H232      1.0  0.31044  0.78094  0.42060  1.0000
  C   C287      1.0  0.02005  0.56638  0.46621  1.0000
  H   H233      1.0  0.07864  0.75109  0.36493  1.0000
  C   C288      1.0  0.11267  0.66806  0.45497  1.0000
  H   H234      1.0  0.42948  0.76363  0.39256  1.0000
  H   H235      1.0  0.06089  0.57670  0.33401  1.0000
  H   H236      1.0  0.26541  0.93520  0.37573  1.0000
  C   C289      1.0  0.23808  0.60764  0.35251  1.0000
  H   H237      1.0  0.94775  0.67616  0.41326  1.0000
  C   C290      1.0  0.94655  0.46585  0.32888  1.0000
  C   C291      1.0  0.30717  0.81498  0.34357  1.0000
  C   C292      1.0  0.41868  0.89033  0.34872  1.0000
  H   H238      1.0  0.28833  0.55511  0.34523  1.0000
  H   H239      1.0  0.00101  0.79089  0.34100  1.0000
  C   C293      1.0  0.95534  0.64287  0.32596  1.0000
  C   C294      1.0  0.44671  0.33282  0.62019  1.0000
  S   S42       1.0  0.69329  0.27240  0.72437  1.0000
  H   H240      1.0  0.73222  0.04997  0.75522  1.0000
  H   H241      1.0  0.49350  0.27733  0.61864  1.0000
  C   C295      1.0  0.51913  0.44369  0.67729  1.0000
  H   H242      1.0  0.56394  0.21087  0.74652  1.0000
  C   C296      1.0  0.72732  0.22708  0.71557  1.0000
  C   C297      1.0  0.52089  0.32063  0.71628  1.0000
  H   H243      1.0  0.61189  0.17456  0.81552  1.0000
  C   C298      1.0  0.69653  0.19053  0.69203  1.0000
  H   H244      1.0  0.46388  0.09389  0.67756  1.0000
  S   S43       1.0  0.86582  0.37616  0.68628  1.0000
  C   C299      1.0  0.78768  0.15897  0.69584  1.0000
  S   S44       1.0  0.85288  0.03665  0.59857  1.0000
  Fe  Fe23      1.0  0.79306  0.08194  0.62098  1.0000
  C   C300      1.0  0.48827  0.31088  0.59752  1.0000
  H   H245      1.0  0.58117  0.16898  0.61440  1.0000
  C   C301      1.0  0.87481  0.05614  0.78689  1.0000
  H   H246      1.0  0.81069  0.34701  0.80836  1.0000
  H   H247      1.0  0.80389  0.23108  0.59510  1.0000
  C   C302      1.0  0.56536  0.15291  0.80863  1.0000
  H   H248      1.0  0.61351  0.33456  0.74180  1.0000
  H   H249      1.0  0.65044  0.18962  0.68013  1.0000
  H   H250      1.0  0.68900  0.09943  0.80495  1.0000
  S   S45       1.0  0.82964  0.11979  0.68051  1.0000
  H   H251      1.0  0.84132  0.02035  0.78780  1.0000
  H   H252      1.0  0.46425  0.16124  0.72359  1.0000
  H   H253      1.0  0.55860  0.07310  0.70646  1.0000
  Fe  Fe24      1.0  0.89404  0.39613  0.60053  1.0000
  C   C303      1.0  0.66351  0.06026  0.81279  1.0000
  H   H254      1.0  0.91381  0.96799  0.80879  1.0000
  C   C304      1.0  0.53900  0.17355  0.76888  1.0000
  C   C305      1.0  0.68796  0.03248  0.78422  1.0000
  H   H255      1.0  0.81064  0.25696  0.74863  1.0000
  C   C306      1.0  0.93082  0.26766  0.79989  1.0000
  Fe  Fe25      1.0  0.75647  0.97861  0.60586  1.0000
  S   S46       1.0  0.69677  0.02177  0.63380  1.0000
  C   C307      1.0  0.44887  0.09755  0.78514  1.0000
  H   H256      1.0  0.64036  0.11530  0.58502  1.0000
  H   H257      1.0  0.57061  0.42722  0.73780  1.0000
  C   C308      1.0  0.78707  0.22863  0.73054  1.0000
  S   S47       1.0  0.73765  0.41315  0.67124  1.0000
  C   C309      1.0  0.89832  0.13137  0.81506  1.0000
  C   C310      1.0  0.48172  0.14567  0.75646  1.0000
  H   H258      1.0  0.54462  0.33695  0.67659  1.0000
  C   C311      1.0  0.52090  0.04606  0.69492  1.0000
  H   H259      1.0  0.86241  0.19492  0.73350  1.0000
  C   C312      1.0  0.56197  0.14668  0.58895  1.0000
  C   C313      1.0  0.53180  0.29925  0.80499  1.0000
  H   H260      1.0  0.94116  0.95725  0.59077  1.0000
  C   C314      1.0  0.46734  0.05772  0.67899  1.0000
  S   S48       1.0  0.45856  0.18274  0.59452  1.0000
  Fe  Fe26      1.0  0.76266  0.34401  0.67540  1.0000
  H   H261      1.0  0.70460  0.12945  0.66184  1.0000
  S   S49       1.0  0.79234  0.35722  0.59036  1.0000
  C   C315      1.0  0.72715  0.15665  0.68161  1.0000
  Fe  Fe27      1.0  0.77417  0.42879  0.58648  1.0000
  H   H262      1.0  0.54221  0.42660  0.65195  1.0000
  H   H263      1.0  0.88471  0.23785  0.80753  1.0000
  C   C316      1.0  0.81647  0.19391  0.72166  1.0000
  C   C317      1.0  0.65448  0.98246  0.79188  1.0000
  C   C318      1.0  0.85621  0.08438  0.81791  1.0000
  C   C319      1.0  0.47922  0.96605  0.67765  1.0000
  C   C320      1.0  0.52685  0.00021  0.69418  1.0000
  H   H264      1.0  0.82466  0.96177  0.69112  1.0000
  C   C321      1.0  0.56044  0.31964  0.75326  1.0000
  H   H265      1.0  0.56892  0.99147  0.70568  1.0000
  H   H266      1.0  0.67317  0.96141  0.76883  1.0000
  C   C322      1.0  0.93555  0.07482  0.75304  1.0000
  C   C323      1.0  0.45206  0.30103  0.73094  1.0000
  Fe  Fe28      1.0  0.84344  0.44654  0.67559  1.0000
  C   C324      1.0  0.47462  0.07683  0.82521  1.0000
  H   H267      1.0  0.70071  0.44439  0.79610  1.0000
  C   C325      1.0  0.53575  0.44466  0.72520  1.0000
  C   C326      1.0  0.46354  0.27938  0.81993  1.0000
  H   H268      1.0  0.93558  0.96406  0.70730  1.0000
  H   H269      1.0  0.63687  0.37322  0.92519  1.0000
  H   H270      1.0  0.80021  0.95988  0.04785  1.0000
  H   H271      1.0  0.61983  0.29241  0.90652  1.0000
  C   C327      1.0  0.50176  0.40637  0.92960  1.0000
  C   C328      1.0  0.90969  0.37542  0.92132  1.0000
  H   H272      1.0  0.87464  0.26266  0.03573  1.0000
  H   H273      1.0  0.56015  0.31603  0.99969  1.0000
  S   S50       1.0  0.87055  0.43343  0.05351  1.0000
  C   C329      1.0  0.61790  0.28883  0.04985  1.0000
  C   C330      1.0  0.90117  0.99883  0.01132  1.0000
  C   C331      1.0  0.83490  0.97485  0.01171  1.0000
  H   H274      1.0  0.64358  0.27677  0.02094  1.0000
  H   H275      1.0  0.73714  0.40274  0.99188  1.0000
  H   H276      1.0  0.50147  0.34339  0.06480  1.0000
  C   C332      1.0  0.53203  0.00284  0.97476  1.0000
  C   C333      1.0  0.69037  0.10796  0.91575  1.0000
  C   C334      1.0  0.57104  0.31102  0.03783  1.0000
  H   H277      1.0  0.70012  0.07589  0.90785  1.0000
  S   S51       1.0  0.79796  0.05866  0.05980  1.0000
  C   C335      1.0  0.63244  0.11739  0.90625  1.0000
  H   H278      1.0  0.84189  0.98445  0.88424  1.0000
  C   C336      1.0  0.78422  0.39805  0.84673  1.0000
  H   H279      1.0  0.88379  0.15314  0.83919  1.0000
  C   C337      1.0  0.46864  0.41410  0.97318  1.0000
  S   S52       1.0  0.93136  0.18219  0.00596  1.0000
  C   C338      1.0  0.81349  0.97045  0.96583  1.0000
  H   H280      1.0  0.81867  0.38097  0.95574  1.0000
  P   P13       1.0  0.57099  0.07465  0.88335  1.0000
  C   C339      1.0  0.57129  0.98772  0.85672  1.0000
  C   C340      1.0  0.73567  0.40566  0.88038  1.0000
  C   C341      1.0  0.52922  0.09876  0.04634  1.0000
  H   H281      1.0  0.58096  0.00051  0.96688  1.0000
  H   H282      1.0  0.79653  0.30975  0.02993  1.0000
  H   H283      1.0  0.77869  0.13082  0.94652  1.0000
  H   H284      1.0  0.56763  0.44028  0.85719  1.0000
  C   C342      1.0  0.88418  0.29413  0.00377  1.0000
  H   H285      1.0  0.91677  0.00155  0.04740  1.0000
  H   H286      1.0  0.52466  0.97017  0.88313  1.0000
  H   H287      1.0  0.45221  0.12966  0.03579  1.0000
  C   C343      1.0  0.94079  0.30828  0.96595  1.0000
  Fe  Fe29      1.0  0.85437  0.13100  0.07165  1.0000
  C   C344      1.0  0.45139  0.04181  0.95360  1.0000
  C   C345      1.0  0.53306  0.10437  0.83729  1.0000
  S   S53       1.0  0.49405  0.34748  0.92153  1.0000
  H   H288      1.0  0.56246  0.29895  0.83354  1.0000
  C   C346      1.0  0.85272  0.36076  0.95884  1.0000
  S   S54       1.0  0.62253  0.05537  0.06021  1.0000
  H   H289      1.0  0.53289  0.09094  0.00932  1.0000
  H   H290      1.0  0.91830  0.40701  0.88995  1.0000
  C   C347      1.0  0.61921  0.15754  0.92022  1.0000
  C   C348      1.0  0.48447  0.12166  0.06101  1.0000
  C   C349      1.0  0.85848  0.98880  0.91953  1.0000
  H   H291      1.0  0.75504  0.20176  0.97011  1.0000
  C   C350      1.0  0.72149  0.17884  0.95144  1.0000
  C   C351      1.0  0.67623  0.36733  0.90135  1.0000
  C   C352      1.0  0.84013  0.32046  0.00032  1.0000
  C   C353      1.0  0.66623  0.32156  0.89033  1.0000
  H   H292      1.0  0.65205  0.21798  0.95497  1.0000
  C   C354      1.0  0.73492  0.13885  0.93790  1.0000
  C   C355      1.0  0.51283  0.03600  0.94035  1.0000
  H   H293      1.0  0.80882  0.07017  0.84362  1.0000
  C   C356      1.0  0.48947  0.97437  0.02070  1.0000
  C   C357      1.0  0.66361  0.18810  0.94271  1.0000
  C   C358      1.0  0.71479  0.31413  0.85698  1.0000
  H   H294      1.0  0.91785  0.27745  0.87604  1.0000
  H   H295      1.0  0.57339  0.16414  0.91556  1.0000
  C   C359      1.0  0.60572  0.03781  0.85014  1.0000
  C   C360      1.0  0.67576  0.42156  0.04641  1.0000
  C   C361      1.0  0.70700  0.42537  0.99681  1.0000
  H   H296      1.0  0.44970  0.03897  0.84598  1.0000
  H   H297      1.0  0.76213  0.95294  0.96601  1.0000
  C   C362      1.0  0.63408  0.44876  0.05402  1.0000
  H   H298      1.0  0.82927  0.42768  0.82806  1.0000
  C   C363      1.0  0.92466  0.01294  0.91885  1.0000
  C   C364      1.0  0.77377  0.35237  0.83524  1.0000
  H   H299      1.0  0.70616  0.27920  0.84688  1.0000
  C   C365      1.0  0.54067  0.44642  0.89004  1.0000
  C   C366      1.0  0.59605  0.96007  0.82810  1.0000
  C   C367      1.0  0.53719  0.32615  0.07525  1.0000
  C   C368      1.0  0.71909  0.20726  0.25921  1.0000
  H   H300      1.0  0.64776  0.03464  0.28488  1.0000
  C   C369      1.0  0.68933  0.34159  0.31399  1.0000
  S   S55       1.0  0.71586  0.03272  0.17601  1.0000
  H   H301      1.0  0.92902  0.02658  0.18372  1.0000
  H   H302      1.0  0.66701  0.26428  0.10921  1.0000
  H   H303      1.0  0.51721  0.12865  0.17917  1.0000
  C   C370      1.0  0.46183  0.23383  0.22670  1.0000
  C   C371      1.0  0.57694  0.07213  0.29113  1.0000
  H   H304      1.0  0.60998  0.44636  0.09218  1.0000
  C   C372      1.0  0.45823  0.19475  0.26697  1.0000
  C   C373      1.0  0.51272  0.07093  0.28798  1.0000
  S   S56       1.0  0.82665  0.95315  0.15542  1.0000
  C   C374      1.0  0.80771  0.22568  0.18704  1.0000
  C   C375      1.0  0.90417  0.95471  0.16924  1.0000
  H   H305      1.0  0.86409  0.07253  0.27345  1.0000
  C   C376      1.0  0.76512  0.19281  0.23122  1.0000
  S   S57       1.0  0.75024  0.34557  0.18034  1.0000
  C   C377      1.0  0.54899  0.31824  0.12545  1.0000
  S   S58       1.0  0.76492  0.14615  0.10415  1.0000
  C   C378      1.0  0.48596  0.28237  0.23113  1.0000
  C   C379      1.0  0.55452  0.99354  0.26986  1.0000
  C   C380      1.0  0.75751  0.28724  0.19910  1.0000
  C   C381      1.0  0.89041  0.30215  0.29091  1.0000
  H   H306      1.0  0.91243  0.20167  0.25764  1.0000
  C   C382      1.0  0.89493  0.05460  0.29262  1.0000
  C   C383      1.0  0.90929  0.27353  0.26050  1.0000
  C   C384      1.0  0.50628  0.29115  0.27652  1.0000
  H   H307      1.0  0.83849  0.29914  0.13808  1.0000
  H   H308      1.0  0.67650  0.34382  0.27642  1.0000
  C   C385      1.0  0.61399  0.39899  0.19118  1.0000
  H   H309      1.0  0.63935  0.37468  0.18109  1.0000
  C   C386      1.0  0.71379  0.25373  0.24216  1.0000
  H   H310      1.0  0.68632  0.18219  0.29336  1.0000
  P   P14       1.0  0.50063  0.33244  0.17585  1.0000
  C   C387      1.0  0.92334  0.98142  0.32224  1.0000
  Fe  Fe30      1.0  0.80965  0.02610  0.13849  1.0000
  C   C388      1.0  0.49050  0.99271  0.26489  1.0000
  C   C389      1.0  0.50445  0.25213  0.31606  1.0000
  C   C390      1.0  0.74766  0.33297  0.32255  1.0000
  H   H311      1.0  0.46246  0.41223  0.20732  1.0000
  H   H312      1.0  0.60649  0.28911  0.17557  1.0000
  C   C391      1.0  0.80495  0.27344  0.17161  1.0000
  C   C392      1.0  0.56612  0.09773  0.12696  1.0000
  H   H313      1.0  0.52498  0.32799  0.28141  1.0000
  Fe  Fe31      1.0  0.70949  0.07103  0.09790  1.0000
  H   H314      1.0  0.84690  0.98442  0.27900  1.0000
  H   H315      1.0  0.67602  0.26373  0.26286  1.0000
  H   H316      1.0  0.55664  0.98916  0.16815  1.0000
  C   C393      1.0  0.48054  0.20397  0.31137  1.0000
  C   C394      1.0  0.63096  0.28169  0.09943  1.0000
  C   C395      1.0  0.56964  0.08638  0.07918  1.0000
  S   S59       1.0  0.87372  0.09796  0.14757  1.0000
  H   H317      1.0  0.59746  0.08845  0.15264  1.0000
  C   C396      1.0  0.52065  0.12034  0.14203  1.0000
  H   H318      1.0  0.89841  0.34041  0.27365  1.0000
  H   H319      1.0  0.49646  0.10079  0.29545  1.0000
  C   C397      1.0  0.54664  0.38841  0.19079  1.0000
  H   H320      1.0  0.44678  0.00506  0.14546  1.0000
  C   C398      1.0  0.89941  0.22411  0.28163  1.0000
  H   H321      1.0  0.84365  0.21463  0.16545  1.0000
  H   H322      1.0  0.57158  0.96405  0.26308  1.0000
  C   C399      1.0  0.59647  0.29604  0.13711  1.0000
  H   H323      1.0  0.93033  0.28941  0.22017  1.0000
  H   H324      1.0  0.61082  0.10325  0.30009  1.0000
  C   C400      1.0  0.59771  0.03332  0.28244  1.0000
  C   C401      1.0  0.88457  0.00477  0.29651  1.0000
  C   C402      1.0  0.64909  0.44102  0.20511  1.0000
  C   C403      1.0  0.51471  0.42015  0.20551  1.0000
  C   C404      1.0  0.46972  0.03160  0.27457  1.0000
  S   S60       1.0  0.76737  0.13302  0.25064  1.0000
  H   H325      1.0  0.77934  0.32877  0.29101  1.0000
  Fe  Fe32      1.0  0.77926  0.10703  0.17955  1.0000
  H   H326      1.0  0.61801  0.95726  0.10903  1.0000
  H   H327      1.0  0.47194  0.41053  0.10735  1.0000
  Fe  Fe33      1.0  0.83967  0.40877  0.13878  1.0000
  C   C405      1.0  0.47974  0.13224  0.10897  1.0000
  H   H328      1.0  0.68366  0.39733  0.07891  1.0000
  H   H329      1.0  0.44733  0.22632  0.19154  1.0000
  S   S61       1.0  0.94248  0.42473  0.15305  1.0000
  H   H330      1.0  0.70095  0.44872  0.20544  1.0000
  H   H331      1.0  0.53135  0.44052  0.32554  1.0000
  S   S62       1.0  0.75300  0.00400  0.52343  1.0000
  C   C406      1.0  0.66073  0.05207  0.39311  1.0000
  C   C407      1.0  0.45802  0.39482  0.39129  1.0000
  H   H332      1.0  0.84466  0.42289  0.35215  1.0000
  C   C408      1.0  0.85083  0.23152  0.36372  1.0000
  Fe  Fe34      1.0  0.69970  0.05152  0.55051  1.0000
  H   H333      1.0  0.62418  0.07046  0.39164  1.0000
  H   H334      1.0  0.52214  0.25954  0.35021  1.0000
  C   C409      1.0  0.81125  0.24751  0.55453  1.0000
  H   H335      1.0  0.63143  0.35029  0.43269  1.0000
  C   C410      1.0  0.93517  0.97328  0.46432  1.0000
  S   S63       1.0  0.93121  0.09119  0.45302  1.0000
  H   H336      1.0  0.86236  0.16477  0.34931  1.0000
  H   H337      1.0  0.73563  0.23737  0.45283  1.0000
  C   C411      1.0  0.76443  0.33006  0.37117  1.0000
  H   H338      1.0  0.50104  0.99135  0.47211  1.0000
  C   C412      1.0  0.90688  0.37746  0.36274  1.0000
  C   C413      1.0  0.52275  0.33161  0.54710  1.0000
  H   H339      1.0  0.90401  0.30121  0.55253  1.0000
  H   H340      1.0  0.55391  0.31392  0.52978  1.0000
  H   H341      1.0  0.86654  0.96832  0.53112  1.0000
  H   H342      1.0  0.90208  0.97915  0.43880  1.0000
  H   H343      1.0  0.47956  0.98399  0.56486  1.0000
  C   C414      1.0  0.86793  0.28696  0.53048  1.0000
  H   H344      1.0  0.60261  0.35422  0.34659  1.0000
  H   H345      1.0  0.54213  0.39018  0.47954  1.0000
  Fe  Fe35      1.0  0.84450  0.06643  0.51821  1.0000
  H   H346      1.0  0.71923  0.19982  0.54519  1.0000
  H   H347      1.0  0.73215  0.44040  0.32888  1.0000
  S   S64       1.0  0.61006  0.04981  0.51785  1.0000
  C   C415      1.0  0.47810  0.11831  0.54040  1.0000
  H   H348      1.0  0.49343  0.06852  0.49609  1.0000
  C   C416      1.0  0.72270  0.33737  0.41065  1.0000
  C   C417      1.0  0.72691  0.07951  0.38737  1.0000
  H   H349      1.0  0.47958  0.17391  0.34213  1.0000
  C   C418      1.0  0.47489  0.39661  0.54113  1.0000
  C   C419      1.0  0.87732  0.30909  0.47836  1.0000
  C   C420      1.0  0.57061  0.08833  0.53874  1.0000
  C   C421      1.0  0.68831  0.97691  0.40686  1.0000
  C   C422      1.0  0.64734  0.34729  0.35373  1.0000
  S   S65       1.0  0.79094  0.11621  0.53975  1.0000
  C   C423      1.0  0.64147  0.00100  0.40226  1.0000
  C   C424      1.0  0.51242  0.08969  0.52248  1.0000
  H   H350      1.0  0.73527  0.33701  0.44815  1.0000
  H   H351      1.0  0.92101  0.34035  0.46128  1.0000
  H   H352      1.0  0.82856  0.21427  0.40351  1.0000
  C   C425      1.0  0.77403  0.05586  0.39087  1.0000
  P   P15       1.0  0.84036  0.31973  0.38238  1.0000
  C   C426      1.0  0.76366  0.22997  0.52639  1.0000
  C   C427      1.0  0.91479  0.96742  0.51671  1.0000
  C   C428      1.0  0.77316  0.25148  0.47407  1.0000
  C   C429      1.0  0.51609  0.37448  0.51888  1.0000
  C   C430      1.0  0.83019  0.29122  0.44959  1.0000
  C   C431      1.0  0.87029  0.20316  0.33317  1.0000
  H   H353      1.0  0.74137  0.11907  0.38041  1.0000
  H   H354      1.0  0.58992  0.98034  0.40659  1.0000
  C   C432      1.0  0.66400  0.34537  0.40204  1.0000
  H   H355      1.0  0.82526  0.07699  0.38729  1.0000
  S   S66       1.0  0.47474  0.34175  0.38254  1.0000
  H   H356      1.0  0.46954  0.42966  0.51894  1.0000
  C   C433      1.0  0.75500  0.00477  0.40019  1.0000
  H   H357      1.0  0.79249  0.98745  0.40303  1.0000
  C   C434      1.0  0.49329  0.43932  0.35593  1.0000
  C   C435      1.0  0.89441  0.42197  0.34888  1.0000
  C   C436      1.0  0.86095  0.28140  0.34287  1.0000
  C   C437      1.0  0.50289  0.14711  0.57325  1.0000
  C   C438      1.0  0.45468  0.96633  0.49535  1.0000
  C   C439      1.0  0.59555  0.11666  0.57213  1.0000
  S   S67       1.0  0.45362  0.20793  0.45193  1.0000
  H   H358      1.0  0.94211  0.19828  0.42439  1.0000
  C   C440      1.0  0.68596  0.50928  0.75600  1.0000
  C   C441      1.0  0.69373  0.51450  0.58205  1.0000
  C   C442      1.0  0.54955  0.60327  0.72443  1.0000
  C   C443      1.0  0.57267  0.64670  0.80592  1.0000
  H   H359      1.0  0.70346  0.61314  0.79738  1.0000
  C   C444      1.0  0.86807  0.88998  0.82175  1.0000
  C   C445      1.0  0.94091  0.64501  0.65967  1.0000
  C   C446      1.0  0.47455  0.46651  0.66114  1.0000
  C   C447      1.0  0.46309  0.49169  0.74070  1.0000
  S   S68       1.0  0.88552  0.49917  0.72116  1.0000
  S   S69       1.0  0.89014  0.70756  0.60229  1.0000
  H   H360      1.0  0.45738  0.81712  0.59427  1.0000
  H   H361      1.0  0.79480  0.61114  0.62008  1.0000
  H   H362      1.0  0.84759  0.73552  0.71009  1.0000
  C   C448      1.0  0.86349  0.65523  0.81260  1.0000
  C   C449      1.0  0.61477  0.66774  0.75820  1.0000
  H   H363      1.0  0.84812  0.53230  0.80465  1.0000
  H   H364      1.0  0.63533  0.66208  0.68014  1.0000
  C   C450      1.0  0.90387  0.73867  0.82207  1.0000
  H   H365      1.0  0.80102  0.82745  0.64428  1.0000
  C   C451      1.0  0.50933  0.46981  0.75601  1.0000
  H   H366      1.0  0.67542  0.57864  0.72341  1.0000
  C   C452      1.0  0.51887  0.60420  0.81274  1.0000
  S   S70       1.0  0.73576  0.89926  0.64302  1.0000
  C   C453      1.0  0.88647  0.55709  0.68886  1.0000
  C   C454      1.0  0.70082  0.48085  0.79765  1.0000
  C   C455      1.0  0.88882  0.64967  0.63555  1.0000
  H   H367      1.0  0.54106  0.58720  0.69227  1.0000
  C   C456      1.0  0.70285  0.57625  0.79746  1.0000
  H   H368      1.0  0.46447  0.46765  0.62313  1.0000
  C   C457      1.0  0.89158  0.85745  0.66937  1.0000
  C   C458      1.0  0.50692  0.58191  0.77223  1.0000
  C   C459      1.0  0.80634  0.89499  0.66566  1.0000
  C   C460      1.0  0.83550  0.60791  0.63821  1.0000
  C   C461      1.0  0.88707  0.75546  0.77507  1.0000
  C   C462      1.0  0.82943  0.85651  0.65947  1.0000
  C   C463      1.0  0.92055  0.93253  0.81771  1.0000
  C   C464      1.0  0.60308  0.64600  0.71740  1.0000
  H   H369      1.0  0.52174  0.90550  0.57937  1.0000
  C   C465      1.0  0.65934  0.54514  0.59564  1.0000
  C   C466      1.0  0.68651  0.55677  0.75602  1.0000
  C   C467      1.0  0.93020  0.89653  0.68598  1.0000
  H   H370      1.0  0.52573  0.47310  0.79146  1.0000
  H   H371      1.0  0.82777  0.64685  0.74301  1.0000
  H   H372      1.0  0.48510  0.93096  0.67654  1.0000
  H   H373      1.0  0.79409  0.52928  0.66578  1.0000
  C   C468      1.0  0.93938  0.59881  0.68683  1.0000
  S   S71       1.0  0.56645  0.59034  0.58766  1.0000
  C   C469      1.0  0.83487  0.56157  0.66422  1.0000
  H   H374      1.0  0.65627  0.70085  0.75271  1.0000
  S   S72       1.0  0.87793  0.46869  0.59068  1.0000
  C   C470      1.0  0.85822  0.72227  0.74731  1.0000
  H   H375      1.0  0.91030  0.82859  0.66263  1.0000
  H   H376      1.0  0.67132  0.56313  0.62599  1.0000
  C   C471      1.0  0.84317  0.93254  0.68529  1.0000
  C   C472      1.0  0.84717  0.67223  0.76578  1.0000
  C   C473      1.0  0.44588  0.49002  0.69274  1.0000
  H   H377      1.0  0.82048  0.89247  0.81596  1.0000
  H   H378      1.0  0.89932  0.79431  0.75843  1.0000
  H   H379      1.0  0.67541  0.49487  0.72305  1.0000
  H   H380      1.0  0.73255  0.50914  0.60152  1.0000
  C   C474      1.0  0.90535  0.93344  0.69527  1.0000
  H   H381      1.0  0.65095  0.51144  0.93209  1.0000
  H   H382      1.0  0.48709  0.58906  0.84971  1.0000
  C   C475      1.0  0.86479  0.72693  0.94684  1.0000
  C   C476      1.0  0.71755  0.50013  0.83957  1.0000
  H   H383      1.0  0.61955  0.58266  0.05112  1.0000
  C   C477      1.0  0.71989  0.54854  0.83847  1.0000
  C   C478      1.0  0.68934  0.67756  0.93490  1.0000
  H   H384      1.0  0.83399  0.47113  0.96479  1.0000
  H   H385      1.0  0.44931  0.46844  0.01014  1.0000
  C   C479      1.0  0.58421  0.81083  0.96367  1.0000
  H   H386      1.0  0.92638  0.87346  0.94019  1.0000
  H   H387      1.0  0.73548  0.56501  0.86913  1.0000
  C   C480      1.0  0.83183  0.49762  0.88538  1.0000
  C   C481      1.0  0.77095  0.57179  0.04986  1.0000
  H   H388      1.0  0.49971  0.82387  0.93813  1.0000
  C   C482      1.0  0.55217  0.88194  0.97007  1.0000
  C   C483      1.0  0.69254  0.75425  0.95689  1.0000
  C   C484      1.0  0.54422  0.49412  0.89249  1.0000
  C   C485      1.0  0.70468  0.74970  0.86773  1.0000
  H   H389      1.0  0.70551  0.81493  0.89218  1.0000
  C   C486      1.0  0.69881  0.70017  0.88296  1.0000
  C   C487      1.0  0.87025  0.52701  0.83801  1.0000
  C   C488      1.0  0.76857  0.82623  0.00746  1.0000
  C   C489      1.0  0.54191  0.83806  0.95489  1.0000
  C   C490      1.0  0.47454  0.46227  0.97664  1.0000
  H   H390      1.0  0.58117  0.66305  0.83797  1.0000
  P   P16       1.0  0.74500  0.46591  0.89061  1.0000
  C   C491      1.0  0.68734  0.70461  0.97172  1.0000
  C   C492      1.0  0.63786  0.82764  0.98716  1.0000
  C   C493      1.0  0.64702  0.87119  0.00336  1.0000
  H   H391      1.0  0.57362  0.52484  0.86124  1.0000
  C   C494      1.0  0.62394  0.47975  0.01219  1.0000
  Fe  Fe36      1.0  0.48121  0.57262  0.01496  1.0000
  C   C495      1.0  0.70138  0.77666  0.90453  1.0000
  H   H392      1.0  0.51805  0.90213  0.96454  1.0000
  C   C496      1.0  0.51245  0.50230  0.93623  1.0000
  C   C497      1.0  0.86239  0.49209  0.92772  1.0000
  H   H393      1.0  0.50496  0.94965  0.04767  1.0000
  C   C498      1.0  0.71568  0.57748  0.03159  1.0000
  H   H394      1.0  0.68038  0.68624  0.01170  1.0000
  H   H395      1.0  0.61200  0.93194  0.00729  1.0000
  S   S73       1.0  0.52439  0.56310  0.94004  1.0000
  H   H396      1.0  0.87434  0.72579  0.07140  1.0000
  C   C499      1.0  0.92625  0.76197  0.92292  1.0000
  H   H397      1.0  0.70073  0.67897  0.85470  1.0000
  S   S74       1.0  0.82803  0.55516  0.01216  1.0000
  C   C500      1.0  0.89558  0.87921  0.01643  1.0000
  H   H398      1.0  0.92227  0.64716  0.97741  1.0000
  Fe  Fe37      1.0  0.87113  0.50764  0.06306  1.0000
  C   C501      1.0  0.93777  0.55014  0.83317  1.0000
  C   C502      1.0  0.82197  0.83776  0.96701  1.0000
  P   P17       1.0  0.68707  0.78921  0.00419  1.0000
  C   C503      1.0  0.84644  0.71352  0.00030  1.0000
  C   C504      1.0  0.65797  0.48561  0.96295  1.0000
  H   H399      1.0  0.83099  0.70981  0.92452  1.0000
  C   C505      1.0  0.77937  0.84234  0.05200  1.0000
  H   H400      1.0  0.68534  0.88335  0.02443  1.0000
  C   C506      1.0  0.84263  0.86846  0.05646  1.0000
  H   H401      1.0  0.68238  0.63873  0.94670  1.0000
  H   H402      1.0  0.79993  0.68530  0.01884  1.0000
  H   H403      1.0  0.57308  0.77552  0.95422  1.0000
  C   C507      1.0  0.60491  0.89861  0.99417  1.0000
  H   H404      1.0  0.81533  0.82547  0.93255  1.0000
  S   S75       1.0  0.53663  0.63874  0.03926  1.0000
  C   C508      1.0  0.88844  0.73604  0.02998  1.0000
  C   C509      1.0  0.88520  0.86461  0.97137  1.0000
  H   H405      1.0  0.59152  0.50083  0.01814  1.0000
  H   H406      1.0  0.55408  0.75960  0.06749  1.0000
  C   C510      1.0  0.64972  0.75021  0.06751  1.0000
  C   C511      1.0  0.66425  0.58240  0.06445  1.0000
  H   H407      1.0  0.71076  0.57459  0.99312  1.0000
  C   C512      1.0  0.70030  0.45875  0.95454  1.0000
  H   H408      1.0  0.56930  0.92150  0.83327  1.0000
  C   C513      1.0  0.93004  0.51480  0.92286  1.0000
  H   H409      1.0  0.90694  0.67443  0.87563  1.0000
  H   H410      1.0  0.83653  0.81162  0.83477  1.0000
  C   C514      1.0  0.87755  0.84431  0.83154  1.0000
  C   C515      1.0  0.93975  0.84094  0.83673  1.0000
  H   H411      1.0  0.71126  0.76708  0.82741  1.0000
  C   C516      1.0  0.89218  0.68823  0.84049  1.0000
  H   H412      1.0  0.85564  0.61660  0.82662  1.0000
  H   H413      1.0  0.57916  0.73251  0.25509  1.0000
  H   H414      1.0  0.67830  0.60138  0.25043  1.0000
  C   C517      1.0  0.58430  0.74332  0.08898  1.0000
  C   C518      1.0  0.59385  0.69221  0.16727  1.0000
  H   H415      1.0  0.57134  0.66755  0.20475  1.0000
  C   C519      1.0  0.72765  0.58284  0.13184  1.0000
  C   C520      1.0  0.81805  0.70767  0.21596  1.0000
  C   C521      1.0  0.66952  0.58402  0.11499  1.0000
  C   C522      1.0  0.83381  0.75535  0.22247  1.0000
  C   C523      1.0  0.74488  0.83415  0.24426  1.0000
  C   C524      1.0  0.66965  0.91246  0.26684  1.0000
  H   H416      1.0  0.64441  0.52941  0.32507  1.0000
  H   H417      1.0  0.83000  0.78449  0.19284  1.0000
  H   H418      1.0  0.50521  0.70741  0.15411  1.0000
  C   C525      1.0  0.80506  0.50983  0.29103  1.0000
  C   C526      1.0  0.83843  0.55692  0.29513  1.0000
  C   C527      1.0  0.65785  0.76044  0.29441  1.0000
  C   C528      1.0  0.65795  0.65039  0.29480  1.0000
  H   H419      1.0  0.46806  0.81572  0.15934  1.0000
  C   C529      1.0  0.84971  0.68036  0.29675  1.0000
  C   C530      1.0  0.61725  0.47296  0.21851  1.0000
  C   C531      1.0  0.65961  0.70023  0.14680  1.0000
  C   C532      1.0  0.71719  0.79819  0.29022  1.0000
  H   H420      1.0  0.82240  0.57459  0.11219  1.0000
  C   C533      1.0  0.68577  0.92130  0.31316  1.0000
  C   C534      1.0  0.55927  0.86285  0.31072  1.0000
  C   C535      1.0  0.55638  0.71405  0.13851  1.0000
  H   H421      1.0  0.57433  0.87014  0.10468  1.0000
  C   C536      1.0  0.55011  0.46256  0.21861  1.0000
  C   C537      1.0  0.48832  0.85320  0.16243  1.0000
  C   C538      1.0  0.86394  0.72830  0.30353  1.0000
  H   H422      1.0  0.70593  0.92908  0.23165  1.0000
  H   H423      1.0  0.64446  0.50592  0.22862  1.0000
  C   C539      1.0  0.47918  0.91944  0.20129  1.0000
  C   C540      1.0  0.54791  0.88401  0.13129  1.0000
  H   H424      1.0  0.81452  0.63418  0.24595  1.0000
  H   H425      1.0  0.81682  0.49873  0.25621  1.0000
  H   H426      1.0  0.68772  0.68180  0.16856  1.0000
  H   H427      1.0  0.79065  0.86327  0.24109  1.0000
  H   H428      1.0  0.50982  0.84102  0.30941  1.0000
  C   C541      1.0  0.82585  0.67030  0.25286  1.0000
  H   H429      1.0  0.89258  0.88106  0.16206  1.0000
  H   H430      1.0  0.73901  0.83438  0.08359  1.0000
  C   C542      1.0  0.66183  0.60525  0.28828  1.0000
  C   C543      1.0  0.62566  0.76059  0.25249  1.0000
  C   C544      1.0  0.57247  0.93283  0.13393  1.0000
  C   C545      1.0  0.68720  0.72836  0.09683  1.0000
  H   H431      1.0  0.80233  0.69997  0.18124  1.0000
  C   C546      1.0  0.92761  0.65688  0.15309  1.0000
  C   C547      1.0  0.85646  0.76565  0.26639  1.0000
  H   H432      1.0  0.88395  0.66181  0.14079  1.0000
  H   H433      1.0  0.62799  0.79673  0.17470  1.0000
  H   H434      1.0  0.67269  0.68116  0.26173  1.0000
  C   C548      1.0  0.92508  0.91412  0.16834  1.0000
  C   C549      1.0  0.93142  0.60958  0.16755  1.0000
  H   H435      1.0  0.87647  0.58150  0.26381  1.0000
  Fe  Fe38      1.0  0.51983  0.58721  0.11595  1.0000
  H   H436      1.0  0.93663  0.49981  0.31623  1.0000
  S   S76       1.0  0.60315  0.58610  0.15743  1.0000
  H   H437      1.0  0.59453  0.87542  0.22990  1.0000
  S   S77       1.0  0.83416  0.48152  0.14772  1.0000
  C   C550      1.0  0.60684  0.88240  0.26578  1.0000
  H   H438      1.0  0.89037  0.57814  0.16781  1.0000
  H   H439      1.0  0.86995  0.80290  0.27085  1.0000
  H   H440      1.0  0.74230  0.80061  0.32197  1.0000
  C   C551      1.0  0.71316  0.83318  0.20246  1.0000
  H   H441      1.0  0.73281  0.58499  0.17051  1.0000
  C   C552      1.0  0.77816  0.57651  0.09921  1.0000
  C   C553      1.0  0.45399  0.87077  0.19712  1.0000
  S   S78       1.0  0.46988  0.52052  0.09017  1.0000
  H   H442      1.0  0.73438  0.86120  0.16703  1.0000
  C   C554      1.0  0.65320  0.79682  0.20678  1.0000
  H   H443      1.0  0.52540  0.48736  0.22910  1.0000
  H   H444      1.0  0.85046  0.88128  0.09057  1.0000
  H   H445      1.0  0.73413  0.94564  0.31307  1.0000
  Fe  Fe39      1.0  0.93979  0.49983  0.15456  1.0000
  H   H446      1.0  0.73747  0.73255  0.08097  1.0000
  C   C555      1.0  0.53770  0.95075  0.16804  1.0000
  C   C556      1.0  0.89636  0.66554  0.43031  1.0000
  H   H447      1.0  0.74236  0.61913  0.40670  1.0000
  C   C557      1.0  0.71411  0.74590  0.49085  1.0000
  H   H448      1.0  0.94209  0.45674  0.44123  1.0000
  C   C558      1.0  0.56144  0.83172  0.48349  1.0000
  C   C559      1.0  0.82418  0.86423  0.41389  1.0000
  C   C560      1.0  0.90212  0.55115  0.47514  1.0000
  H   H449      1.0  0.84572  0.48372  0.45938  1.0000
  H   H450      1.0  0.71114  0.46391  0.41083  1.0000
  H   H451      1.0  0.71251  0.62813  0.49411  1.0000
  H   H452      1.0  0.55538  0.53455  0.51098  1.0000
  H   H453      1.0  0.57398  0.81015  0.45838  1.0000
  H   H454      1.0  0.85657  0.85568  0.38612  1.0000
  S   S79       1.0  0.46909  0.62196  0.48217  1.0000
  C   C561      1.0  0.87914  0.67200  0.47925  1.0000
  C   C562      1.0  0.62892  0.49892  0.51685  1.0000
  C   C563      1.0  0.53514  0.70352  0.36128  1.0000
  C   C564      1.0  0.49603  0.83525  0.56072  1.0000
  H   H455      1.0  0.48437  0.76965  0.53388  1.0000
  S   S80       1.0  0.72109  0.45310  0.52538  1.0000
  C   C565      1.0  0.59517  0.88233  0.47296  1.0000
  H   H456      1.0  0.73597  0.75346  0.52349  1.0000
  C   C566      1.0  0.72443  0.73271  0.40534  1.0000
  H   H457      1.0  0.80275  0.86972  0.53873  1.0000
  C   C567      1.0  0.64671  0.73663  0.49336  1.0000
  H   H458      1.0  0.46180  0.91899  0.35155  1.0000
  H   H459      1.0  0.61706  0.48085  0.48654  1.0000
  H   H460      1.0  0.61615  0.73647  0.52820  1.0000
  C   C568      1.0  0.72950  0.88989  0.43570  1.0000
  Fe  Fe40      1.0  0.47226  0.57799  0.55824  1.0000
  C   C569      1.0  0.78098  0.63327  0.42687  1.0000
  C   C570      1.0  0.75301  0.74421  0.44671  1.0000
  C   C571      1.0  0.53170  0.88504  0.55204  1.0000
  C   C572      1.0  0.57523  0.87184  0.35716  1.0000
  H   H461      1.0  0.87681  0.85050  0.47483  1.0000
  H   H462      1.0  0.79950  0.66259  0.54040  1.0000
  C   C573      1.0  0.79395  0.87194  0.49990  1.0000
  C   C574      1.0  0.47759  0.48176  0.35835  1.0000
  H   H463      1.0  0.60859  0.94705  0.50314  1.0000
  C   C575      1.0  0.83562  0.86113  0.46387  1.0000
  C   C576      1.0  0.48979  0.66267  0.35159  1.0000
  C   C577      1.0  0.61897  0.56900  0.37875  1.0000
  C   C578      1.0  0.60913  0.55212  0.57027  1.0000
  C   C579      1.0  0.51120  0.80852  0.52660  1.0000
  C   C580      1.0  0.59384  0.52899  0.53088  1.0000
  C   C581      1.0  0.67847  0.49137  0.54271  1.0000
  H   H464      1.0  0.53685  0.85751  0.39096  1.0000
  C   C582      1.0  0.89426  0.50710  0.46063  1.0000
  H   H465      1.0  0.59476  0.61633  0.42308  1.0000
  H   H466      1.0  0.54756  0.77246  0.38136  1.0000
  C   C583      1.0  0.63386  0.65499  0.34338  1.0000
  H   H467      1.0  0.80507  0.75040  0.44528  1.0000
  H   H468      1.0  0.85910  0.56122  0.48610  1.0000
  C   C584      1.0  0.81293  0.65782  0.50244  1.0000
  H   H469      1.0  0.56585  0.71835  0.45525  1.0000
  C   C585      1.0  0.76388  0.63844  0.47628  1.0000
  C   C586      1.0  0.61831  0.72641  0.45149  1.0000
  C   C587      1.0  0.74155  0.88662  0.48584  1.0000
  H   H470      1.0  0.77042  0.54569  0.41885  1.0000
  P   P18       1.0  0.66257  0.91098  0.41863  1.0000
  C   C588      1.0  0.84729  0.64468  0.40444  1.0000
  C   C589      1.0  0.65722  0.72533  0.40658  1.0000
  C   C590      1.0  0.77096  0.87806  0.39989  1.0000
  H   H471      1.0  0.71082  0.89580  0.51429  1.0000
  H   H472      1.0  0.60220  0.53710  0.41098  1.0000
  C   C591      1.0  0.51316  0.74059  0.37441  1.0000
  C   C592      1.0  0.61460  0.61396  0.38538  1.0000
  C   C593      1.0  0.74576  0.49032  0.37801  1.0000
  C   C594      1.0  0.58100  0.90861  0.50835  1.0000
  C   C595      1.0  0.77918  0.53758  0.38206  1.0000
  H   H473      1.0  0.75465  0.72927  0.37241  1.0000
  C   C596      1.0  0.82402  0.57218  0.33964  1.0000
  H   H474      1.0  0.91695  0.68733  0.49977  1.0000
  C   C597      1.0  0.63965  0.89932  0.35915  1.0000
  P   P19       1.0  0.86830  0.63438  0.34202  1.0000
  P   P20       1.0  0.62187  0.71134  0.35194  1.0000
  H   H475      1.0  0.76288  0.87962  0.36125  1.0000
  H   H476      1.0  0.50302  0.51553  0.32941  1.0000
  H   H477      1.0  0.50501  0.63360  0.34058  1.0000
  H   H478      1.0  0.94402  0.56717  0.35994  1.0000
  H   H479      1.0  0.88301  0.73723  0.33671  1.0000
  C   C598      1.0  0.75784  0.47683  0.33216  1.0000
  H   H480      1.0  0.91295  0.94262  0.32593  1.0000
  C   C599      1.0  0.64259  0.56463  0.33025  1.0000
  C   C600      1.0  0.44653  0.73598  0.38009  1.0000
