data_image0
_chemical_formula_structural       FeS2CSCFeSFeS3FeS2FeS2FeSFeS3CFeCS2FeSFeCSH2C4SCH2CH2C6H4C6H6C2HC3HCH3CH3C3PC21H17C2SH2CHSC3FeCHCHCHC4PC20H15CH2C6HCH5C6PC18H20C2HCHCH2FeC2H2C3HCHCHC5HC4PH2CH4CHFeC4HSH2C4HSPC2H2C2HCH3CH3C3H4C5H3CSFeS2FeS2FeSFeS3C3FeS2C6H5C3H5C4HCHC6H5CH5C3HSCHC3H5CH3CHCHCH2C2HCH2C3HC4HCHC2HC2HC2H2C6HCFeC2H2C6HPC2HC2H2C3H2CHCPHC4HCSCSH2CHC4H2C2FeH2CSH5CH2CH2CHPH2CH3C3H2PH2C9HCH3C3HC3HC2HC2HC3HC2H2CHC2PH3C6FeSFeSC2S2CPH2CHCH3CHC6H4C6H2CH3C4HCHC3HCHCHC2H3C3HCHC3PHCHCHCHC4PH2C8PC5HC12H6CH14C2H2C3HCHCS2CHC2H2CHCHC2HCHC2HFeH2CHCHC2PHC2H3CHC3HC2H3SCH4CSC2HSFeS2FeSFeS3FeS2FeSHFeSFeS3FeHSFeS3C6HC2H3CH2C5H2C7H4C7H3C2HCH2C3HCHC4HCH2C2FeC3HC7H2CH6C5H10C2H3CFeCHCH2CH4CHS2C8FeH3C4H2CH2CH2C6PCH4C3H2C4HC2HCHC3HSHC2S2C3HC5HCHCPHCH2CFeH2CHCH6SH2CH2CPC4SCHCH6CHC2HCHCFeHCH2C2PCHCHCHCH3SH5FeSFeS2FeS2FeSFeS3FeS2CSHCHC2HC6H4PC4H4C3HCH4C6H7C8SFeCH2CHC2H2C2HCHC2H2CHSC3HC3H3C3H2CH2CHCH2CH2PC2HC2HC2HC2HC2HC4H2C4H2CH2C7H2CH4CH2C2H5CH2CPC2H2CHCHC3H2CHC2HC2HC8HC2H3CH2SC2HPH3CH3CHC2FeSFeSC2S2HCHCH2C2HCHSC7H4C6H2C3H2CHCPC2H2C4HC4SCH3CHCHSC2H4CH6C7H2CHCH2CHC2HCH2SC2PHC4H2C2H2CHCHCH2CHC2FeH3CSHC2HC2HC2HC4HC5HCHCFeH7CSPHFeSFeSH6SCHCH2CH2C3HC6H3C4HCH2CH4C2FeH3SHC2HCH3C2HCHC2FeCHC2HCHCHC2HSCHC5HC2HPCH4C2HC2HC3SHC3HC3HC2HCH2CHC3H3SC3HCH2SCH3CHC2H2CH2SCHCH5C4H2C2HSHCFeS2FeS2FeSFeS3H3FeS2C2HC6H5C4HCH2C6H4CHCHCHSHC3SC4H3C3HC4HC2HC7H2CHCHC2H7C2H2C2H2C2HC2HCHC5HC5PH2CHC2HC3HC2HPC3PCHCHCH2C5H3C2H9CH2CHCH2FeC3H2C3HCHCHCHCHFeSCHCH2CH3C2H4C2HC2HCH2C2PH2C3HCHFeSFeS2FeSFeS3FeS2FeS2FeSFeHS2FeHFeS2Fe3S2CHS2PCHSHCHC5HCH4C7H4C6H4C4H3CH2C4H2CH3CH2C7PC18H20C6PC18HC2H16C3H2CHC3HCH2SC2H3CH2PH2FeHSC2HC4HCSC2H2C2H2CHC8HCH2C4H2C2HC2HC2HCHSHC2HC2H3CHC2H3C2FeSFeSC2SH3CSPC5FeHC2H2C6PH3C6H4C2HC4H3C2SCHC3H2CHCHCHC7SC3HC3HCHCHPCSCH4C2HCHC3H3C3H2C4H2CH2SC2H3CHC2H3C2HCPC3H2C2HC2HFeCHC3H2CH2CH3C4H2C5HCH2CSH2C3H3SCHCH2CH2FeSFeS2FeS2FeSFeS3CS2HSC2HC2HC2HC6H4C2HC2H3CHC6H3CH2C5H5C6H2PFeH2CH2C3HCPHCH5CHCHCHCFeH4CH3C2H8CHC2H3CHCHC2HCHC7HC2HC4HC4H2PC2HCHC4PC13H3C2HC3PC2H2CH5C9HC3HCHCH2C2HCH2CH2C2HC3HFeS2FeSFeSFeS3FeS2FeSCFeSFeS3FeSCHSFeSFeS2CHCH3CHSCH3CH2CHC4H2C4SC2H3C7H4C6H6CH4C2PC19H3CH12C6PC16H17C3PC7H3CHC4HCH2PCH3C2H2CH2CHCHCHC7HC3H3CH2C2HCHFeC2H3SCH4C4H3CS2C2HCHC2H2C2HCHCH2CH3C5H
_chemical_formula_sum              "Fe96 S192 C1440 H1152 P48"
_cell_length_a       33.4857
_cell_length_b       51.8252
_cell_length_c       66.0159
_cell_angle_alpha    90.0916
_cell_angle_beta     102.567
_cell_angle_gamma    90.3234

_space_group_name_H-M_alt    "P 1"
_space_group_IT_number       1

loop_
  _space_group_symop_operation_xyz
  'x, y, z'

loop_
  _atom_site_type_symbol
  _atom_site_label
  _atom_site_symmetry_multiplicity
  _atom_site_fract_x
  _atom_site_fract_y
  _atom_site_fract_z
  _atom_site_occupancy
  Fe  Fe1       1.0  0.37363  0.21781  0.24073  1.0000
  S   S1        1.0  0.35203  0.25692  0.24797  1.0000
  S   S2        1.0  0.33292  0.18276  0.22984  1.0000
  C   C1        1.0  0.19258  0.29105  0.00577  1.0000
  S   S3        1.0  0.44897  0.27472  0.25858  1.0000
  C   C2        1.0  0.29950  0.39249  0.11717  1.0000
  Fe  Fe2       1.0  0.40476  0.25675  0.27587  1.0000
  S   S4        1.0  0.40479  0.26465  0.31025  1.0000
  Fe  Fe3       1.0  0.39763  0.27205  0.23001  1.0000
  S   S5        1.0  0.37697  0.30524  0.20716  1.0000
  S   S6        1.0  0.42371  0.21612  0.26972  1.0000
  S   S7        1.0  0.41625  0.23282  0.22123  1.0000
  Fe  Fe4       1.0  0.31391  0.33934  0.04266  1.0000
  S   S8        1.0  0.37744  0.32390  0.05485  1.0000
  S   S9        1.0  0.26745  0.31462  0.02004  1.0000
  Fe  Fe5       1.0  0.33502  0.39083  0.06516  1.0000
  S   S10       1.0  0.39918  0.37879  0.07929  1.0000
  S   S11       1.0  0.30587  0.42981  0.06886  1.0000
  Fe  Fe6       1.0  0.40072  0.36285  0.04760  1.0000
  S   S12       1.0  0.45968  0.37310  0.03688  1.0000
  Fe  Fe7       1.0  0.37175  0.34060  0.08570  1.0000
  S   S13       1.0  0.39719  0.31386  0.11316  1.0000
  S   S14       1.0  0.33774  0.37737  0.03317  1.0000
  S   S15       1.0  0.30674  0.35366  0.07377  1.0000
  C   C3        1.0  0.06995  0.13782  0.01041  1.0000
  Fe  Fe8       1.0  0.01574  0.11755  0.19052  1.0000
  C   C4        1.0  0.20443  0.39539  0.04090  1.0000
  S   S16       1.0  0.11193  0.11836  0.16631  1.0000
  S   S17       1.0  0.07925  0.11072  0.20925  1.0000
  Fe  Fe9       1.0  0.09859  0.14396  0.19145  1.0000
  S   S18       1.0  0.13750  0.17901  0.20495  1.0000
  Fe  Fe10      1.0  0.08682  0.08556  0.18245  1.0000
  C   C5        1.0  0.20866  0.28183  0.27072  1.0000
  S   S19       1.0  0.11765  0.04629  0.18934  1.0000
  H   H1        1.0  0.35241  0.40962  0.10905  1.0000
  H   H2        1.0  0.37665  0.44346  0.03360  1.0000
  C   C6        1.0  0.13612  0.29038  0.02364  1.0000
  C   C7        1.0  0.16072  0.30482  0.03981  1.0000
  C   C8        1.0  0.20091  0.31233  0.03900  1.0000
  C   C9        1.0  0.21704  0.30558  0.02191  1.0000
  S   S20       1.0  0.08568  0.28157  0.02576  1.0000
  C   C10       1.0  0.47633  0.36545  0.01372  1.0000
  H   H3        1.0  0.14862  0.31027  0.05305  1.0000
  H   H4        1.0  0.21924  0.32356  0.05148  1.0000
  C   C11       1.0  0.11873  0.19854  0.27728  1.0000
  H   H5        1.0  0.42534  0.48868  0.08060  1.0000
  H   H6        1.0  0.08735  0.04165  0.23559  1.0000
  C   C12       1.0  0.27851  0.18209  0.22370  1.0000
  C   C13       1.0  0.25826  0.15909  0.21601  1.0000
  C   C14       1.0  0.21520  0.15776  0.21030  1.0000
  C   C15       1.0  0.19180  0.17947  0.21234  1.0000
  C   C16       1.0  0.21198  0.20243  0.22028  1.0000
  C   C17       1.0  0.25510  0.20370  0.22612  1.0000
  H   H7        1.0  0.27598  0.14212  0.21451  1.0000
  H   H8        1.0  0.20012  0.13992  0.20435  1.0000
  H   H9        1.0  0.19418  0.21943  0.22157  1.0000
  H   H10       1.0  0.27023  0.22148  0.23213  1.0000
  C   C18       1.0  0.38184  0.30677  0.18084  1.0000
  C   C19       1.0  0.36202  0.32664  0.16801  1.0000
  C   C20       1.0  0.36552  0.32881  0.14714  1.0000
  C   C21       1.0  0.38969  0.31142  0.13897  1.0000
  C   C22       1.0  0.40942  0.29151  0.15178  1.0000
  C   C23       1.0  0.40536  0.28909  0.17253  1.0000
  H   H11       1.0  0.34415  0.34058  0.17431  1.0000
  H   H12       1.0  0.35017  0.34415  0.13747  1.0000
  H   H13       1.0  0.42846  0.27808  0.14567  1.0000
  H   H14       1.0  0.42125  0.27395  0.18228  1.0000
  H   H15       1.0  0.35805  0.31243  0.29876  1.0000
  H   H16       1.0  0.12712  0.20312  0.24600  1.0000
  C   C24       1.0  0.05412  0.01330  0.17070  1.0000
  C   C25       1.0  0.09381  0.01565  0.18282  1.0000
  H   H17       1.0  0.03729  0.03047  0.16499  1.0000
  C   C26       1.0  0.37362  0.46255  0.07475  1.0000
  C   C27       1.0  0.33097  0.46031  0.07062  1.0000
  C   C28       1.0  0.29969  0.47655  0.01607  1.0000
  H   H18       1.0  0.39223  0.44536  0.07690  1.0000
  C   C29       1.0  0.36637  0.49217  0.12393  1.0000
  H   H19       1.0  0.47914  0.23992  0.17207  1.0000
  H   H20       1.0  0.18287  0.31337  0.25102  1.0000
  H   H21       1.0  0.42499  0.45125  0.22040  1.0000
  C   C30       1.0  0.30298  0.38620  0.15380  1.0000
  H   H22       1.0  0.06768  0.10651  0.03152  1.0000
  H   H23       1.0  0.21255  0.40167  0.05695  1.0000
  H   H24       1.0  0.27431  0.48141  0.06497  1.0000
  C   C31       1.0  0.22255  0.40741  0.02618  1.0000
  C   C32       1.0  0.40237  0.19564  0.17001  1.0000
  C   C33       1.0  0.42346  0.21738  0.16489  1.0000
  P   P1        1.0  0.34953  0.18985  0.15715  1.0000
  C   C34       1.0  0.34019  0.19748  0.12982  1.0000
  C   C35       1.0  0.33720  0.15608  0.15926  1.0000
  C   C36       1.0  0.33991  0.13868  0.14327  1.0000
  C   C37       1.0  0.32967  0.11265  0.14483  1.0000
  C   C38       1.0  0.31707  0.10375  0.16243  1.0000
  C   C39       1.0  0.31506  0.12083  0.17856  1.0000
  C   C40       1.0  0.32523  0.14685  0.17704  1.0000
  C   C41       1.0  0.30031  0.20300  0.11886  1.0000
  C   C42       1.0  0.29289  0.20929  0.09778  1.0000
  C   C43       1.0  0.32504  0.20973  0.08740  1.0000
  C   C44       1.0  0.36460  0.20349  0.09803  1.0000
  C   C45       1.0  0.37215  0.19715  0.11911  1.0000
  C   C46       1.0  0.31679  0.20987  0.16901  1.0000
  C   C47       1.0  0.33090  0.23374  0.17800  1.0000
  C   C48       1.0  0.30548  0.24919  0.18709  1.0000
  C   C49       1.0  0.26568  0.24114  0.18710  1.0000
  C   C50       1.0  0.25135  0.21754  0.17810  1.0000
  C   C51       1.0  0.27657  0.20201  0.16898  1.0000
  C   C52       1.0  0.01962  0.15469  0.07628  1.0000
  C   C53       1.0  0.44424  0.37833  0.13395  1.0000
  C   C54       1.0  0.40528  0.45578  0.14093  1.0000
  H   H25       1.0  0.40568  0.16363  0.19148  1.0000
  H   H26       1.0  0.40876  0.23053  0.15287  1.0000
  H   H27       1.0  0.35006  0.14508  0.12962  1.0000
  H   H28       1.0  0.33178  0.09928  0.13247  1.0000
  H   H29       1.0  0.30925  0.08357  0.16370  1.0000
  H   H30       1.0  0.30587  0.11387  0.19235  1.0000
  H   H31       1.0  0.32396  0.15975  0.18981  1.0000
  H   H32       1.0  0.27502  0.20289  0.12662  1.0000
  H   H33       1.0  0.26237  0.21440  0.08958  1.0000
  H   H34       1.0  0.31934  0.21504  0.07114  1.0000
  H   H35       1.0  0.38954  0.20375  0.08995  1.0000
  H   H36       1.0  0.40292  0.19203  0.12698  1.0000
  H   H37       1.0  0.36156  0.24051  0.17828  1.0000
  H   H38       1.0  0.31688  0.26723  0.19445  1.0000
  H   H39       1.0  0.24635  0.25282  0.19460  1.0000
  H   H40       1.0  0.22117  0.21079  0.17895  1.0000
  H   H41       1.0  0.26472  0.18370  0.16227  1.0000
  C   C55       1.0  0.36020  0.40614  0.14233  1.0000
  C   C56       1.0  0.33893  0.40310  0.12168  1.0000
  S   S21       1.0  0.02375  0.21718  0.00861  1.0000
  H   H42       1.0  0.18435  0.22010  0.32077  1.0000
  H   H43       1.0  0.28273  0.39125  0.10120  1.0000
  C   C57       1.0  0.02304  0.04965  0.22550  1.0000
  H   H44       1.0  0.24515  0.19515  0.27080  1.0000
  S   S22       1.0  0.03387  0.15285  0.17435  1.0000
  C   C58       1.0  0.19295  0.22576  0.28944  1.0000
  C   C59       1.0  0.00047  0.17260  0.06124  1.0000
  C   C60       1.0  0.17211  0.21686  0.30441  1.0000
  Fe  Fe11      1.0  0.46505  0.23398  0.25092  1.0000
  C   C61       1.0  0.15235  0.28350  0.00660  1.0000
  H   H45       1.0  0.30054  0.16575  0.26788  1.0000
  C   C62       1.0  0.39232  0.48716  0.07677  1.0000
  H   H46       1.0  0.14571  0.35092  0.00981  1.0000
  C   C63       1.0  0.28230  0.21895  0.29499  1.0000
  H   H47       1.0  0.11914  0.19647  0.30990  1.0000
  C   C64       1.0  0.45555  0.34763  0.99923  1.0000
  C   C65       1.0  0.10028  0.13936  0.04724  1.0000
  C   C66       1.0  0.11360  0.16484  0.04536  1.0000
  C   C67       1.0  0.10509  0.17647  0.02566  1.0000
  P   P2        1.0  0.13890  0.18335  0.06792  1.0000
  C   C68       1.0  0.16377  0.16210  0.08865  1.0000
  C   C69       1.0  0.17658  0.20381  0.05988  1.0000
  C   C70       1.0  0.18089  0.22984  0.06597  1.0000
  C   C71       1.0  0.20779  0.24599  0.05838  1.0000
  C   C72       1.0  0.23100  0.23635  0.04491  1.0000
  C   C73       1.0  0.22772  0.21031  0.03920  1.0000
  C   C74       1.0  0.20065  0.19406  0.04666  1.0000
  C   C75       1.0  0.20670  0.16064  0.09429  1.0000
  C   C76       1.0  0.22573  0.14499  0.11082  1.0000
  C   C77       1.0  0.20214  0.13046  0.12174  1.0000
  C   C78       1.0  0.15950  0.13136  0.11599  1.0000
  C   C79       1.0  0.14045  0.14697  0.09950  1.0000
  C   C80       1.0  0.10076  0.20394  0.07529  1.0000
  C   C81       1.0  0.09222  0.20323  0.09522  1.0000
  C   C82       1.0  0.06265  0.21947  0.10031  1.0000
  C   C83       1.0  0.04118  0.23650  0.08556  1.0000
  C   C84       1.0  0.04989  0.23765  0.06586  1.0000
  C   C85       1.0  0.07989  0.22176  0.06085  1.0000
  C   C86       1.0  0.46155  0.18533  0.19733  1.0000
  C   C87       1.0  0.32178  0.22230  0.30737  1.0000
  H   H48       1.0  0.09038  0.18774  0.27256  1.0000
  H   H49       1.0  0.10595  0.12968  0.06203  1.0000
  H   H50       1.0  0.11450  0.19615  0.02364  1.0000
  H   H51       1.0  0.16276  0.23799  0.07607  1.0000
  H   H52       1.0  0.20977  0.26621  0.06245  1.0000
  H   H53       1.0  0.25091  0.24925  0.03862  1.0000
  H   H54       1.0  0.24538  0.20292  0.02855  1.0000
  H   H55       1.0  0.19772  0.17406  0.04172  1.0000
  H   H56       1.0  0.22566  0.17153  0.08606  1.0000
  H   H57       1.0  0.25879  0.14405  0.11515  1.0000
  H   H58       1.0  0.21678  0.11834  0.13458  1.0000
  H   H59       1.0  0.14093  0.11995  0.12426  1.0000
  H   H60       1.0  0.10733  0.14733  0.09539  1.0000
  H   H61       1.0  0.10745  0.19004  0.10689  1.0000
  H   H62       1.0  0.05528  0.21812  0.11546  1.0000
  C   C88       1.0  0.35989  0.30878  0.31504  1.0000
  H   H63       1.0  0.03295  0.25062  0.05428  1.0000
  H   H64       1.0  0.08677  0.22357  0.04568  1.0000
  C   C89       1.0  0.43108  0.42031  0.17547  1.0000
  C   C90       1.0  0.21062  0.30329  0.25813  1.0000
  C   C91       1.0  0.24839  0.31194  0.25497  1.0000
  C   C92       1.0  0.28421  0.29922  0.26448  1.0000
  C   C93       1.0  0.28235  0.27770  0.27702  1.0000
  C   C94       1.0  0.28723  0.45134  0.01006  1.0000
  H   H65       1.0  0.35789  0.39901  0.17448  1.0000
  C   C95       1.0  0.18522  0.37873  0.99962  1.0000
  H   H66       1.0  0.25006  0.32866  0.24537  1.0000
  H   H67       1.0  0.31359  0.30608  0.26224  1.0000
  H   H68       1.0  0.31058  0.26840  0.28452  1.0000
  H   H69       1.0  0.25134  0.37528  0.12962  1.0000
  H   H70       1.0  0.28935  0.37926  0.16623  1.0000
  C   C96       1.0  0.13104  0.34048  0.09412  1.0000
  C   C97       1.0  0.10088  0.32578  0.08108  1.0000
  C   C98       1.0  0.10024  0.29900  0.08324  1.0000
  C   C99       1.0  0.12944  0.28678  0.09855  1.0000
  C   C100      1.0  0.15957  0.30145  0.11189  1.0000
  C   C101      1.0  0.16048  0.32837  0.10937  1.0000
  P   P3        1.0  0.19995  0.28591  0.13037  1.0000
  C   C102      1.0  0.21226  0.30557  0.15370  1.0000
  C   C103      1.0  0.18181  0.25478  0.13720  1.0000
  C   C104      1.0  0.15619  0.25307  0.15145  1.0000
  C   C105      1.0  0.14199  0.22905  0.15665  1.0000
  C   C106      1.0  0.15319  0.20655  0.14772  1.0000
  C   C107      1.0  0.17859  0.20806  0.13353  1.0000
  C   C108      1.0  0.19234  0.23205  0.12801  1.0000
  C   C109      1.0  0.25262  0.30782  0.16540  1.0000
  C   C110      1.0  0.26115  0.32236  0.18372  1.0000
  C   C111      1.0  0.22976  0.33516  0.19038  1.0000
  C   C112      1.0  0.18965  0.33337  0.17877  1.0000
  C   C113      1.0  0.18089  0.31862  0.16055  1.0000
  C   C114      1.0  0.24389  0.28205  0.11880  1.0000
  C   C115      1.0  0.24465  0.29311  0.09944  1.0000
  C   C116      1.0  0.27873  0.28992  0.09065  1.0000
  C   C117      1.0  0.31262  0.27628  0.10129  1.0000
  C   C118      1.0  0.31238  0.26555  0.12064  1.0000
  C   C119      1.0  0.27774  0.26777  0.12909  1.0000
  H   H71       1.0  0.13192  0.36121  0.09215  1.0000
  H   H72       1.0  0.07849  0.33500  0.06892  1.0000
  H   H73       1.0  0.07759  0.28774  0.07256  1.0000
  H   H74       1.0  0.12864  0.26595  0.09969  1.0000
  H   H75       1.0  0.18434  0.33995  0.11897  1.0000
  H   H76       1.0  0.14702  0.27015  0.15860  1.0000
  H   H77       1.0  0.12270  0.22770  0.16787  1.0000
  H   H78       1.0  0.14258  0.18792  0.15206  1.0000
  H   H79       1.0  0.18749  0.19054  0.12687  1.0000
  H   H80       1.0  0.21115  0.23276  0.11662  1.0000
  H   H81       1.0  0.27787  0.29851  0.16069  1.0000
  H   H82       1.0  0.29228  0.32358  0.19283  1.0000
  H   H83       1.0  0.23660  0.34645  0.20457  1.0000
  H   H84       1.0  0.16525  0.34331  0.18394  1.0000
  H   H85       1.0  0.14951  0.31730  0.15188  1.0000
  H   H86       1.0  0.21912  0.30409  0.09090  1.0000
  H   H87       1.0  0.27918  0.29829  0.07564  1.0000
  H   H88       1.0  0.33942  0.27441  0.09468  1.0000
  H   H89       1.0  0.33921  0.25558  0.12908  1.0000
  H   H90       1.0  0.27760  0.25868  0.14380  1.0000
  C   C120      1.0  0.39626  0.45572  0.00600  1.0000
  C   C121      1.0  0.46785  0.44886  0.00634  1.0000
  H   H91       1.0  0.30421  0.43527  0.01812  1.0000
  C   C122      1.0  0.13503  0.20342  0.29830  1.0000
  H   H92       1.0  0.38359  0.20836  0.31499  1.0000
  C   C123      1.0  0.44059  0.43669  0.03608  1.0000
  H   H93       1.0  0.32875  0.23841  0.31806  1.0000
  H   H94       1.0  0.36993  0.17206  0.28971  1.0000
  Fe  Fe12      1.0  0.04655  0.12575  0.14987  1.0000
  C   C124      1.0  0.47348  0.43852  0.02629  1.0000
  C   C125      1.0  0.34205  0.39742  0.15840  1.0000
  H   H95       1.0  0.24399  0.42293  0.03127  1.0000
  H   H96       1.0  0.39826  0.45389  0.18258  1.0000
  C   C126      1.0  0.43918  0.47224  0.14742  1.0000
  C   C127      1.0  0.44217  0.40539  0.13351  1.0000
  C   C128      1.0  0.48237  0.20685  0.19202  1.0000
  H   H97       1.0  0.02661  0.07018  0.22860  1.0000
  C   C129      1.0  0.34544  0.18485  0.29148  1.0000
  H   H98       1.0  0.16262  0.36574  0.04637  1.0000
  C   C130      1.0  0.47043  0.36536  0.12358  1.0000
  H   H99       1.0  0.00588  0.17190  0.04567  1.0000
  C   C131      1.0  0.30629  0.18131  0.27916  1.0000
  C   C132      1.0  0.24451  0.26865  0.28002  1.0000
  C   C133      1.0  0.05255  0.00728  0.22498  1.0000
  C   C134      1.0  0.07851  0.12597  0.02985  1.0000
  C   C135      1.0  0.28165  0.38383  0.13319  1.0000
  H   H100      1.0  0.19189  0.22740  0.25661  1.0000
  C   C136      1.0  0.13929  0.20732  0.26231  1.0000
  C   C137      1.0  0.05714  0.03358  0.22955  1.0000
  C   C138      1.0  0.21317  0.39919  0.00540  1.0000
  C   C139      1.0  0.27484  0.19826  0.28084  1.0000
  P   P4        1.0  0.40965  0.42195  0.14786  1.0000
  H   H101      1.0  0.34187  0.45413  0.12396  1.0000
  H   H102      1.0  0.23860  0.29368  0.31492  1.0000
  C   C140      1.0  0.16680  0.36694  0.01432  1.0000
  H   H103      1.0  0.03920  0.14012  0.07201  1.0000
  H   H104      1.0  0.44479  0.42796  0.05131  1.0000
  H   H105      1.0  0.42874  0.33788  0.00215  1.0000
  H   H106      1.0  0.17923  0.27578  0.27339  1.0000
  C   C141      1.0  0.36867  0.46604  0.12926  1.0000
  H   H107      1.0  0.42569  0.36717  0.14233  1.0000
  Fe  Fe13      1.0  0.03107  0.26011  0.00518  1.0000
  C   C142      1.0  0.41932  0.43860  0.18877  1.0000
  C   C143      1.0  0.01328  0.15523  0.09667  1.0000
  C   C144      1.0  0.17642  0.37524  0.03496  1.0000
  C   C145      1.0  0.47244  0.39891  0.20554  1.0000
  H   H108      1.0  0.99050  0.05683  0.26079  1.0000
  S   S23       1.0  0.03833  0.13180  0.11473  1.0000
  H   H109      1.0  0.46767  0.46479  0.15648  1.0000
  H   H110      1.0  0.46334  0.43990  0.12027  1.0000
  C   C146      1.0  0.17606  0.22100  0.26836  1.0000
  C   C147      1.0  0.46334  0.22285  0.17579  1.0000
  C   C148      1.0  0.42163  0.17982  0.18650  1.0000
  C   C149      1.0  0.40202  0.44526  0.02594  1.0000
  H   H111      1.0  0.32615  0.47989  0.02855  1.0000
  S   S24       1.0  0.02278  0.09099  0.16431  1.0000
  P   P5        1.0  0.24231  0.24156  0.29695  1.0000
  C   C150      1.0  0.35311  0.20526  0.30566  1.0000
  C   C151      1.0  0.43423  0.43710  0.21024  1.0000
  H   H112      1.0  0.01699  0.24829  0.08914  1.0000
  H   H113      1.0  0.47593  0.17347  0.21038  1.0000
  C   C152      1.0  0.30733  0.48292  0.06817  1.0000
  C   C153      1.0  0.46073  0.41724  0.21863  1.0000
  H   H114      1.0  0.00157  0.19076  0.20242  1.0000
  C   C154      1.0  0.42905  0.45741  0.99593  1.0000
  H   H115      1.0  0.46045  0.17432  0.30911  1.0000
  H   H116      1.0  0.47176  0.34446  0.12397  1.0000
  H   H117      1.0  0.05237  0.12766  0.99699  1.0000
  C   C155      1.0  0.25080  0.25350  0.32332  1.0000
  H   H118      1.0  0.48823  0.48923  0.04785  1.0000
  H   H119      1.0  0.32629  0.34299  0.31961  1.0000
  H   H120      1.0  0.48167  0.30130  0.31704  1.0000
  C   C156      1.0  0.46533  0.41916  0.12168  1.0000
  C   C157      1.0  0.01409  0.99712  0.21578  1.0000
  C   C158      1.0  0.45777  0.40041  0.18406  1.0000
  H   H121      1.0  0.45706  0.22067  0.31794  1.0000
  H   H122      1.0  0.46719  0.38584  0.17440  1.0000
  H   H123      1.0  0.36627  0.46243  0.99853  1.0000
  H   H124      1.0  0.47202  0.41594  0.23527  1.0000
  C   C159      1.0  0.38058  0.28700  0.32430  1.0000
  C   C160      1.0  0.08346  0.16298  0.00829  1.0000
  C   C161      1.0  0.48838  0.18533  0.31442  1.0000
  C   C162      1.0  0.48644  0.21144  0.31937  1.0000
  C   C163      1.0  0.25269  0.44691  0.99404  1.0000
  H   H125      1.0  0.13392  0.27240  0.99405  1.0000
  H   H126      1.0  0.08067  0.28380  0.40835  1.0000
  H   H127      1.0  0.05827  0.27067  0.65565  1.0000
  C   C164      1.0  0.07757  0.32312  0.36711  1.0000
  S   S25       1.0  0.13802  0.19421  0.63295  1.0000
  Fe  Fe14      1.0  0.32299  0.39836  0.42679  1.0000
  S   S26       1.0  0.31009  0.37268  0.45228  1.0000
  S   S27       1.0  0.34450  0.44016  0.43470  1.0000
  Fe  Fe15      1.0  0.31953  0.35192  0.39668  1.0000
  S   S28       1.0  0.30630  0.32331  0.42015  1.0000
  S   S29       1.0  0.32197  0.34515  0.36248  1.0000
  Fe  Fe16      1.0  0.26236  0.35274  0.42784  1.0000
  S   S30       1.0  0.19547  0.34369  0.42951  1.0000
  Fe  Fe17      1.0  0.35468  0.34533  0.44314  1.0000
  S   S31       1.0  0.40168  0.32637  0.46878  1.0000
  S   S32       1.0  0.27237  0.38038  0.40275  1.0000
  S   S33       1.0  0.37066  0.37171  0.41927  1.0000
  C   C165      1.0  0.48432  0.29437  0.34944  1.0000
  C   C166      1.0  0.46619  0.39546  0.40733  1.0000
  C   C167      1.0  0.44550  0.26730  0.61608  1.0000
  Fe  Fe18      1.0  0.04186  0.26936  0.49314  1.0000
  S   S34       1.0  0.10639  0.28612  0.49416  1.0000
  S   S35       1.0  0.03632  0.22608  0.49237  1.0000
  C   C168      1.0  0.17159  0.32721  0.44763  1.0000
  C   C169      1.0  0.12858  0.32480  0.44325  1.0000
  C   C170      1.0  0.10815  0.31203  0.45704  1.0000
  C   C171      1.0  0.13042  0.30163  0.47563  1.0000
  C   C172      1.0  0.17340  0.30431  0.48013  1.0000
  C   C173      1.0  0.19388  0.31686  0.46624  1.0000
  H   H128      1.0  0.11081  0.33313  0.42916  1.0000
  H   H129      1.0  0.07513  0.31080  0.45353  1.0000
  H   H130      1.0  0.19104  0.29654  0.49449  1.0000
  H   H131      1.0  0.22687  0.31860  0.46997  1.0000
  H   H132      1.0  0.09453  0.20189  0.45361  1.0000
  C   C174      1.0  0.38312  0.28290  0.34565  1.0000
  C   C175      1.0  0.36550  0.30037  0.35761  1.0000
  C   C176      1.0  0.34497  0.32224  0.34836  1.0000
  H   H133      1.0  0.45214  0.26475  0.53740  1.0000
  H   H134      1.0  0.01260  0.13622  0.53002  1.0000
  H   H135      1.0  0.39892  0.26611  0.35303  1.0000
  H   H136      1.0  0.36749  0.29677  0.37392  1.0000
  H   H137      1.0  0.15455  0.14055  0.61162  1.0000
  C   C177      1.0  0.45132  0.33996  0.47664  1.0000
  C   C178      1.0  0.31294  0.46474  0.52138  1.0000
  C   C179      1.0  0.42394  0.37508  0.37699  1.0000
  C   C180      1.0  0.16399  0.13507  0.59751  1.0000
  H   H138      1.0  0.47171  0.31071  0.49970  1.0000
  C   C181      1.0  0.47041  0.28208  0.54140  1.0000
  H   H139      1.0  0.44086  0.37169  0.45517  1.0000
  C   C182      1.0  0.10276  0.19521  0.60848  1.0000
  C   C183      1.0  0.07711  0.17439  0.60074  1.0000
  C   C184      1.0  0.04978  0.17623  0.58122  1.0000
  C   C185      1.0  0.04777  0.19876  0.56915  1.0000
  C   C186      1.0  0.07296  0.21969  0.57702  1.0000
  C   C187      1.0  0.10017  0.21792  0.59657  1.0000
  H   H140      1.0  0.07832  0.15691  0.60977  1.0000
  H   H141      1.0  0.03015  0.16000  0.57539  1.0000
  H   H142      1.0  0.07133  0.23727  0.56809  1.0000
  H   H143      1.0  0.11948  0.23424  0.60248  1.0000
  H   H144      1.0  0.37606  0.49061  0.44732  1.0000
  C   C188      1.0  0.32747  0.47148  0.42561  1.0000
  H   H145      1.0  0.25082  0.47146  0.45332  1.0000
  H   H146      1.0  0.27604  0.45881  0.40211  1.0000
  H   H147      1.0  0.30270  0.22567  0.58912  1.0000
  H   H148      1.0  0.25230  0.30945  0.35087  1.0000
  H   H149      1.0  0.36621  0.44023  0.53033  1.0000
  C   C189      1.0  0.06808  0.29295  0.39367  1.0000
  C   C190      1.0  0.19266  0.16146  0.52343  1.0000
  C   C191      1.0  0.09266  0.31066  0.38593  1.0000
  H   H150      1.0  0.24717  0.43300  0.51540  1.0000
  S   S36       1.0  0.22487  0.14406  0.65263  1.0000
  C   C192      1.0  0.39996  0.41234  0.48604  1.0000
  H   H151      1.0  0.41645  0.35891  0.36638  1.0000
  C   C193      1.0  0.48529  0.30995  0.33232  1.0000
  C   C194      1.0  0.43158  0.31898  0.40976  1.0000
  C   C195      1.0  0.41680  0.30070  0.42189  1.0000
  H   H152      1.0  0.03746  0.27448  0.43546  1.0000
  H   H153      1.0  0.38830  0.33742  0.61604  1.0000
  H   H154      1.0  0.40995  0.32956  0.39820  1.0000
  H   H155      1.0  0.38420  0.29764  0.41992  1.0000
  H   H156      1.0  0.33848  0.40708  0.48956  1.0000
  C   C196      1.0  0.34485  0.45285  0.53560  1.0000
  H   H157      1.0  0.34136  0.34355  0.49388  1.0000
  H   H158      1.0  0.06206  0.18328  0.41924  1.0000
  H   H159      1.0  0.32595  0.47669  0.58067  1.0000
  C   C197      1.0  0.37389  0.37911  0.54673  1.0000
  H   H160      1.0  0.01817  0.24212  0.35638  1.0000
  C   C198      1.0  0.42316  0.45653  0.48511  1.0000
  H   H161      1.0  0.41922  0.30519  0.54467  1.0000
  C   C199      1.0  0.39721  0.39604  0.37466  1.0000
  H   H162      1.0  0.45986  0.42324  0.48207  1.0000
  H   H163      1.0  0.19434  0.39957  0.50421  1.0000
  C   C200      1.0  0.25946  0.42355  0.46599  1.0000
  C   C201      1.0  0.16765  0.14452  0.56186  1.0000
  H   H164      1.0  0.19801  0.11530  0.54719  1.0000
  C   C202      1.0  0.29320  0.47530  0.40951  1.0000
  H   H165      1.0  0.22330  0.39706  0.44408  1.0000
  H   H166      1.0  0.27313  0.27925  0.38016  1.0000
  C   C203      1.0  0.03272  0.21876  0.40749  1.0000
  C   C204      1.0  0.03592  0.14359  0.52244  1.0000
  C   C205      1.0  0.36183  0.42107  0.48842  1.0000
  H   H167      1.0  0.40541  0.39181  0.48517  1.0000
  C   C206      1.0  0.01117  0.27353  0.62765  1.0000
  C   C207      1.0  0.18837  0.12116  0.56108  1.0000
  C   C208      1.0  0.05758  0.20340  0.42250  1.0000
  C   C209      1.0  0.15784  0.19908  0.54847  1.0000
  H   H168      1.0  0.21275  0.08691  0.57785  1.0000
  C   C210      1.0  0.38950  0.34982  0.52094  1.0000
  H   H169      1.0  0.47974  0.27375  0.34735  1.0000
  C   C211      1.0  0.40116  0.36193  0.54040  1.0000
  C   C212      1.0  0.26637  0.43418  0.48603  1.0000
  H   H170      1.0  0.17963  0.01809  0.63141  1.0000
  C   C213      1.0  0.46258  0.36239  0.46746  1.0000
  C   C214      1.0  0.24694  0.27990  0.32739  1.0000
  H   H171      1.0  0.11712  0.17428  0.49592  1.0000
  C   C215      1.0  0.26388  0.48897  0.46082  1.0000
  C   C216      1.0  0.07569  0.21381  0.44189  1.0000
  H   H172      1.0  0.27784  0.42959  0.45519  1.0000
  H   H173      1.0  0.29205  0.37198  0.50608  1.0000
  C   C217      1.0  0.04315  0.25473  0.43159  1.0000
  C   C218      1.0  0.27032  0.24565  0.36049  1.0000
  C   C219      1.0  0.22876  0.40500  0.45967  1.0000
  C   C220      1.0  0.21253  0.40639  0.49356  1.0000
  C   C221      1.0  0.41639  0.34171  0.61106  1.0000
  C   C222      1.0  0.45887  0.37466  0.39328  1.0000
  H   H174      1.0  0.18233  0.38146  0.46854  1.0000
  C   C223      1.0  0.24265  0.42538  0.49982  1.0000
  Fe  Fe19      1.0  0.00324  0.22957  0.51833  1.0000
  C   C224      1.0  0.26653  0.27194  0.36436  1.0000
  C   C225      1.0  0.04448  0.23372  0.64086  1.0000
  H   H175      1.0  0.27973  0.23247  0.37334  1.0000
  H   H176      1.0  0.38301  0.38966  0.56119  1.0000
  C   C226      1.0  0.32225  0.47327  0.56416  1.0000
  C   C227      1.0  0.99263  0.23346  0.60891  1.0000
  C   C228      1.0  0.29010  0.48486  0.55012  1.0000
  C   C229      1.0  0.35017  0.35327  0.50878  1.0000
  C   C230      1.0  0.44841  0.17820  0.64686  1.0000
  C   C231      1.0  0.04587  0.31609  0.57100  1.0000
  H   H177      1.0  0.11209  0.02892  0.65607  1.0000
  P   P6        1.0  0.43005  0.23055  0.64428  1.0000
  C   C232      1.0  0.37806  0.22056  0.63299  1.0000
  C   C233      1.0  0.45641  0.24314  0.62517  1.0000
  H   H178      1.0  0.42021  0.27793  0.61975  1.0000
  C   C234      1.0  0.48172  0.38468  0.55197  1.0000
  C   C235      1.0  0.02427  0.30082  0.58250  1.0000
  H   H179      1.0  0.44417  0.43195  0.41622  1.0000
  H   H180      1.0  0.04112  0.29194  0.59652  1.0000
  C   C236      1.0  0.43061  0.43006  0.48430  1.0000
  C   C237      1.0  0.35845  0.22767  0.61276  1.0000
  C   C238      1.0  0.47378  0.32353  0.41264  1.0000
  H   H181      1.0  0.21297  0.12056  0.48642  1.0000
  H   H182      1.0  0.27696  0.18956  0.51148  1.0000
  C   C239      1.0  0.32249  0.36936  0.51565  1.0000
  H   H183      1.0  0.41068  0.33781  0.51495  1.0000
  C   C240      1.0  0.18771  0.23261  0.57308  1.0000
  P   P7        1.0  0.45166  0.35707  0.55644  1.0000
  H   H184      1.0  0.08260  0.24762  0.46139  1.0000
  C   C241      1.0  0.40477  0.41663  0.38868  1.0000
  C   C242      1.0  0.06868  0.23952  0.44636  1.0000
  C   C243      1.0  0.29666  0.20537  0.61673  1.0000
  C   C244      1.0  0.02064  0.22030  0.62413  1.0000
  H   H185      1.0  0.37989  0.48581  0.48801  1.0000
  C   C245      1.0  0.29172  0.48865  0.48011  1.0000
  S   S37       1.0  0.01205  0.27257  0.52077  1.0000
  C   C246      1.0  0.46924  0.15631  0.65580  1.0000
  S   S38       1.0  0.19993  0.06800  0.65013  1.0000
  H   H186      1.0  0.37423  0.23900  0.60318  1.0000
  H   H187      1.0  0.02466  0.19970  0.62270  1.0000
  C   C247      1.0  0.45373  0.34141  0.62549  1.0000
  H   H188      1.0  0.19129  0.09939  0.61015  1.0000
  C   C248      1.0  0.35666  0.20543  0.64483  1.0000
  C   C249      1.0  0.35391  0.44759  0.48906  1.0000
  C   C250      1.0  0.13440  0.24339  0.54330  1.0000
  C   C251      1.0  0.16182  0.25085  0.56149  1.0000
  H   H189      1.0  0.04679  0.16653  0.47572  1.0000
  H   H190      1.0  0.20665  0.19306  0.57553  1.0000
  C   C252      1.0  0.25466  0.28900  0.34783  1.0000
  C   C253      1.0  0.13233  0.21764  0.53683  1.0000
  Fe  Fe20      1.0  0.16566  0.16222  0.65583  1.0000
  H   H191      1.0  0.36972  0.39579  0.36243  1.0000
  H   H192      1.0  0.16392  0.12648  0.50906  1.0000
  C   C254      1.0  0.31785  0.22009  0.60469  1.0000
  S   S39       1.0  0.01284  0.19975  0.54460  1.0000
  H   H193      1.0  0.22850  0.19572  0.53425  1.0000
  H   H194      1.0  0.31336  0.39557  0.53953  1.0000
  H   H195      1.0  0.20858  0.23832  0.58735  1.0000
  H   H196      1.0  0.26955  0.15203  0.48754  1.0000
  H   H197      1.0  0.43218  0.27364  0.44701  1.0000
  C   C255      1.0  0.38504  0.46528  0.48756  1.0000
  H   H198      1.0  0.13917  0.16897  0.58103  1.0000
  H   H199      1.0  0.37446  0.44822  0.56779  1.0000
  C   C256      1.0  0.31612  0.19803  0.63677  1.0000
  H   H200      1.0  0.07857  0.31881  0.57630  1.0000
  H   H201      1.0  0.26512  0.19962  0.61064  1.0000
  C   C257      1.0  0.33455  0.38260  0.53448  1.0000
  H   H202      1.0  0.08259  0.07280  0.65264  1.0000
  P   P8        1.0  0.30567  0.45864  0.49387  1.0000
  H   H203      1.0  0.11432  0.25752  0.53424  1.0000
  H   H204      1.0  0.16276  0.27075  0.56662  1.0000
  C   C258      1.0  0.03958  0.26032  0.64269  1.0000
  H   H205      1.0  0.29970  0.18674  0.64623  1.0000
  H   H206      1.0  0.11052  0.21235  0.52285  1.0000
  H   H207      1.0  0.44664  0.47031  0.48351  1.0000
  C   C259      1.0  0.19296  0.01479  0.64764  1.0000
  C   C260      1.0  0.43921  0.41633  0.40501  1.0000
  C   C261      1.0  0.44393  0.28695  0.43705  1.0000
  H   H208      1.0  0.26583  0.21603  0.33728  1.0000
  H   H209      1.0  0.38319  0.43241  0.38734  1.0000
  P   P9        1.0  0.15628  0.16590  0.53969  1.0000
  H   H210      1.0  0.47826  0.37475  0.51979  1.0000
  H   H211      1.0  0.12341  0.31492  0.39470  1.0000
  C   C262      1.0  0.28532  0.48054  0.52881  1.0000
  C   C263      1.0  0.18861  0.14031  0.50978  1.0000
  C   C264      1.0  0.07563  0.14792  0.53402  1.0000
  C   C265      1.0  0.20558  0.39622  0.47348  1.0000
  C   C266      1.0  0.19684  0.10495  0.57845  1.0000
  C   C267      1.0  0.41535  0.34702  0.59015  1.0000
  C   C268      1.0  0.34956  0.45723  0.55690  1.0000
  C   C269      1.0  0.02567  0.15014  0.50143  1.0000
  C   C270      1.0  0.45170  0.35264  0.58362  1.0000
  H   H212      1.0  0.26001  0.48946  0.51810  1.0000
  C   C271      1.0  0.45180  0.30511  0.54531  1.0000
  H   H213      1.0  0.42587  0.17616  0.63244  1.0000
  H   H214      1.0  0.04221  0.33904  0.54343  1.0000
  H   H215      1.0  0.38629  0.34601  0.57916  1.0000
  C   C272      1.0  0.21632  0.13690  0.49693  1.0000
  C   C273      1.0  0.25241  0.17573  0.51108  1.0000
  C   C274      1.0  0.02545  0.32753  0.55252  1.0000
  H   H216      1.0  0.45476  0.33694  0.64165  1.0000
  C   C275      1.0  0.18618  0.20689  0.56645  1.0000
  C   C276      1.0  0.22480  0.17916  0.52400  1.0000
  C   C277      1.0  0.47516  0.32780  0.55000  1.0000
  H   H217      1.0  0.08233  0.14358  0.55042  1.0000
  C   C278      1.0  0.05526  0.16078  0.49188  1.0000
  C   C279      1.0  0.26244  0.23643  0.34006  1.0000
  H   H218      1.0  0.06716  0.22346  0.65220  1.0000
  C   C280      1.0  0.10552  0.15876  0.52460  1.0000
  C   C281      1.0  0.15538  0.15119  0.58017  1.0000
  H   H219      1.0  0.00810  0.29421  0.62912  1.0000
  C   C282      1.0  0.09502  0.16514  0.50340  1.0000
  C   C283      1.0  0.24819  0.15462  0.49756  1.0000
  C   C284      1.0  0.18472  0.11192  0.59667  1.0000
  H   H220      1.0  0.46236  0.13760  0.64848  1.0000
  C   C285      1.0  0.45646  0.20245  0.65652  1.0000
  C   C286      1.0  0.46789  0.27821  0.60261  1.0000
  H   H221      1.0  0.45968  0.29689  0.59574  1.0000
  H   H222      1.0  0.48534  0.29293  0.38189  1.0000
  C   C287      1.0  0.48002  0.32814  0.49259  1.0000
  H   H223      1.0  0.09668  0.33698  0.36128  1.0000
  C   C288      1.0  0.02559  0.24464  0.41191  1.0000
  C   C289      1.0  0.48603  0.29090  0.43970  1.0000
  P   P10       1.0  0.99519  0.26524  0.39254  1.0000
  H   H224      1.0  0.01859  0.21017  0.39273  1.0000
  H   H225      1.0  0.99451  0.14766  0.49268  1.0000
  H   H226      1.0  0.02614  0.32760  0.34139  1.0000
  C   C290      1.0  0.02805  0.28753  0.38258  1.0000
  C   C291      1.0  0.34939  0.49327  0.43497  1.0000
  C   C292      1.0  0.01318  0.30014  0.36363  1.0000
  C   C293      1.0  0.03787  0.31783  0.35594  1.0000
  C   C294      1.0  0.48712  0.30544  0.36902  1.0000
  C   C295      1.0  0.34213  0.32619  0.32698  1.0000
  Fe  Fe21      1.0  0.25037  0.15671  0.68572  1.0000
  S   S40       1.0  0.30528  0.18535  0.69325  1.0000
  Fe  Fe22      1.0  0.17130  0.13739  0.69910  1.0000
  S   S41       1.0  0.14659  0.12677  0.72787  1.0000
  C   C296      1.0  0.45669  0.27174  0.76162  1.0000
  C   C297      1.0  0.41088  0.25605  0.82649  1.0000
  S   S42       1.0  0.23230  0.11894  0.69873  1.0000
  S   S43       1.0  0.19137  0.17573  0.68866  1.0000
  C   C298      1.0  0.29781  0.47128  0.94696  1.0000
  P   P11       1.0  0.13272  0.02766  0.73282  1.0000
  H   H227      1.0  0.09666  0.07764  0.71855  1.0000
  H   H228      1.0  0.27194  0.48265  0.94904  1.0000
  C   C299      1.0  0.48026  0.26820  0.85721  1.0000
  H   H229      1.0  0.07448  0.09685  0.68410  1.0000
  C   C300      1.0  0.18416  0.40800  0.92423  1.0000
  H   H230      1.0  0.01177  0.19981  0.80505  1.0000
  H   H231      1.0  0.13311  0.00888  0.69025  1.0000
  H   H232      1.0  0.37243  0.14984  0.71124  1.0000
  C   C301      1.0  0.39356  0.26248  0.66940  1.0000
  H   H233      1.0  0.10962  0.05644  0.80103  1.0000
  C   C302      1.0  0.35902  0.18959  0.70352  1.0000
  C   C303      1.0  0.37614  0.21457  0.70391  1.0000
  C   C304      1.0  0.41837  0.21909  0.71186  1.0000
  C   C305      1.0  0.44411  0.19869  0.72000  1.0000
  C   C306      1.0  0.42698  0.17375  0.71973  1.0000
  C   C307      1.0  0.38490  0.16915  0.71138  1.0000
  H   H234      1.0  0.35639  0.23057  0.69814  1.0000
  H   H235      1.0  0.43083  0.23841  0.71210  1.0000
  H   H236      1.0  0.44644  0.15779  0.72601  1.0000
  H   H237      1.0  0.07612  0.17230  0.99323  1.0000
  C   C308      1.0  0.09896  0.13379  0.73444  1.0000
  C   C309      1.0  0.08873  0.12118  0.75153  1.0000
  C   C310      1.0  0.05226  0.12704  0.75798  1.0000
  C   C311      1.0  0.02571  0.14580  0.74748  1.0000
  C   C312      1.0  0.03565  0.15809  0.73021  1.0000
  C   C313      1.0  0.07192  0.15205  0.72364  1.0000
  H   H238      1.0  0.10933  0.10693  0.75995  1.0000
  H   H239      1.0  0.04509  0.11746  0.77130  1.0000
  C   C314      1.0  0.23082  0.46819  0.98420  1.0000
  H   H240      1.0  0.07934  0.16192  0.71049  1.0000
  H   H241      1.0  0.37108  0.19962  0.66048  1.0000
  H   H242      1.0  0.26154  0.44635  0.92388  1.0000
  C   C315      1.0  0.25408  0.02883  0.76198  1.0000
  C   C316      1.0  0.26754  0.05257  0.75589  1.0000
  C   C317      1.0  0.39298  0.28333  0.68281  1.0000
  C   C318      1.0  0.33710  0.47731  0.95827  1.0000
  H   H243      1.0  0.37315  0.35404  0.97593  1.0000
  C   C319      1.0  0.21269  0.40790  0.94318  1.0000
  H   H244      1.0  0.31772  0.42795  0.97829  1.0000
  C   C320      1.0  0.31592  0.40722  0.97951  1.0000
  C   C321      1.0  0.29195  0.45080  0.93282  1.0000
  C   C322      1.0  0.46546  0.29361  0.75100  1.0000
  H   H245      1.0  0.45483  0.29465  0.73435  1.0000
  C   C323      1.0  0.37107  0.46297  0.95548  1.0000
  H   H246      1.0  0.37684  0.40167  0.97441  1.0000
  C   C324      1.0  0.32538  0.43624  0.93009  1.0000
  H   H247      1.0  0.31624  0.24620  0.75352  1.0000
  C   C325      1.0  0.21311  0.02137  0.75524  1.0000
  C   C326      1.0  0.46859  0.43214  0.95802  1.0000
  H   H248      1.0  0.43598  0.19014  0.77942  1.0000
  H   H249      1.0  0.20476  0.28567  0.99248  1.0000
  H   H250      1.0  0.38362  0.25141  0.81494  1.0000
  C   C327      1.0  0.20058  0.41431  0.96162  1.0000
  C   C328      1.0  0.03665  0.05413  0.75637  1.0000
  C   C329      1.0  0.36478  0.44227  0.94134  1.0000
  H   H251      1.0  0.45250  0.41905  0.96631  1.0000
  C   C330      1.0  0.37557  0.19263  0.76058  1.0000
  H   H252      1.0  0.00451  0.05833  0.75057  1.0000
  C   C331      1.0  0.18538  0.03753  0.74211  1.0000
  C   C332      1.0  0.42800  0.29849  0.68942  1.0000
  C   C333      1.0  0.44995  0.25301  0.82229  1.0000
  P   P12       1.0  0.45649  0.24242  0.79705  1.0000
  H   H253      1.0  0.02091  0.00274  0.76583  1.0000
  C   C334      1.0  0.28083  0.39525  0.98369  1.0000
  H   H254      1.0  0.36588  0.25122  0.66448  1.0000
  C   C335      1.0  0.40664  0.26529  0.84585  1.0000
  H   H255      1.0  0.27547  0.01609  0.77179  1.0000
  C   C336      1.0  0.34189  0.20834  0.75307  1.0000
  H   H256      1.0  0.36528  0.28765  0.68809  1.0000
  C   C337      1.0  0.22861  0.00582  0.68917  1.0000
  C   C338      1.0  0.10727  0.03903  0.66972  1.0000
  C   C339      1.0  0.34217  0.23398  0.75967  1.0000
  C   C340      1.0  0.46382  0.29259  0.68287  1.0000
  P   P13       1.0  0.42175  0.47125  0.97023  1.0000
  H   H257      1.0  0.39002  0.43081  0.93870  1.0000
  H   H258      1.0  0.15202  0.04047  0.77740  1.0000
  C   C341      1.0  0.19912  0.06145  0.73623  1.0000
  C   C342      1.0  0.41043  0.22834  0.78123  1.0000
  C   C343      1.0  0.22421  0.15752  0.86838  1.0000
  C   C344      1.0  0.23901  0.13718  0.88175  1.0000
  C   C345      1.0  0.21167  0.12107  0.88908  1.0000
  C   C346      1.0  0.16951  0.12509  0.88284  1.0000
  C   C347      1.0  0.15439  0.14495  0.86887  1.0000
  C   C348      1.0  0.18206  0.16160  0.86215  1.0000
  P   P14       1.0  0.10018  0.15092  0.86163  1.0000
  C   C349      1.0  0.08587  0.16358  0.83562  1.0000
  C   C350      1.0  0.07159  0.12119  0.86079  1.0000
  C   C351      1.0  0.08604  0.09842  0.85339  1.0000
  C   C352      1.0  0.06340  0.07551  0.85248  1.0000
  C   C353      1.0  0.02614  0.07526  0.85874  1.0000
  H   H259      1.0  0.09953  0.42578  0.94138  1.0000
  C   C354      1.0  0.03339  0.12097  0.86625  1.0000
  C   C355      1.0  0.05148  0.17948  0.82994  1.0000
  C   C356      1.0  0.03904  0.18817  0.80951  1.0000
  C   C357      1.0  0.06083  0.18104  0.79461  1.0000
  C   C358      1.0  0.09467  0.16486  0.80003  1.0000
  C   C359      1.0  0.10687  0.15586  0.82038  1.0000
  C   C360      1.0  0.08946  0.17279  0.88108  1.0000
  C   C361      1.0  0.09048  0.19960  0.87816  1.0000
  C   C362      1.0  0.08311  0.21644  0.89352  1.0000
  C   C363      1.0  0.07546  0.20664  0.91203  1.0000
  C   C364      1.0  0.07542  0.18002  0.91526  1.0000
  C   C365      1.0  0.08272  0.16315  0.89994  1.0000
  H   H260      1.0  0.24539  0.17023  0.86291  1.0000
  H   H261      1.0  0.27167  0.13406  0.88659  1.0000
  H   H262      1.0  0.22313  0.10555  0.89970  1.0000
  H   H263      1.0  0.14875  0.11277  0.88899  1.0000
  H   H264      1.0  0.17109  0.17775  0.85211  1.0000
  H   H265      1.0  0.11438  0.09844  0.84804  1.0000
  C   C366      1.0  0.47044  0.27005  0.78326  1.0000
  H   H266      1.0  0.12128  0.41442  0.90890  1.0000
  H   H267      1.0  0.11068  0.15877  0.78822  1.0000
  H   H268      1.0  0.02055  0.13863  0.87068  1.0000
  H   H269      1.0  0.03358  0.18460  0.84113  1.0000
  H   H270      1.0  0.34092  0.49332  0.96914  1.0000
  H   H271      1.0  0.24321  0.00255  0.70525  1.0000
  H   H272      1.0  0.17799  0.37158  0.98382  1.0000
  H   H273      1.0  0.13219  0.14256  0.82406  1.0000
  H   H274      1.0  0.09683  0.20754  0.86403  1.0000
  H   H275      1.0  0.08303  0.23709  0.89104  1.0000
  H   H276      1.0  0.06896  0.21960  0.92381  1.0000
  H   H277      1.0  0.06885  0.17249  0.92952  1.0000
  H   H278      1.0  0.08269  0.14258  0.90280  1.0000
  H   H279      1.0  0.37665  0.26416  0.77801  1.0000
  C   C367      1.0  0.24000  0.06892  0.74314  1.0000
  C   C368      1.0  0.09861  0.06622  0.70504  1.0000
  H   H280      1.0  0.04595  0.04174  0.72678  1.0000
  H   H281      1.0  0.00824  0.05760  0.85765  1.0000
  C   C369      1.0  0.48603  0.20447  0.67511  1.0000
  C   C370      1.0  0.46029  0.45877  0.95732  1.0000
  C   C371      1.0  0.34928  0.39240  0.97696  1.0000
  H   H282      1.0  0.17853  0.07441  0.72623  1.0000
  C   C372      1.0  0.09594  0.05314  0.78480  1.0000
  H   H283      1.0  0.25255  0.35830  0.98760  1.0000
  C   C373      1.0  0.44129  0.27157  0.86113  1.0000
  S   S44       1.0  0.99050  0.12473  0.81327  1.0000
  S   S45       1.0  0.14084  0.12531  0.66658  1.0000
  C   C374      1.0  0.05437  0.05814  0.77733  1.0000
  H   H284      1.0  0.37563  0.17294  0.75501  1.0000
  C   C375      1.0  0.11986  0.04413  0.77133  1.0000
  C   C376      1.0  0.37630  0.24399  0.77364  1.0000
  H   H285      1.0  0.24402  0.40265  0.94337  1.0000
  H   H286      1.0  0.37643  0.26785  0.84893  1.0000
  C   C377      1.0  0.11940  0.02775  0.68930  1.0000
  H   H287      1.0  0.25022  0.08741  0.73845  1.0000
  C   C378      1.0  0.09070  0.06380  0.66778  1.0000
  H   H288      1.0  0.00602  0.00483  0.71259  1.0000
  C   C379      1.0  0.11483  0.04116  0.70717  1.0000
  C   C380      1.0  0.22263  0.03143  0.68179  1.0000
  H   H289      1.0  0.29931  0.05831  0.76097  1.0000
  C   C381      1.0  0.10227  0.04003  0.75024  1.0000
  H   H290      1.0  0.43952  0.25610  0.75278  1.0000
  C   C382      1.0  0.46466  0.27168  0.66955  1.0000
  C   C383      1.0  0.40978  0.20253  0.77454  1.0000
  H   H291      1.0  0.42749  0.31477  0.69967  1.0000
  Fe  Fe23      1.0  0.20211  0.10780  0.66593  1.0000
  H   H292      1.0  0.23240  0.04751  0.69219  1.0000
  H   H293      1.0  0.31598  0.20075  0.74173  1.0000
  C   C384      1.0  0.27910  0.36819  0.98448  1.0000
  H   H294      1.0  0.45383  0.32798  0.97016  1.0000
  C   C385      1.0  0.42940  0.25649  0.66259  1.0000
  H   H295      1.0  0.32089  0.42035  0.91911  1.0000
  C   C386      1.0  0.06032  0.04483  0.74293  1.0000
  C   C387      1.0  0.08619  0.07733  0.68544  1.0000
  P   P15       1.0  0.23699  0.41419  0.98621  1.0000
  H   H296      1.0  0.19355  0.40286  0.91004  1.0000
  C   C388      1.0  0.13117  0.42088  0.94187  1.0000
  C   C389      1.0  0.34737  0.36552  0.97795  1.0000
  H   H297      1.0  0.05070  0.18739  0.77868  1.0000
  H   H298      1.0  0.07403  0.05800  0.84643  1.0000
  H   H299      1.0  0.03582  0.06526  0.78773  1.0000
  C   C390      1.0  0.14343  0.41448  0.92357  1.0000
  H   H300      1.0  0.43799  0.27919  0.87599  1.0000
  C   C391      1.0  0.15961  0.42081  0.96083  1.0000
  C   C392      1.0  0.48258  0.47513  0.94678  1.0000
  C   C393      1.0  0.47007  0.34193  0.98119  1.0000
  H   H301      1.0  0.31112  0.33258  0.98299  1.0000
  C   C394      1.0  0.31233  0.35343  0.98172  1.0000
  C   C395      1.0  0.01093  0.09803  0.86541  1.0000
  H   H302      1.0  0.00470  0.00055  0.81977  1.0000
  H   H303      1.0  0.01534  0.17259  0.72195  1.0000
  H   H304      1.0  0.20328  0.00293  0.76017  1.0000
  S   S46       1.0  0.99963  0.25957  0.97110  1.0000
  C   C396      1.0  0.20533  0.03614  0.66084  1.0000
  H   H305      1.0  0.20400  0.46555  0.97188  1.0000
  H   H306      1.0  0.14965  0.42579  0.97490  1.0000
  H   H307      1.0  0.04856  0.99725  0.68713  1.0000
  H   H308      1.0  0.48355  0.20330  0.82903  1.0000
  C   C397      1.0  0.48458  0.25866  0.83799  1.0000
  S   S47       1.0  0.99235  0.18397  0.95296  1.0000
  C   C398      1.0  0.24334  0.49336  0.99032  1.0000
  C   C399      1.0  0.20239  0.59138  0.18209  1.0000
  H   H309      1.0  0.00883  0.95360  0.31326  1.0000
  S   S48       1.0  0.07908  0.82351  0.19115  1.0000
  Fe  Fe24      1.0  0.37347  0.74876  0.24521  1.0000
  S   S49       1.0  0.37806  0.70546  0.24537  1.0000
  S   S50       1.0  0.30719  0.75878  0.22952  1.0000
  Fe  Fe25      1.0  0.41689  0.70910  0.27765  1.0000
  S   S51       1.0  0.40341  0.67828  0.30037  1.0000
  Fe  Fe26      1.0  0.43499  0.71085  0.23334  1.0000
  S   S52       1.0  0.44960  0.68383  0.20829  1.0000
  S   S53       1.0  0.40918  0.75216  0.27840  1.0000
  S   S54       1.0  0.42933  0.75411  0.23165  1.0000
  Fe  Fe27      1.0  0.37500  0.63839  0.08651  1.0000
  S   S55       1.0  0.32554  0.60793  0.07812  1.0000
  S   S56       1.0  0.36971  0.66862  0.11146  1.0000
  Fe  Fe28      1.0  0.41192  0.62429  0.04819  1.0000
  S   S57       1.0  0.36310  0.59436  0.03710  1.0000
  H   H310      1.0  0.06189  0.92832  0.30165  1.0000
  Fe  Fe29      1.0  0.31841  0.62321  0.04557  1.0000
  S   S58       1.0  0.25424  0.62850  0.02490  1.0000
  Fe  Fe30      1.0  0.37380  0.58164  0.07035  1.0000
  S   S59       1.0  0.39413  0.54016  0.07930  1.0000
  S   S60       1.0  0.36653  0.65428  0.05395  1.0000
  S   S61       1.0  0.42388  0.61099  0.08152  1.0000
  Fe  Fe31      1.0  0.12159  0.85744  0.19813  1.0000
  H   H311      1.0  0.09570  0.68595  0.07306  1.0000
  S   S62       1.0  0.18746  0.85577  0.21699  1.0000
  Fe  Fe32      1.0  0.05712  0.89489  0.17523  1.0000
  S   S63       1.0  0.03415  0.93557  0.16573  1.0000
  S   S64       1.0  0.07461  0.88259  0.20861  1.0000
  S   S65       1.0  0.10726  0.87234  0.16528  1.0000
  C   C400      1.0  0.32603  0.50755  0.06976  1.0000
  C   C401      1.0  0.00315  0.94349  0.25442  1.0000
  C   C402      1.0  0.30651  0.73347  0.08086  1.0000
  C   C403      1.0  0.05806  0.96605  0.17279  1.0000
  C   C404      1.0  0.17607  0.68210  0.32345  1.0000
  C   C405      1.0  0.15645  0.66216  0.31055  1.0000
  H   H312      1.0  0.06047  0.76884  0.10302  1.0000
  C   C406      1.0  0.36871  0.50982  0.07439  1.0000
  C   C407      1.0  0.01004  0.82860  0.07322  1.0000
  H   H313      1.0  0.27714  0.74125  0.14456  1.0000
  H   H314      1.0  0.43478  0.50804  0.00545  1.0000
  H   H315      1.0  0.30747  0.52476  0.06806  1.0000
  C   C408      1.0  0.21672  0.65289  0.02493  1.0000
  H   H316      1.0  0.42712  0.83742  0.20144  1.0000
  H   H317      1.0  0.35370  0.83557  0.20209  1.0000
  C   C409      1.0  0.15424  0.69016  0.02444  1.0000
  C   C410      1.0  0.19313  0.69295  0.03774  1.0000
  C   C411      1.0  0.22427  0.67462  0.03786  1.0000
  C   C412      1.0  0.09775  0.68964  0.29847  1.0000
  C   C413      1.0  0.33317  0.64014  0.17792  1.0000
  H   H318      1.0  0.25410  0.67732  0.04794  1.0000
  H   H319      1.0  0.26200  0.78468  0.12190  1.0000
  C   C414      1.0  0.04611  0.84695  0.29110  1.0000
  C   C415      1.0  0.27506  0.78631  0.22601  1.0000
  C   C416      1.0  0.28842  0.81058  0.23413  1.0000
  C   C417      1.0  0.26115  0.83158  0.23129  1.0000
  C   C418      1.0  0.22050  0.82869  0.22008  1.0000
  C   C419      1.0  0.20734  0.80450  0.21173  1.0000
  C   C420      1.0  0.23448  0.78346  0.21472  1.0000
  H   H320      1.0  0.31961  0.81316  0.24269  1.0000
  H   H321      1.0  0.27162  0.85024  0.23778  1.0000
  H   H322      1.0  0.17621  0.80201  0.20304  1.0000
  H   H323      1.0  0.22385  0.76482  0.20830  1.0000
  C   C421      1.0  0.42772  0.68082  0.18121  1.0000
  C   C422      1.0  0.44384  0.66233  0.16955  1.0000
  C   C423      1.0  0.42642  0.65817  0.14830  1.0000
  C   C424      1.0  0.39293  0.67277  0.13829  1.0000
  C   C425      1.0  0.37741  0.69172  0.14982  1.0000
  C   C426      1.0  0.39443  0.69562  0.17116  1.0000
  C   C427      1.0  0.15973  0.62926  0.17997  1.0000
  H   H324      1.0  0.43890  0.64367  0.13967  1.0000
  H   H325      1.0  0.35188  0.70336  0.14220  1.0000
  H   H326      1.0  0.38163  0.70987  0.17988  1.0000
  C   C428      1.0  0.23294  0.74946  0.09066  1.0000
  C   C429      1.0  0.02618  0.82309  0.28765  1.0000
  H   H327      1.0  0.11470  0.95118  0.19065  1.0000
  C   C430      1.0  0.03646  0.98867  0.16567  1.0000
  H   H328      1.0  0.31364  0.79560  0.19156  1.0000
  H   H329      1.0  0.14917  0.80489  0.15709  1.0000
  C   C431      1.0  0.17786  0.65015  0.01160  1.0000
  C   C432      1.0  0.03708  0.93661  0.29027  1.0000
  C   C433      1.0  0.30882  0.71455  0.29781  1.0000
  H   H330      1.0  0.17372  0.78477  0.24521  1.0000
  C   C434      1.0  0.41000  0.81986  0.19661  1.0000
  H   H331      1.0  0.18410  0.69787  0.27725  1.0000
  C   C435      1.0  0.13936  0.86494  0.25778  1.0000
  C   C436      1.0  0.31616  0.61349  0.14699  1.0000
  C   C437      1.0  0.17387  0.80010  0.14951  1.0000
  C   C438      1.0  0.26086  0.71313  0.18856  1.0000
  H   H332      1.0  0.32873  0.72265  0.28848  1.0000
  C   C439      1.0  0.13498  0.81972  0.26618  1.0000
  H   H333      1.0  0.13780  0.69246  0.13928  1.0000
  H   H334      1.0  0.34701  0.75747  0.17973  1.0000
  C   C440      1.0  0.03297  0.84833  0.32574  1.0000
  C   C441      1.0  0.48535  0.62885  0.01196  1.0000
  Fe  Fe33      1.0  0.06183  0.83945  0.15855  1.0000
  C   C442      1.0  0.13668  0.69976  0.12383  1.0000
  C   C443      1.0  0.11375  0.68674  0.10656  1.0000
  C   C444      1.0  0.14687  0.66866  0.01128  1.0000
  H   H335      1.0  0.17139  0.64378  0.30991  1.0000
  C   C445      1.0  0.23472  0.64627  0.12527  1.0000
  C   C446      1.0  0.26050  0.65033  0.11141  1.0000
  C   C447      1.0  0.24519  0.64860  0.09000  1.0000
  C   C448      1.0  0.20388  0.64307  0.08217  1.0000
  C   C449      1.0  0.17782  0.63922  0.09579  1.0000
  C   C450      1.0  0.19308  0.64082  0.11726  1.0000
  C   C451      1.0  0.18086  0.71690  0.27035  1.0000
  H   H336      1.0  0.17690  0.73153  0.13471  1.0000
  H   H337      1.0  0.25144  0.66096  0.30064  1.0000
  C   C452      1.0  0.15692  0.77079  0.05547  1.0000
  H   H338      1.0  0.99344  0.79356  0.30011  1.0000
  H   H339      1.0  0.29266  0.65452  0.11719  1.0000
  H   H340      1.0  0.26553  0.65126  0.07943  1.0000
  H   H341      1.0  0.19219  0.64154  0.06553  1.0000
  H   H342      1.0  0.14584  0.63481  0.08961  1.0000
  H   H343      1.0  0.17231  0.63757  0.12743  1.0000
  C   C453      1.0  0.17987  0.86571  0.26893  1.0000
  C   C454      1.0  0.19813  0.84350  0.27867  1.0000
  C   C455      1.0  0.25396  0.79471  0.29543  1.0000
  C   C456      1.0  0.27546  0.78505  0.28105  1.0000
  C   C457      1.0  0.31794  0.78754  0.28471  1.0000
  H   H344      1.0  0.42887  0.55534  0.00693  1.0000
  H   H345      1.0  0.13607  0.80780  0.09469  1.0000
  H   H346      1.0  0.00044  0.87837  0.24410  1.0000
  H   H347      1.0  0.46375  0.53070  0.05928  1.0000
  H   H348      1.0  0.00599  0.98711  0.15604  1.0000
  H   H349      1.0  0.12592  0.88207  0.24981  1.0000
  H   H350      1.0  0.19757  0.88335  0.26936  1.0000
  H   H351      1.0  0.22979  0.84453  0.28686  1.0000
  H   H352      1.0  0.25968  0.71797  0.20441  1.0000
  H   H353      1.0  0.09149  0.81546  0.02922  1.0000
  C   C458      1.0  0.04623  0.78559  0.09480  1.0000
  C   C459      1.0  0.16778  0.60364  0.18603  1.0000
  H   H354      1.0  0.22804  0.70975  0.10033  1.0000
  H   H355      1.0  0.19912  0.73636  0.29955  1.0000
  H   H356      1.0  0.13285  0.63874  0.18299  1.0000
  C   C460      1.0  0.22904  0.60471  0.17211  1.0000
  Fe  Fe34      1.0  0.46624  0.75440  0.26482  1.0000
  C   C461      1.0  0.11262  0.69615  0.08663  1.0000
  H   H357      1.0  0.47218  0.81104  0.23307  1.0000
  C   C462      1.0  0.11104  0.80571  0.04214  1.0000
  H   H358      1.0  0.02168  0.84761  0.10325  1.0000
  H   H359      1.0  0.33492  0.72713  0.07714  1.0000
  C   C463      1.0  0.38205  0.60910  0.17064  1.0000
  H   H360      1.0  0.99628  0.84545  0.06492  1.0000
  H   H361      1.0  0.29519  0.60729  0.13293  1.0000
  H   H362      1.0  0.06747  0.69251  0.28885  1.0000
  H   H363      1.0  0.31172  0.77242  0.07046  1.0000
  C   C464      1.0  0.26706  0.73262  0.17497  1.0000
  H   H364      1.0  0.17331  0.75378  0.05240  1.0000
  S   S66       1.0  0.00452  0.72997  0.02712  1.0000
  S   S67       1.0  0.11626  0.71397  0.02518  1.0000
  C   C465      1.0  0.36430  0.77509  0.18404  1.0000
  C   C466      1.0  0.34558  0.79653  0.19074  1.0000
  C   C467      1.0  0.36830  0.81900  0.19681  1.0000
  C   C468      1.0  0.18896  0.73882  0.28300  1.0000
  C   C469      1.0  0.11315  0.81443  0.06238  1.0000
  C   C470      1.0  0.11698  0.84191  0.25624  1.0000
  C   C471      1.0  0.17588  0.82027  0.27731  1.0000
  C   C472      1.0  0.15843  0.72217  0.12117  1.0000
  Fe  Fe35      1.0  0.03082  0.84955  0.19911  1.0000
  H   H365      1.0  0.16387  0.70255  0.23898  1.0000
  H   H366      1.0  0.09548  0.83106  0.06506  1.0000
  H   H367      1.0  0.25969  0.77580  0.26681  1.0000
  C   C473      1.0  0.11735  0.70968  0.31108  1.0000
  C   C474      1.0  0.09761  0.96837  0.18511  1.0000
  C   C475      1.0  0.29017  0.69057  0.29256  1.0000
  C   C476      1.0  0.40051  0.50823  0.12999  1.0000
  H   H368      1.0  0.27557  0.81088  0.15382  1.0000
  H   H369      1.0  0.19940  0.70947  0.04799  1.0000
  C   C477      1.0  0.29344  0.75893  0.07716  1.0000
  H   H370      1.0  0.14719  0.59326  0.19376  1.0000
  H   H371      1.0  0.12756  0.81069  0.30583  1.0000
  C   C478      1.0  0.16958  0.71953  0.24880  1.0000
  H   H372      1.0  0.15878  0.74620  0.22316  1.0000
  H   H373      1.0  0.05761  0.85612  0.27877  1.0000
  C   C479      1.0  0.18528  0.76356  0.27421  1.0000
  C   C480      1.0  0.26733  0.70060  0.14822  1.0000
  C   C481      1.0  0.30284  0.72762  0.31542  1.0000
  C   C482      1.0  0.00960  0.81179  0.30324  1.0000
  C   C483      1.0  0.13357  0.71882  0.08397  1.0000
  C   C484      1.0  0.42946  0.79800  0.19071  1.0000
  P   P16       1.0  0.19889  0.79171  0.29050  1.0000
  C   C485      1.0  0.37118  0.62806  0.18348  1.0000
  H   H374      1.0  0.27164  0.69605  0.13288  1.0000
  H   H375      1.0  0.11715  0.80206  0.26491  1.0000
  H   H376      1.0  0.33397  0.78033  0.27330  1.0000
  H   H377      1.0  0.24706  0.78674  0.07916  1.0000
  C   C486      1.0  0.25743  0.68741  0.18195  1.0000
  C   C487      1.0  0.02455  0.82992  0.09497  1.0000
  C   C488      1.0  0.22132  0.63050  0.16610  1.0000
  H   H378      1.0  0.13212  0.72559  0.06838  1.0000
  H   H379      1.0  0.29589  0.68025  0.27919  1.0000
  C   C489      1.0  0.21342  0.80929  0.15762  1.0000
  C   C490      1.0  0.17466  0.76600  0.25251  1.0000
  C   C491      1.0  0.16659  0.74407  0.23989  1.0000
  C   C492      1.0  0.24609  0.72382  0.09411  1.0000
  H   H380      1.0  0.32600  0.65517  0.18792  1.0000
  C   C493      1.0  0.19733  0.77943  0.12110  1.0000
  C   C494      1.0  0.13317  0.78400  0.03869  1.0000
  H   H381      1.0  0.11722  0.66615  0.00098  1.0000
  C   C495      1.0  0.25681  0.76694  0.08206  1.0000
  H   H382      1.0  0.25974  0.81547  0.32446  1.0000
  C   C496      1.0  0.25956  0.68101  0.16151  1.0000
  C   C497      1.0  0.15650  0.73214  0.10119  1.0000
  C   C498      1.0  0.16583  0.78520  0.13138  1.0000
  H   H383      1.0  0.13104  0.77685  0.02305  1.0000
  S   S68       1.0  0.06100  0.80847  0.13340  1.0000
  H   H384      1.0  0.41212  0.60047  0.17465  1.0000
  C   C499      1.0  0.33949  0.79961  0.30275  1.0000
  C   C500      1.0  0.11730  0.66590  0.29821  1.0000
  S   S69       1.0  0.01031  0.86284  0.16602  1.0000
  S   S70       1.0  0.47530  0.71126  0.26575  1.0000
  C   C501      1.0  0.27077  0.72632  0.15487  1.0000
  C   C502      1.0  0.23705  0.78872  0.12939  1.0000
  C   C503      1.0  0.31836  0.80950  0.31709  1.0000
  H   H385      1.0  0.48572  0.57195  0.04617  1.0000
  C   C504      1.0  0.35457  0.60184  0.15239  1.0000
  C   C505      1.0  0.18269  0.78779  0.31477  1.0000
  C   C506      1.0  0.99594  0.69691  0.07063  1.0000
  C   C507      1.0  0.28285  0.71597  0.08931  1.0000
  C   C508      1.0  0.26550  0.67962  0.30490  1.0000
  H   H386      1.0  0.36325  0.58743  0.14227  1.0000
  C   C509      1.0  0.04273  0.80836  0.10592  1.0000
  H   H387      1.0  0.25557  0.59480  0.16913  1.0000
  C   C510      1.0  0.26003  0.69235  0.32290  1.0000
  P   P17       1.0  0.25538  0.64772  0.15300  1.0000
  H   H388      1.0  0.08590  0.84118  0.24703  1.0000
  C   C511      1.0  0.03511  0.93276  0.26910  1.0000
  H   H389      1.0  0.27006  0.75249  0.18029  1.0000
  H   H390      1.0  0.03511  0.76668  0.06479  1.0000
  C   C512      1.0  0.13625  0.80099  0.07924  1.0000
  Fe  Fe36      1.0  0.05123  0.72461  0.00751  1.0000
  H   H391      1.0  0.17963  0.66244  0.16532  1.0000
  H   H392      1.0  0.33837  0.49986  0.11454  1.0000
  C   C513      1.0  0.48370  0.53055  0.04833  1.0000
  H   H393      1.0  0.00143  0.94035  0.23801  1.0000
  C   C514      1.0  0.00694  0.95105  0.29680  1.0000
  H   H394      1.0  0.20863  0.57151  0.18676  1.0000
  H   H395      1.0  0.25377  0.67255  0.19292  1.0000
  H   H396      1.0  0.31799  0.74599  0.31962  1.0000
  H   H397      1.0  0.37252  0.80149  0.30546  1.0000
  H   H398      1.0  0.41975  0.75876  0.17899  1.0000
  H   H399      1.0  0.05825  0.92142  0.26403  1.0000
  S   S71       1.0  0.47224  0.62661  0.03670  1.0000
  H   H400      1.0  0.29322  0.69626  0.09206  1.0000
  H   H401      1.0  0.10212  0.65037  0.28841  1.0000
  C   C515      1.0  0.18634  0.64264  0.17001  1.0000
  H   H402      1.0  0.13480  0.77853  0.12522  1.0000
  H   H403      1.0  0.28721  0.51704  0.01121  1.0000
  C   C516      1.0  0.30536  0.63303  0.15958  1.0000
  P   P18       1.0  0.18635  0.76027  0.09752  1.0000
  C   C517      1.0  0.27570  0.80724  0.31340  1.0000
  C   C518      1.0  0.00631  0.71620  0.08573  1.0000
  C   C519      1.0  0.15800  0.77882  0.07594  1.0000
  C   C520      1.0  0.03163  0.78425  0.07308  1.0000
  S   S72       1.0  0.99646  0.80549  0.03456  1.0000
  C   C521      1.0  0.24501  0.80354  0.14759  1.0000
  H   H404      1.0  0.39286  0.63408  0.19744  1.0000
  C   C522      1.0  0.40592  0.77588  0.18378  1.0000
  H   H405      1.0  0.09715  0.66928  0.10858  1.0000
  H   H406      1.0  0.21938  0.82113  0.17154  1.0000
  H   H407      1.0  0.46956  0.65077  0.17713  1.0000
  H   H408      1.0  0.01217  0.97701  0.21145  1.0000
  H   H409      1.0  0.39894  0.52828  0.12516  1.0000
  H   H410      1.0  0.02223  0.81384  0.27258  1.0000
  C   C523      1.0  0.15637  0.70593  0.32350  1.0000
  H   H411      1.0  0.43514  0.83138  0.15866  1.0000
  C   C524      1.0  0.14665  0.79940  0.31789  1.0000
  C   C525      1.0  0.01354  0.80580  0.06211  1.0000
  H   H412      1.0  0.10240  0.72816  0.31113  1.0000
  C   C526      1.0  0.27776  0.49754  0.00626  1.0000
  H   H413      1.0  0.17165  0.63352  0.00145  1.0000
  C   C527      1.0  0.01214  0.82457  0.32230  1.0000
  Fe  Fe37      1.0  0.99691  0.76984  0.01412  1.0000
  H   H414      1.0  0.03745  0.71804  0.09459  1.0000
  C   C528      1.0  0.46857  0.83377  0.13447  1.0000
  H   H415      1.0  0.03435  0.83237  0.99590  1.0000
  H   H416      1.0  0.01900  0.68373  0.06767  1.0000
  C   C529      1.0  0.43685  0.49831  0.14183  1.0000
  C   C530      1.0  0.11541  0.99302  0.18998  1.0000
  P   P19       1.0  0.48372  0.79869  0.19120  1.0000
  C   C531      1.0  0.46242  0.82539  0.15370  1.0000
  H   H417      1.0  0.44610  0.84600  0.12478  1.0000
  C   C532      1.0  0.39503  0.67838  0.32616  1.0000
  H   H418      1.0  0.38310  0.63744  0.32561  1.0000
  C   C533      1.0  0.45659  0.63479  0.99384  1.0000
  H   H419      1.0  0.42495  0.63767  0.99455  1.0000
  C   C534      1.0  0.04992  0.85941  0.31020  1.0000
  H   H420      1.0  0.46335  0.51081  0.14640  1.0000
  H   H421      1.0  0.06495  0.87805  0.31275  1.0000
  H   H422      1.0  0.48383  0.75336  0.16453  1.0000
  S   S73       1.0  0.04485  0.76533  0.99522  1.0000
  H   H423      1.0  0.15910  0.73945  0.99615  1.0000
  H   H424      1.0  0.07925  0.99499  0.22755  1.0000
  H   H425      1.0  0.14616  0.99457  0.19932  1.0000
  H   H426      1.0  0.26878  0.49720  0.55574  1.0000
  H   H427      1.0  0.33508  0.81914  0.33097  1.0000
  Fe  Fe38      1.0  0.17773  0.86451  0.64642  1.0000
  S   S74       1.0  0.16938  0.84471  0.61433  1.0000
  Fe  Fe39      1.0  0.36013  0.62162  0.45527  1.0000
  S   S75       1.0  0.37364  0.60786  0.42507  1.0000
  S   S76       1.0  0.40301  0.60957  0.48552  1.0000
  Fe  Fe40      1.0  0.27498  0.64284  0.43468  1.0000
  S   S77       1.0  0.28309  0.62997  0.40312  1.0000
  S   S78       1.0  0.21326  0.66310  0.43324  1.0000
  Fe  Fe41      1.0  0.30878  0.59284  0.41851  1.0000
  S   S79       1.0  0.28619  0.55386  0.40360  1.0000
  Fe  Fe42      1.0  0.34704  0.64587  0.41203  1.0000
  S   S80       1.0  0.37516  0.67577  0.39337  1.0000
  S   S81       1.0  0.29635  0.60464  0.44929  1.0000
  S   S82       1.0  0.33800  0.66076  0.44301  1.0000
  Fe  Fe43      1.0  0.05396  0.73750  0.49159  1.0000
  S   S83       1.0  0.04843  0.78040  0.48576  1.0000
  S   S84       1.0  0.11529  0.71595  0.49586  1.0000
  C   C535      1.0  0.48010  0.59823  0.44927  1.0000
  S   S85       1.0  0.02224  0.81144  0.53851  1.0000
  H   H428      1.0  0.23200  0.51232  0.43548  1.0000
  C   C536      1.0  0.30295  0.52235  0.41234  1.0000
  H   H429      1.0  0.43107  0.53582  0.45183  1.0000
  C   C537      1.0  0.33719  0.51851  0.42843  1.0000
  C   C538      1.0  0.44458  0.72198  0.46008  1.0000
  H   H430      1.0  0.35422  0.53505  0.43572  1.0000
  C   C539      1.0  0.14210  0.70169  0.47805  1.0000
  C   C540      1.0  0.12608  0.70087  0.45662  1.0000
  C   C541      1.0  0.14833  0.68901  0.44326  1.0000
  C   C542      1.0  0.18694  0.67787  0.45104  1.0000
  C   C543      1.0  0.20305  0.67879  0.47245  1.0000
  C   C544      1.0  0.18072  0.69056  0.48582  1.0000
  H   H431      1.0  0.09644  0.70923  0.45038  1.0000
  H   H432      1.0  0.13539  0.68831  0.42677  1.0000
  H   H433      1.0  0.23258  0.67032  0.47872  1.0000
  H   H434      1.0  0.19346  0.69104  0.50234  1.0000
  P   P20       1.0  0.22746  0.67811  0.33849  1.0000
  C   C545      1.0  0.48668  0.72385  0.46821  1.0000
  C   C546      1.0  0.37903  0.65376  0.35523  1.0000
  C   C547      1.0  0.38209  0.67612  0.36734  1.0000
  C   C548      1.0  0.39183  0.69960  0.35876  1.0000
  H   H435      1.0  0.99627  0.79435  0.38508  1.0000
  H   H436      1.0  0.37214  0.63553  0.36169  1.0000
  H   H437      1.0  0.39472  0.71699  0.36805  1.0000
  H   H438      1.0  0.29352  0.75114  0.61132  1.0000
  C   C549      1.0  0.07575  0.67934  0.53293  1.0000
  C   C550      1.0  0.13517  0.79695  0.33695  1.0000
  C   C551      1.0  0.44968  0.62529  0.49673  1.0000
  H   H439      1.0  0.31036  0.55358  0.48515  1.0000
  C   C552      1.0  0.01046  0.66487  0.51257  1.0000
  H   H440      1.0  0.43376  0.66185  0.48184  1.0000
  H   H441      1.0  0.38101  0.79041  0.60006  1.0000
  H   H442      1.0  0.17015  0.69068  0.36524  1.0000
  H   H443      1.0  0.08244  0.73291  0.38952  1.0000
  C   C553      1.0  0.12777  0.83561  0.59352  1.0000
  C   C554      1.0  0.13590  0.82069  0.57700  1.0000
  C   C555      1.0  0.10406  0.81247  0.56041  1.0000
  C   C556      1.0  0.06356  0.81968  0.55974  1.0000
  C   C557      1.0  0.05548  0.83474  0.57619  1.0000
  C   C558      1.0  0.08722  0.84247  0.59301  1.0000
  H   H444      1.0  0.16712  0.81539  0.57706  1.0000
  H   H445      1.0  0.11100  0.80114  0.54784  1.0000
  H   H446      1.0  0.02446  0.84076  0.57579  1.0000
  H   H447      1.0  0.08051  0.85421  0.60537  1.0000
  H   H448      1.0  0.44453  0.74936  0.52701  1.0000
  H   H449      1.0  0.22113  0.76296  0.60788  1.0000
  H   H450      1.0  0.18120  0.70758  0.40096  1.0000
  C   C559      1.0  0.01624  0.78297  0.37778  1.0000
  C   C560      1.0  0.27628  0.63406  0.34144  1.0000
  C   C561      1.0  0.38462  0.75783  0.58058  1.0000
  C   C562      1.0  0.01027  0.85576  0.62413  1.0000
  C   C563      1.0  0.24421  0.77095  0.62043  1.0000
  C   C564      1.0  0.03742  0.67539  0.63232  1.0000
  C   C565      1.0  0.24628  0.71145  0.40465  1.0000
  C   C566      1.0  0.27978  0.70748  0.39563  1.0000
  S   S86       1.0  0.02377  0.73881  0.51915  1.0000
  Fe  Fe44      1.0  0.01560  0.78119  0.51227  1.0000
  C   C567      1.0  0.23422  0.69277  0.36382  1.0000
  H   H451      1.0  0.25098  0.71755  0.42073  1.0000
  H   H452      1.0  0.31060  0.71067  0.40461  1.0000
  C   C568      1.0  0.20070  0.69633  0.37314  1.0000
  H   H453      1.0  0.47314  0.78843  0.61971  1.0000
  C   C569      1.0  0.02099  0.75948  0.65731  1.0000
  C   C570      1.0  0.99273  0.66851  0.52967  1.0000
  H   H454      1.0  0.20127  0.59172  0.36448  1.0000
  H   H455      1.0  0.20115  0.79411  0.63249  1.0000
  C   C571      1.0  0.47988  0.61169  0.51074  1.0000
  C   C572      1.0  0.43955  0.53524  0.46863  1.0000
  H   H456      1.0  0.47994  0.68237  0.61937  1.0000
  C   C573      1.0  0.01528  0.68403  0.61310  1.0000
  H   H457      1.0  0.41734  0.66947  0.53505  1.0000
  C   C574      1.0  0.08885  0.76280  0.63565  1.0000
  C   C575      1.0  0.43304  0.68717  0.54108  1.0000
  H   H458      1.0  0.18851  0.97310  0.64471  1.0000
  H   H459      1.0  0.40640  0.70929  0.51401  1.0000
  C   C576      1.0  0.05803  0.68322  0.55001  1.0000
  H   H460      1.0  0.10780  0.80642  0.33937  1.0000
  S   S87       1.0  0.14498  0.89697  0.65899  1.0000
  C   C577      1.0  0.39817  0.70077  0.33830  1.0000
  C   C578      1.0  0.99373  0.83222  0.61590  1.0000
  C   C579      1.0  0.02378  0.67445  0.59462  1.0000
  H   H461      1.0  0.05661  0.87433  0.64748  1.0000
  C   C580      1.0  0.06804  0.65694  0.63317  1.0000
  C   C581      1.0  0.07627  0.64701  0.61481  1.0000
  C   C582      1.0  0.05400  0.65556  0.59557  1.0000
  H   H462      1.0  0.00421  0.74700  0.62520  1.0000
  H   H463      1.0  0.47420  0.59189  0.51446  1.0000
  H   H464      1.0  0.14692  0.72788  0.59857  1.0000
  C   C583      1.0  0.29726  0.53547  0.47850  1.0000
  C   C584      1.0  0.99589  0.86437  0.38869  1.0000
  C   C585      1.0  0.47629  0.73218  0.55570  1.0000
  H   H465      1.0  0.03717  0.76053  0.40543  1.0000
  H   H466      1.0  0.38163  0.86292  0.62749  1.0000
  C   C586      1.0  0.38539  0.65492  0.33479  1.0000
  H   H467      1.0  0.07643  0.69148  0.56407  1.0000
  H   H468      1.0  0.21396  0.76012  0.36252  1.0000
  C   C587      1.0  0.25872  0.59312  0.35500  1.0000
  H   H469      1.0  0.37805  0.69494  0.59414  1.0000
  C   C588      1.0  0.28539  0.76438  0.62243  1.0000
  H   H470      1.0  0.09949  0.63236  0.61545  1.0000
  H   H471      1.0  0.05993  0.64706  0.58153  1.0000
  C   C589      1.0  0.00506  0.84497  0.37569  1.0000
  H   H472      1.0  0.38631  0.72189  0.56435  1.0000
  H   H473      1.0  0.17139  0.72165  0.33303  1.0000
  P   P21       1.0  0.36926  0.76942  0.63992  1.0000
  C   C590      1.0  0.01642  0.73543  0.58200  1.0000
  C   C591      1.0  0.19506  0.77099  0.35000  1.0000
  H   H474      1.0  0.04479  0.77340  0.33185  1.0000
  C   C592      1.0  0.37650  0.75447  0.61621  1.0000
  C   C593      1.0  0.44852  0.73214  0.53650  1.0000
  H   H475      1.0  0.33019  0.51255  0.50359  1.0000
  C   C594      1.0  0.04341  0.85611  0.64112  1.0000
  C   C595      1.0  0.39531  0.80031  0.64340  1.0000
  H   H476      1.0  0.44992  0.86727  0.65118  1.0000
  C   C596      1.0  0.22158  0.60339  0.35747  1.0000
  C   C597      1.0  0.04354  0.77118  0.34798  1.0000
  H   H477      1.0  0.14010  0.77541  0.59745  1.0000
  C   C598      1.0  0.38385  0.73096  0.57882  1.0000
  C   C599      1.0  0.42935  0.70329  0.44509  1.0000
  H   H478      1.0  0.99672  0.79117  0.61808  1.0000
  C   C600      1.0  0.23286  0.78846  0.63428  1.0000
  C   C601      1.0  0.38087  0.76958  0.59917  1.0000
  C   C602      1.0  0.41016  0.54031  0.48018  1.0000
  C   C603      1.0  0.37913  0.71578  0.59561  1.0000
  H   H479      1.0  0.30017  0.69395  0.36890  1.0000
  H   H480      1.0  0.25468  0.50327  0.39039  1.0000
  C   C604      1.0  0.03939  0.76359  0.38942  1.0000
  C   C605      1.0  0.48234  0.70977  0.56794  1.0000
  C   C606      1.0  0.25280  0.51227  0.45058  1.0000
  C   C607      1.0  0.43366  0.80308  0.65696  1.0000
  H   H481      1.0  0.39831  0.54472  0.51071  1.0000
  H   H482      1.0  0.10470  0.79791  0.62130  1.0000
  C   C608      1.0  0.30842  0.51218  0.48884  1.0000
  H   H483      1.0  0.39687  0.70216  0.43830  1.0000
  H   H484      1.0  0.44378  0.67191  0.42675  1.0000
  C   C609      1.0  0.45604  0.68617  0.43850  1.0000
  C   C610      1.0  0.37673  0.82211  0.63276  1.0000
  C   C611      1.0  0.06669  0.75174  0.35968  1.0000
  C   C612      1.0  0.46039  0.68722  0.56040  1.0000
  C   C613      1.0  0.10656  0.77703  0.62177  1.0000
  C   C614      1.0  0.28119  0.50057  0.40287  1.0000
  C   C615      1.0  0.11474  0.72332  0.62335  1.0000
  H   H485      1.0  0.06546  0.66820  0.50076  1.0000
  H   H486      1.0  0.47538  0.75727  0.59180  1.0000
  C   C616      1.0  0.13100  0.73754  0.60905  1.0000
  H   H487      1.0  0.37926  0.54524  0.47233  1.0000
  H   H488      1.0  0.18354  0.63694  0.35470  1.0000
  H   H489      1.0  0.03434  0.83543  0.37993  1.0000
  H   H490      1.0  0.46531  0.66929  0.56892  1.0000
  C   C617      1.0  0.47999  0.53032  0.47874  1.0000
  H   H491      1.0  0.10751  0.68450  0.53378  1.0000
  H   H492      1.0  0.40577  0.71893  0.33197  1.0000
  C   C618      1.0  0.27379  0.69799  0.37535  1.0000
  C   C619      1.0  0.01871  0.78732  0.35706  1.0000
  H   H493      1.0  0.03050  0.68277  0.64653  1.0000
  H   H494      1.0  0.44402  0.73870  0.64969  1.0000
  H   H495      1.0  0.38768  0.76959  0.56743  1.0000
  H   H496      1.0  0.04309  0.72739  0.59213  1.0000
  H   H497      1.0  0.26123  0.55334  0.45105  1.0000
  C   C620      1.0  0.01647  0.67746  0.54859  1.0000
  H   H498      1.0  0.31534  0.60069  0.34565  1.0000
  H   H499      1.0  0.03478  0.77481  0.59015  1.0000
  C   C621      1.0  0.09384  0.73590  0.63667  1.0000
  P   P22       1.0  0.06393  0.77907  0.65366  1.0000
  C   C622      1.0  0.42093  0.53994  0.50183  1.0000
  C   C623      1.0  0.37499  0.72746  0.61416  1.0000
  H   H500      1.0  0.08581  0.73933  0.35263  1.0000
  H   H501      1.0  0.37029  0.71539  0.62683  1.0000
  C   C624      1.0  0.21169  0.62899  0.35189  1.0000
  H   H502      1.0  0.03527  0.85873  0.34017  1.0000
  C   C625      1.0  0.19793  0.98918  0.65515  1.0000
  H   H503      1.0  0.26688  0.57353  0.35995  1.0000
  C   C626      1.0  0.39649  0.84612  0.63547  1.0000
  C   C627      1.0  0.26949  0.53547  0.45936  1.0000
  C   C628      1.0  0.12703  0.76436  0.60834  1.0000
  H   H504      1.0  0.34670  0.82067  0.62255  1.0000
  H   H505      1.0  0.11837  0.70257  0.62410  1.0000
  C   C629      1.0  0.06476  0.74803  0.38042  1.0000
  H   H506      1.0  0.15053  0.78104  0.36782  1.0000
  C   C630      1.0  0.30375  0.79283  0.65220  1.0000
  C   C631      1.0  0.20676  0.70592  0.39340  1.0000
  H   H507      1.0  0.99793  0.87374  0.61715  1.0000
  C   C632      1.0  0.23875  0.64441  0.34355  1.0000
  C   C633      1.0  0.42707  0.70960  0.52914  1.0000
  H   H508      1.0  0.08201  0.72473  0.64793  1.0000
  C   C634      1.0  0.46121  0.53460  0.51201  1.0000
  C   C635      1.0  0.31553  0.77544  0.63828  1.0000
  C   C636      1.0  0.43493  0.84858  0.64880  1.0000
  C   C637      1.0  0.15930  0.78273  0.35299  1.0000
  C   C638      1.0  0.04306  0.80918  0.64211  1.0000
  C   C639      1.0  0.05197  0.67020  0.51421  1.0000
  C   C640      1.0  0.06009  0.83298  0.64987  1.0000
  C   C641      1.0  0.26262  0.79926  0.65022  1.0000
  H   H509      1.0  0.47145  0.63816  0.45500  1.0000
  C   C642      1.0  0.01175  0.76224  0.58105  1.0000
  C   C643      1.0  0.45700  0.65104  0.49233  1.0000
  H   H510      1.0  0.46898  0.53512  0.52879  1.0000
  H   H511      1.0  0.42376  0.73515  0.46519  1.0000
  H   H512      1.0  0.01752  0.86920  0.40295  1.0000
  C   C644      1.0  0.20671  0.77352  0.33099  1.0000
  H   H513      1.0  0.27464  0.72703  0.34153  1.0000
  H   H514      1.0  0.45615  0.59201  0.45694  1.0000
  S   S88       1.0  0.99449  0.72830  0.46956  1.0000
  C   C645      1.0  0.28604  0.60845  0.34698  1.0000
  C   C646      1.0  0.99674  0.74625  0.64034  1.0000
  H   H515      1.0  0.47145  0.65810  0.36146  1.0000
  P   P23       1.0  0.99308  0.68475  0.57009  1.0000
  H   H516      1.0  0.29853  0.64583  0.33603  1.0000
  H   H517      1.0  0.48391  0.63810  0.63325  1.0000
  H   H518      1.0  0.08501  0.65006  0.64806  1.0000
  C   C647      1.0  0.00996  0.80904  0.62485  1.0000
  H   H519      1.0  0.99108  0.69792  0.61256  1.0000
  H   H520      1.0  0.23477  0.76466  0.32900  1.0000
  H   H521      1.0  0.99156  0.65888  0.49781  1.0000
  C   C648      1.0  0.27850  0.71662  0.32791  1.0000
  H   H522      1.0  0.48514  0.64345  0.39772  1.0000
  C   C649      1.0  0.48886  0.62453  0.44814  1.0000
  C   C650      1.0  0.45352  0.82704  0.65950  1.0000
  Fe  Fe45      1.0  0.14599  0.87132  0.68675  1.0000
  S   S89       1.0  0.08537  0.86885  0.69757  1.0000
  Fe  Fe46      1.0  0.23608  0.85460  0.68886  1.0000
  S   S90       1.0  0.28182  0.82432  0.70596  1.0000
  C   C651      1.0  0.06639  0.85219  0.94496  1.0000
  C   C652      1.0  0.25136  0.84702  0.97892  1.0000
  S   S91       1.0  0.20669  0.88578  0.70464  1.0000
  S   S92       1.0  0.17462  0.83819  0.67300  1.0000
  H   H523      1.0  0.22611  0.50971  0.98288  1.0000
  C   C653      1.0  0.21636  0.98445  0.67595  1.0000
  H   H524      1.0  0.38535  0.89959  0.73396  1.0000
  C   C654      1.0  0.11951  0.80455  0.71199  1.0000
  H   H525      1.0  0.37325  0.72717  0.70768  1.0000
  H   H526      1.0  0.48264  0.82902  0.67046  1.0000
  C   C655      1.0  0.35847  0.84338  0.75400  1.0000
  C   C656      1.0  0.13033  0.99271  0.73255  1.0000
  H   H527      1.0  0.44672  0.64347  0.96113  1.0000
  C   C657      1.0  0.07332  0.81703  0.88559  1.0000
  H   H528      1.0  0.15093  0.86352  0.96744  1.0000
  S   S93       1.0  0.47112  0.79617  0.71141  1.0000
  C   C658      1.0  0.05509  0.95374  0.79894  1.0000
  C   C659      1.0  0.41833  0.80358  0.71023  1.0000
  C   C660      1.0  0.39251  0.78758  0.71880  1.0000
  C   C661      1.0  0.35099  0.79417  0.71719  1.0000
  C   C662      1.0  0.33441  0.81683  0.70698  1.0000
  C   C663      1.0  0.36023  0.83290  0.69848  1.0000
  C   C664      1.0  0.40179  0.82635  0.70019  1.0000
  H   H529      1.0  0.40451  0.77009  0.72666  1.0000
  H   H530      1.0  0.33156  0.78165  0.72398  1.0000
  H   H531      1.0  0.34829  0.85054  0.69079  1.0000
  H   H532      1.0  0.42134  0.83927  0.69388  1.0000
  C   C665      1.0  0.07554  0.86814  0.72300  1.0000
  C   C666      1.0  0.10694  0.86631  0.74078  1.0000
  C   C667      1.0  0.09752  0.86463  0.76056  1.0000
  C   C668      1.0  0.05670  0.86493  0.76288  1.0000
  C   C669      1.0  0.02531  0.86730  0.74513  1.0000
  C   C670      1.0  0.03472  0.86873  0.72532  1.0000
  H   H533      1.0  0.13846  0.86579  0.73927  1.0000
  H   H534      1.0  0.12204  0.86285  0.77417  1.0000
  C   C671      1.0  0.03172  0.93355  0.78831  1.0000
  C   C672      1.0  0.04602  0.95589  0.68934  1.0000
  C   C673      1.0  0.02407  0.85860  0.97000  1.0000
  H   H535      1.0  0.02061  0.88173  0.94257  1.0000
  H   H536      1.0  0.04278  0.81653  0.87583  1.0000
  C   C674      1.0  0.10288  0.97950  0.74224  1.0000
  H   H537      1.0  0.45355  0.88635  0.75378  1.0000
  C   C675      1.0  0.12781  0.93848  0.73262  1.0000
  P   P24       1.0  0.12501  0.81322  0.94784  1.0000
  C   C676      1.0  0.12124  0.78006  0.95587  1.0000
  C   C677      1.0  0.47003  0.76294  0.77207  1.0000
  H   H538      1.0  0.34239  0.75477  0.67825  1.0000
  H   H539      1.0  0.10963  0.70967  0.97452  1.0000
  C   C678      1.0  0.42491  0.54564  0.99205  1.0000
  C   C679      1.0  0.01180  0.98524  0.70851  1.0000
  C   C680      1.0  0.35435  0.86636  0.74274  1.0000
  C   C681      1.0  0.17776  0.85165  0.96835  1.0000
  H   H540      1.0  0.40229  0.55897  0.94045  1.0000
  C   C682      1.0  0.11830  0.81542  0.91990  1.0000
  C   C683      1.0  0.15199  0.81960  0.91075  1.0000
  C   C684      1.0  0.14625  0.82249  0.88923  1.0000
  C   C685      1.0  0.10689  0.82136  0.87667  1.0000
  S   S94       1.0  0.24079  0.87997  0.66182  1.0000
  C   C686      1.0  0.07896  0.81388  0.90706  1.0000
  H   H541      1.0  0.99543  0.92258  0.72039  1.0000
  H   H542      1.0  0.40677  0.51150  0.93849  1.0000
  H   H543      1.0  0.33175  0.83133  0.75369  1.0000
  C   C687      1.0  0.14104  0.74603  0.98141  1.0000
  H   H544      1.0  0.20801  0.79247  0.95489  1.0000
  C   C688      1.0  0.99941  0.96324  0.76134  1.0000
  H   H545      1.0  0.08057  0.94236  0.74986  1.0000
  S   S95       1.0  0.22621  0.95251  0.68615  1.0000
  C   C689      1.0  0.10184  0.95250  0.74239  1.0000
  C   C690      1.0  0.15897  0.79461  0.71474  1.0000
  H   H546      1.0  0.16537  0.78438  0.98514  1.0000
  H   H547      1.0  0.06585  0.95261  0.67861  1.0000
  H   H548      1.0  0.18271  0.82093  0.92007  1.0000
  H   H549      1.0  0.17226  0.82589  0.88226  1.0000
  C   C691      1.0  0.24824  0.82204  0.97071  1.0000
  H   H550      1.0  0.08949  0.80891  0.98451  1.0000
  H   H551      1.0  0.03889  0.91548  0.69516  1.0000
  H   H552      1.0  0.47808  0.49575  0.94635  1.0000
  H   H553      1.0  0.21857  0.88126  0.98395  1.0000
  H   H554      1.0  0.45751  0.74963  0.75960  1.0000
  H   H555      1.0  0.03488  0.91426  0.79471  1.0000
  C   C692      1.0  0.42812  0.73622  0.66217  1.0000
  C   C693      1.0  0.14066  0.77441  0.68084  1.0000
  C   C694      1.0  0.38838  0.72949  0.69486  1.0000
  C   C695      1.0  0.47111  0.85346  0.81863  1.0000
  C   C696      1.0  0.43181  0.85066  0.76472  1.0000
  C   C697      1.0  0.39698  0.83556  0.76504  1.0000
  C   C698      1.0  0.14473  0.77145  0.97496  1.0000
  H   H556      1.0  0.45145  0.83656  0.81721  1.0000
  H   H557      1.0  0.99987  0.86889  0.97506  1.0000
  C   C699      1.0  0.42725  0.87412  0.75385  1.0000
  H   H558      1.0  0.15014  0.76321  0.66891  1.0000
  C   C700      1.0  0.40952  0.54770  0.95458  1.0000
  H   H559      1.0  0.07333  0.76921  0.92940  1.0000
  H   H560      1.0  0.07480  0.85807  0.93070  1.0000
  C   C701      1.0  0.21615  0.86183  0.97770  1.0000
  H   H561      1.0  0.02816  0.76771  0.69017  1.0000
  C   C702      1.0  0.17433  0.82642  0.96034  1.0000
  C   C703      1.0  0.07441  0.82453  0.97509  1.0000
  H   H562      1.0  0.01017  0.87006  0.71168  1.0000
  C   C704      1.0  0.05110  0.97864  0.79072  1.0000
  H   H563      1.0  0.20061  0.77256  0.70111  1.0000
  H   H564      1.0  0.28107  0.85495  0.98616  1.0000
  S   S96       1.0  0.00375  0.70927  0.98041  1.0000
  C   C705      1.0  0.41262  0.52084  0.95356  1.0000
  C   C706      1.0  0.42259  0.50615  0.97182  1.0000
  P   P25       1.0  0.48171  0.84107  0.77916  1.0000
  H   H565      1.0  0.39935  0.81769  0.77366  1.0000
  C   C707      1.0  0.09310  0.76299  0.94374  1.0000
  C   C708      1.0  0.38869  0.88180  0.74274  1.0000
  C   C709      1.0  0.08547  0.83111  0.95643  1.0000
  C   C710      1.0  0.37089  0.74516  0.67805  1.0000
  H   H566      1.0  0.27554  0.81058  0.97156  1.0000
  H   H567      1.0  0.06647  0.72487  0.94121  1.0000
  C   C711      1.0  0.08909  0.73768  0.95041  1.0000
  C   C712      1.0  0.03578  0.86583  0.95173  1.0000
  H   H568      1.0  0.47529  0.71190  0.67978  1.0000
  H   H569      1.0  0.32454  0.87196  0.73375  1.0000
  C   C713      1.0  0.04350  0.83802  0.98173  1.0000
  H   H570      1.0  0.46199  0.86314  0.84905  1.0000
  C   C714      1.0  0.48392  0.80693  0.78449  1.0000
  H   H571      1.0  0.43990  0.70591  0.70874  1.0000
  C   C715      1.0  0.10088  0.78454  0.67783  1.0000
  H   H572      1.0  0.12650  0.91759  0.73233  1.0000
  H   H573      1.0  0.45283  0.79660  0.75342  1.0000
  C   C716      1.0  0.02344  0.98337  0.77198  1.0000
  H   H574      1.0  0.17582  0.94055  0.71564  1.0000
  C   C717      1.0  0.15546  0.95142  0.72312  1.0000
  C   C718      1.0  0.20993  0.81180  0.96136  1.0000
  Fe  Fe47      1.0  0.20723  0.91052  0.67640  1.0000
  H   H575      1.0  0.07610  0.95002  0.81359  1.0000
  H   H576      1.0  0.05250  0.81073  0.91367  1.0000
  H   H577      1.0  0.10227  0.82401  0.86002  1.0000
  C   C719      1.0  0.03642  0.98103  0.69422  1.0000
  S   S97       1.0  0.04680  0.86149  0.78817  1.0000
  H   H578      1.0  0.47846  0.84547  0.73442  1.0000
  C   C720      1.0  0.11317  0.72916  0.96918  1.0000
  C   C721      1.0  0.42594  0.71754  0.69548  1.0000
  H   H579      1.0  0.44797  0.78705  0.66614  1.0000
  C   C722      1.0  0.01035  0.75795  0.67673  1.0000
  C   C723      1.0  0.09072  0.79982  0.69357  1.0000
  H   H580      1.0  0.18167  0.79912  0.72872  1.0000
  C   C724      1.0  0.47684  0.86854  0.83664  1.0000
  C   C725      1.0  0.46907  0.63807  0.97489  1.0000
  H   H581      1.0  0.11154  0.81667  0.72388  1.0000
  C   C726      1.0  0.16955  0.77955  0.69918  1.0000
  C   C727      1.0  0.15706  0.97838  0.72326  1.0000
  C   C728      1.0  0.46723  0.78952  0.76861  1.0000
  C   C729      1.0  0.00416  0.93817  0.76951  1.0000
  H   H582      1.0  0.06899  0.99438  0.79898  1.0000
  C   C730      1.0  0.44582  0.72089  0.67913  1.0000
  C   C731      1.0  0.39067  0.74866  0.66156  1.0000
  C   C732      1.0  0.41569  0.56010  0.97383  1.0000
  C   C733      1.0  0.03081  0.93495  0.69868  1.0000
  C   C734      1.0  0.42845  0.51879  0.99111  1.0000
  H   H583      1.0  0.99379  0.86753  0.74665  1.0000
  C   C735      1.0  0.00603  0.93907  0.71290  1.0000
  H   H584      1.0  0.08628  0.83395  0.66267  1.0000
  C   C736      1.0  0.99572  0.96426  0.71766  1.0000
  Fe  Fe48      1.0  0.99392  0.75063  0.96952  1.0000
  H   H585      1.0  0.41336  0.58095  0.97467  1.0000
  H   H586      1.0  0.06095  0.80882  0.69142  1.0000
  H   H587      1.0  0.17941  0.98794  0.71621  1.0000
  H   H588      1.0  0.32648  0.80181  0.66438  1.0000
  H   H589      1.0  0.25389  0.81306  0.66082  1.0000
  H   H590      1.0  0.08224  0.98993  0.74966  1.0000
  H   H591      1.0  0.48164  0.58834  0.95141  1.0000
  C   C737      1.0  0.96697  0.02322  0.27371  1.0000
  S   S98       1.0  0.78073  0.11406  0.27955  1.0000
  P   P26       1.0  0.93063  0.00145  0.19694  1.0000
  H   H592      1.0  0.93910  0.17746  0.25162  1.0000
  Fe  Fe49      1.0  0.74249  0.13857  0.29674  1.0000
  S   S99       1.0  0.67184  0.14211  0.28838  1.0000
  Fe  Fe50      1.0  0.82995  0.14433  0.28912  1.0000
  S   S100      1.0  0.87234  0.16164  0.26968  1.0000
  H   H593      1.0  0.68372  0.46906  0.00634  1.0000
  H   H594      1.0  0.52795  0.15351  0.31160  1.0000
  H   H595      1.0  0.94553  0.20507  0.09050  1.0000
  H   H596      1.0  0.69772  0.27832  0.29723  1.0000
  H   H597      1.0  0.81411  0.06325  0.22586  1.0000
  H   H598      1.0  0.64145  0.29005  0.26754  1.0000
  S   S101      1.0  0.96072  0.10721  0.20445  1.0000
  C   C738      1.0  0.93960  0.01396  0.28548  1.0000
  H   H599      1.0  0.72615  0.20230  0.12598  1.0000
  C   C739      1.0  0.97002  0.19710  0.19902  1.0000
  H   H600      1.0  0.79589  0.21437  0.01430  1.0000
  H   H601      1.0  0.92313  0.01990  0.11109  1.0000
  C   C740      1.0  0.91461  0.10582  0.14958  1.0000
  H   H602      1.0  0.88359  0.17292  0.12565  1.0000
  H   H603      1.0  0.87661  0.21575  0.14332  1.0000
  C   C741      1.0  0.90254  0.99588  0.13347  1.0000
  C   C742      1.0  0.65788  0.25893  0.31398  1.0000
  C   C743      1.0  0.59459  0.27232  0.28064  1.0000
  H   H604      1.0  0.55465  0.25215  0.29645  1.0000
  C   C744      1.0  0.63412  0.16616  0.27866  1.0000
  C   C745      1.0  0.59261  0.16084  0.27837  1.0000
  C   C746      1.0  0.56151  0.17894  0.27060  1.0000
  C   C747      1.0  0.57130  0.20269  0.26278  1.0000
  C   C748      1.0  0.61281  0.20804  0.26312  1.0000
  C   C749      1.0  0.64397  0.19007  0.27110  1.0000
  H   H605      1.0  0.58441  0.14246  0.28410  1.0000
  H   H606      1.0  0.62097  0.22623  0.25706  1.0000
  H   H607      1.0  0.67556  0.19460  0.27114  1.0000
  C   C750      1.0  0.89893  0.14516  0.25297  1.0000
  C   C751      1.0  0.88818  0.12015  0.24563  1.0000
  C   C752      1.0  0.90780  0.10877  0.23097  1.0000
  C   C753      1.0  0.93901  0.12191  0.22389  1.0000
  H   H608      1.0  0.90844  0.20230  0.32613  1.0000
  C   C754      1.0  0.93047  0.15815  0.24604  1.0000
  H   H609      1.0  0.86395  0.10990  0.25075  1.0000
  H   H610      1.0  0.89860  0.08973  0.22498  1.0000
  C   C755      1.0  0.49102  0.40607  0.11106  1.0000
  H   H611      1.0  0.61013  0.19644  0.01864  1.0000
  H   H612      1.0  0.94825  0.16343  0.18097  1.0000
  H   H613      1.0  0.85791  0.30042  0.99626  1.0000
  H   H614      1.0  0.98625  0.01025  0.26732  1.0000
  C   C756      1.0  0.51202  0.37733  0.00999  1.0000
  C   C757      1.0  0.65204  0.02643  0.32651  1.0000
  Fe  Fe51      1.0  0.80772  0.09618  0.31058  1.0000
  H   H615      1.0  0.91954  0.14231  0.10746  1.0000
  H   H616      1.0  0.97542  0.15649  0.22696  1.0000
  H   H617      1.0  0.80308  0.12625  0.15783  1.0000
  S   S102      1.0  0.83059  0.05446  0.31564  1.0000
  H   H618      1.0  0.52987  0.17433  0.27035  1.0000
  C   C758      1.0  0.80621  0.02372  0.31119  1.0000
  C   C759      1.0  0.65789  0.04561  0.31255  1.0000
  H   H619      1.0  0.75728  0.23856  0.11022  1.0000
  C   C760      1.0  0.91603  0.03176  0.29382  1.0000
  H   H620      1.0  0.98174  0.17455  0.11739  1.0000
  H   H621      1.0  0.85698  0.21935  0.18783  1.0000
  H   H622      1.0  0.69931  0.07429  0.30516  1.0000
  C   C761      1.0  0.66645  0.27292  0.29731  1.0000
  C   C762      1.0  0.86331  0.03468  0.19173  1.0000
  H   H623      1.0  0.86323  0.03488  0.17534  1.0000
  C   C763      1.0  0.91862  0.05816  0.28993  1.0000
  H   H624      1.0  0.95864  0.05249  0.21313  1.0000
  C   C764      1.0  0.97335  0.19078  0.06618  1.0000
  C   C765      1.0  0.96958  0.04970  0.26992  1.0000
  Fe  Fe52      1.0  0.96481  0.22645  0.01771  1.0000
  C   C766      1.0  0.86322  0.03600  0.23408  1.0000
  H   H625      1.0  0.94111  0.09984  0.12294  1.0000
  C   C767      1.0  0.83199  0.16052  0.20282  1.0000
  C   C768      1.0  0.83009  0.15320  0.18212  1.0000
  H   H626      1.0  0.72095  0.21816  0.00287  1.0000
  C   C769      1.0  0.94809  0.02895  0.16341  1.0000
  H   H627      1.0  0.67882  0.33022  0.99799  1.0000
  C   C770      1.0  0.76597  0.02075  0.29994  1.0000
  H   H628      1.0  0.83252  0.24510  0.11893  1.0000
  C   C771      1.0  0.89381  0.12297  0.15992  1.0000
  C   C772      1.0  0.80484  0.13233  0.17371  1.0000
  H   H629      1.0  0.81014  0.15329  0.23068  1.0000
  S   S103      1.0  0.78979  0.17026  0.30386  1.0000
  C   C773      1.0  0.95089  0.14643  0.23188  1.0000
  H   H630      1.0  0.57010  0.27689  0.26748  1.0000
  C   C774      1.0  0.96651  0.19114  0.08652  1.0000
  C   C775      1.0  0.49378  0.37919  0.11212  1.0000
  C   C776      1.0  0.61701  0.19547  0.00335  1.0000
  C   C777      1.0  0.58593  0.25815  0.29719  1.0000
  C   C778      1.0  0.63481  0.27959  0.28063  1.0000
  H   H631      1.0  0.85203  0.00276  0.27578  1.0000
  C   C779      1.0  0.88850  0.21302  0.19078  1.0000
  C   C780      1.0  0.89148  0.15420  0.13245  1.0000
  H   H632      1.0  0.88798  0.11745  0.17483  1.0000
  P   P27       1.0  0.85926  0.17028  0.16620  1.0000
  C   C781      1.0  0.91202  0.13689  0.12205  1.0000
  H   H633      1.0  0.76208  0.10323  0.17914  1.0000
  H   H634      1.0  0.62363  0.01557  0.32373  1.0000
  H   H635      1.0  0.49268  0.38333  0.21205  1.0000
  H   H636      1.0  0.51275  0.21154  0.20098  1.0000
  C   C782      1.0  0.74777  0.99602  0.29708  1.0000
  C   C783      1.0  0.78159  0.11924  0.18572  1.0000
  H   H637      1.0  0.81414  0.06208  0.18827  1.0000
  C   C784      1.0  0.83534  0.05022  0.19901  1.0000
  C   C785      1.0  0.93966  0.18167  0.18676  1.0000
  H   H638      1.0  0.76548  0.11679  0.21561  1.0000
  C   C786      1.0  0.84379  0.21263  0.13971  1.0000
  C   C787      1.0  0.94639  0.03330  0.14234  1.0000
  C   C788      1.0  0.78385  0.18835  0.14358  1.0000
  S   S104      1.0  0.53319  0.22588  0.25162  1.0000
  H   H639      1.0  0.94714  0.08761  0.27483  1.0000
  C   C789      1.0  0.89869  0.18961  0.18246  1.0000
  C   C790      1.0  0.82647  0.19201  0.14871  1.0000
  C   C791      1.0  0.82841  0.00153  0.31898  1.0000
  H   H640      1.0  0.91302  0.00931  0.23782  1.0000
  C   C792      1.0  0.75903  0.20515  0.12979  1.0000
  C   C793      1.0  0.81891  0.22931  0.12587  1.0000
  C   C794      1.0  0.88233  0.14738  0.15155  1.0000
  H   H641      1.0  0.53390  0.48876  0.02330  1.0000
  C   C795      1.0  0.65086  0.47171  0.00234  1.0000
  C   C796      1.0  0.97966  0.01321  0.21135  1.0000
  H   H642      1.0  0.63407  0.04972  0.29900  1.0000
  C   C797      1.0  0.92380  0.01672  0.12738  1.0000
  H   H643      1.0  0.64286  0.23362  0.00537  1.0000
  H   H644      1.0  0.89548  0.02526  0.30337  1.0000
  C   C798      1.0  0.77654  0.22560  0.12093  1.0000
  H   H645      1.0  0.76952  0.17272  0.15023  1.0000
  C   C799      1.0  0.80842  0.14753  0.21469  1.0000
  C   C800      1.0  0.98441  0.03949  0.21666  1.0000
  C   C801      1.0  0.78337  0.12686  0.20621  1.0000
  H   H646      1.0  0.68280  0.25391  0.32677  1.0000
  H   H647      1.0  0.52879  0.39082  0.02123  1.0000
  H   H648      1.0  0.50834  0.41670  0.10172  1.0000
  S   S105      1.0  0.97233  0.26946  0.01509  1.0000
  C   C802      1.0  0.92751  0.00771  0.16970  1.0000
  C   C803      1.0  0.92395  0.11282  0.13070  1.0000
  C   C804      1.0  0.89122  0.02047  0.22686  1.0000
  H   H649      1.0  0.74882  0.03751  0.29345  1.0000
  C   C805      1.0  0.91885  0.22820  0.20327  1.0000
  H   H650      1.0  0.48949  0.34876  0.32142  1.0000
  H   H651      1.0  0.92460  0.08743  0.15662  1.0000
  S   S106      1.0  0.94604  0.21258  0.04733  1.0000
  C   C806      1.0  0.89150  0.01964  0.20564  1.0000
  H   H652      1.0  0.85182  0.17600  0.21008  1.0000
  H   H653      1.0  0.49378  0.44982  0.99908  1.0000
  H   H654      1.0  0.86357  0.03691  0.25052  1.0000
  C   C807      1.0  0.83529  0.05088  0.22017  1.0000
  H   H655      1.0  0.98314  0.23189  0.21715  1.0000
  C   C808      1.0  0.94524  0.06712  0.27789  1.0000
  C   C809      1.0  0.69467  0.05945  0.31601  1.0000
  H   H656      1.0  0.65569  0.20005  0.31478  1.0000
  H   H657      1.0  0.91071  0.24602  0.20991  1.0000
  C   C810      1.0  0.78277  0.22486  0.00025  1.0000
  H   H658      1.0  0.89986  0.07167  0.29627  1.0000
  H   H659      1.0  0.96618  0.04194  0.17466  1.0000
  S   S107      1.0  0.85886  0.12552  0.31938  1.0000
  C   C811      1.0  0.52236  0.22588  0.32563  1.0000
  H   H660      1.0  0.59128  0.17845  0.32290  1.0000
  C   C812      1.0  0.61754  0.25127  0.31397  1.0000
  H   H661      1.0  0.60402  0.33410  0.99524  1.0000
  H   H662      1.0  0.96338  0.04926  0.13765  1.0000
  H   H663      1.0  0.50313  0.43124  0.03406  1.0000
  H   H664      1.0  0.79354  0.32221  0.99944  1.0000
  H   H665      1.0  0.51307  0.36902  0.10357  1.0000
  C   C813      1.0  0.56240  0.18796  0.32227  1.0000
  C   C814      1.0  0.52635  0.17361  0.31586  1.0000
  C   C815      1.0  0.95962  0.22025  0.20736  1.0000
  C   C816      1.0  0.98693  0.17382  0.10179  1.0000
  H   H666      1.0  0.84150  0.23442  0.99375  1.0000
  H   H667      1.0  0.59315  0.15688  0.99719  1.0000
  C   C817      1.0  0.74027  0.22718  0.99373  1.0000
  C   C818      1.0  0.63543  0.21655  0.99574  1.0000
  H   H668      1.0  0.89436  0.27344  0.43671  1.0000
  S   S108      1.0  0.82472  0.17182  0.36432  1.0000
  H   H669      1.0  0.68794  0.05767  0.37922  1.0000
  C   C819      1.0  0.63646  0.22576  0.63404  1.0000
  Fe  Fe53      1.0  0.66655  0.40363  0.56499  1.0000
  S   S109      1.0  0.68330  0.39157  0.53502  1.0000
  S   S110      1.0  0.66040  0.44461  0.57790  1.0000
  Fe  Fe54      1.0  0.63971  0.34804  0.57396  1.0000
  S   S111      1.0  0.65282  0.33304  0.54395  1.0000
  S   S112      1.0  0.61559  0.31644  0.59272  1.0000
  Fe  Fe55      1.0  0.71172  0.35580  0.55203  1.0000
  S   S113      1.0  0.77003  0.33145  0.55315  1.0000
  Fe  Fe56      1.0  0.62365  0.36922  0.52918  1.0000
  S   S114      1.0  0.58042  0.37460  0.49757  1.0000
  S   S115      1.0  0.69948  0.36959  0.58280  1.0000
  S   S116      1.0  0.60587  0.38249  0.55830  1.0000
  H   H670      1.0  0.53943  0.23160  0.60432  1.0000
  H   H671      1.0  0.85954  0.00349  0.32777  1.0000
  H   H672      1.0  0.88172  0.07527  0.35973  1.0000
  Fe  Fe57      1.0  0.95161  0.27467  0.49741  1.0000
  S   S117      1.0  0.90185  0.30538  0.49804  1.0000
  S   S118      1.0  0.94123  0.23156  0.49622  1.0000
  C   C820      1.0  0.60702  0.29745  0.37211  1.0000
  C   C821      1.0  0.53076  0.36109  0.49016  1.0000
  H   H673      1.0  0.54181  0.32923  0.51130  1.0000
  C   C822      1.0  0.80364  0.32358  0.53627  1.0000
  C   C823      1.0  0.82663  0.30068  0.53982  1.0000
  C   C824      1.0  0.85559  0.29430  0.52788  1.0000
  C   C825      1.0  0.86312  0.31117  0.51255  1.0000
  C   C826      1.0  0.83971  0.33391  0.50881  1.0000
  C   C827      1.0  0.81005  0.34000  0.52043  1.0000
  H   H674      1.0  0.82194  0.28775  0.55192  1.0000
  H   H675      1.0  0.87264  0.27655  0.53078  1.0000
  H   H676      1.0  0.84492  0.34713  0.49697  1.0000
  H   H677      1.0  0.79301  0.35777  0.51751  1.0000
  H   H678      1.0  0.73829  0.00076  0.43966  1.0000
  C   C828      1.0  0.85555  0.07629  0.36689  1.0000
  C   C829      1.0  0.60709  0.33649  0.63091  1.0000
  C   C830      1.0  0.60629  0.31475  0.61825  1.0000
  C   C831      1.0  0.59662  0.29064  0.62576  1.0000
  H   H679      1.0  0.61808  0.31717  0.37257  1.0000
  C   C832      1.0  0.49234  0.34785  0.35437  1.0000
  H   H680      1.0  0.61438  0.35520  0.62537  1.0000
  H   H681      1.0  0.59549  0.27379  0.61600  1.0000
  C   C833      1.0  0.86532  0.18053  0.38566  1.0000
  C   C834      1.0  0.85674  0.19709  0.40110  1.0000
  C   C835      1.0  0.88751  0.20445  0.41843  1.0000
  C   C836      1.0  0.92741  0.19521  0.42064  1.0000
  C   C837      1.0  0.93609  0.17884  0.40509  1.0000
  C   C838      1.0  0.90536  0.17159  0.38769  1.0000
  H   H682      1.0  0.82597  0.20423  0.39969  1.0000
  H   H683      1.0  0.88025  0.21703  0.43020  1.0000
  H   H684      1.0  0.96814  0.24467  0.55712  1.0000
  H   H685      1.0  0.91265  0.15906  0.37591  1.0000
  C   C839      1.0  0.58678  0.28873  0.38724  1.0000
  H   H686      1.0  0.92869  0.34446  0.41151  1.0000
  C   C840      1.0  0.90505  0.22313  0.35394  1.0000
  H   H687      1.0  0.71048  0.46676  0.55033  1.0000
  C   C841      1.0  0.91972  0.29851  0.60172  1.0000
  H   H688      1.0  0.85344  0.20513  0.53704  1.0000
  S   S119      1.0  0.96745  0.20320  0.44244  1.0000
  H   H689      1.0  0.65315  0.05714  0.40851  1.0000
  C   C842      1.0  0.59825  0.48450  0.52250  1.0000
  C   C843      1.0  0.69993  0.18162  0.33862  1.0000
  C   C844      1.0  0.67279  0.47692  0.57164  1.0000
  S   S120      1.0  0.76682  0.11840  0.32728  1.0000
  C   C845      1.0  0.59365  0.44488  0.50269  1.0000
  C   C846      1.0  0.79652  0.27350  0.61690  1.0000
  C   C847      1.0  0.96074  0.28321  0.40485  1.0000
  C   C848      1.0  0.69757  0.48242  0.55760  1.0000
  H   H690      1.0  0.80411  0.11923  0.39042  1.0000
  H   H691      1.0  0.74069  0.16597  0.36548  1.0000
  H   H692      1.0  0.55680  0.25653  0.39837  1.0000
  C   C849      1.0  0.58802  0.28812  0.64568  1.0000
  C   C850      1.0  0.88017  0.25073  0.57481  1.0000
  C   C851      1.0  0.51765  0.32678  0.55173  1.0000
  H   H693      1.0  0.84667  0.34470  0.58743  1.0000
  C   C852      1.0  0.77327  0.28857  0.60115  1.0000
  C   C853      1.0  0.78411  0.99907  0.37006  1.0000
  C   C854      1.0  0.49004  0.34631  0.61902  1.0000
  C   C855      1.0  0.95707  0.31014  0.40276  1.0000
  H   H694      1.0  0.53154  0.49057  0.54602  1.0000
  C   C856      1.0  0.74719  0.01325  0.40983  1.0000
  C   C857      1.0  0.91140  0.28369  0.42699  1.0000
  H   H695      1.0  0.52717  0.26358  0.53973  1.0000
  C   C858      1.0  0.87212  0.21910  0.54717  1.0000
  C   C859      1.0  0.59429  0.36924  0.43991  1.0000
  C   C860      1.0  0.62394  0.37234  0.42814  1.0000
  C   C861      1.0  0.61377  0.36797  0.40672  1.0000
  C   C862      1.0  0.57399  0.36035  0.39707  1.0000
  C   C863      1.0  0.54411  0.35687  0.40884  1.0000
  C   C864      1.0  0.55454  0.36169  0.43031  1.0000
  H   H696      1.0  0.56911  0.30307  0.54951  1.0000
  H   H697      1.0  0.67813  0.02877  0.43881  1.0000
  C   C865      1.0  0.67937  0.04485  0.40887  1.0000
  H   H698      1.0  0.91011  0.24432  0.38212  1.0000
  C   C866      1.0  0.86638  0.33108  0.59732  1.0000
  H   H699      1.0  0.62910  0.28786  0.34492  1.0000
  C   C867      1.0  0.49638  0.40289  0.56766  1.0000
  C   C868      1.0  0.54356  0.47853  0.49214  1.0000
  H   H700      1.0  0.60210  0.37261  0.45655  1.0000
  H   H701      1.0  0.65477  0.37816  0.43567  1.0000
  H   H702      1.0  0.63679  0.37056  0.39762  1.0000
  H   H703      1.0  0.56687  0.35713  0.38049  1.0000
  H   H704      1.0  0.53203  0.35935  0.43972  1.0000
  H   H705      1.0  0.53374  0.31113  0.42944  1.0000
  H   H706      1.0  0.93015  0.30399  0.55029  1.0000
  C   C869      1.0  0.51962  0.33865  0.49931  1.0000
  C   C870      1.0  0.50100  0.30878  0.42732  1.0000
  H   H707      1.0  0.87365  0.21733  0.35340  1.0000
  H   H708      1.0  0.50011  0.21185  0.62777  1.0000
  C   C871      1.0  0.71999  0.03502  0.34756  1.0000
  C   C872      1.0  0.72734  0.01312  0.42641  1.0000
  H   H709      1.0  0.88840  0.32091  0.43311  1.0000
  H   H710      1.0  0.82436  0.22968  0.56271  1.0000
  C   C873      1.0  0.85585  0.23284  0.56168  1.0000
  C   C874      1.0  0.71534  0.17888  0.35991  1.0000
  H   H711      1.0  0.97349  0.00208  0.36476  1.0000
  C   C875      1.0  0.66540  0.20948  0.36679  1.0000
  C   C876      1.0  0.69827  0.19290  0.37399  1.0000
  H   H712      1.0  0.92549  0.21224  0.53482  1.0000
  C   C877      1.0  0.93804  0.27020  0.41724  1.0000
  H   H713      1.0  0.63975  0.45253  0.53017  1.0000
  C   C878      1.0  0.69913  0.04503  0.39226  1.0000
  C   C879      1.0  0.69344  0.02889  0.42594  1.0000
  C   C880      1.0  0.73661  0.29937  0.60377  1.0000
  C   C881      1.0  0.66733  0.19827  0.33136  1.0000
  C   C882      1.0  0.74664  0.28037  0.63819  1.0000
  H   H714      1.0  0.86569  0.11628  0.37574  1.0000
  C   C883      1.0  0.72330  0.29530  0.62218  1.0000
  C   C884      1.0  0.68280  0.02129  0.34404  1.0000
  C   C885      1.0  0.57867  0.24651  0.37099  1.0000
  C   C886      1.0  0.59914  0.25509  0.35577  1.0000
  C   C887      1.0  0.91484  0.29438  0.62210  1.0000
  P   P28       1.0  0.60681  0.23323  0.33558  1.0000
  H   H715      1.0  0.65275  0.22010  0.37800  1.0000
  H   H716      1.0  0.71072  0.19094  0.39049  1.0000
  C   C888      1.0  0.93675  0.24165  0.55847  1.0000
  H   H717      1.0  0.98070  0.21474  0.32766  1.0000
  C   C889      1.0  0.53622  0.30365  0.54808  1.0000
  C   C890      1.0  0.92079  0.25536  0.57322  1.0000
  H   H718      1.0  0.52141  0.41125  0.51333  1.0000
  C   C891      1.0  0.84640  0.09940  0.37575  1.0000
  C   C892      1.0  0.48945  0.33668  0.33479  1.0000
  C   C893      1.0  0.91261  0.22333  0.54573  1.0000
  H   H719      1.0  0.58028  0.26944  0.65108  1.0000
  C   C894      1.0  0.92600  0.23859  0.37027  1.0000
  C   C895      1.0  0.81153  0.10103  0.38404  1.0000
  H   H720      1.0  0.58215  0.30168  0.39942  1.0000
  P   P29       1.0  0.95282  0.27787  0.59049  1.0000
  C   C896      1.0  0.82981  0.05480  0.36625  1.0000
  C   C897      1.0  0.79476  0.05618  0.37461  1.0000
  C   C898      1.0  0.78568  0.07957  0.38341  1.0000
  P   P30       1.0  0.75850  0.02964  0.37099  1.0000
  C   C899      1.0  0.58779  0.30993  0.65814  1.0000
  H   H721      1.0  0.75446  0.06436  0.33532  1.0000
  C   C900      1.0  0.55872  0.45403  0.48910  1.0000
  H   H722      1.0  0.82481  0.26503  0.61477  1.0000
  C   C901      1.0  0.50209  0.37289  0.47421  1.0000
  H   H723      1.0  0.54352  0.44204  0.47623  1.0000
  H   H724      1.0  0.96773  0.33149  0.53066  1.0000
  C   C902      1.0  0.64955  0.21220  0.34537  1.0000
  C   C903      1.0  0.98768  0.26025  0.61050  1.0000
  C   C904      1.0  0.90810  0.31044  0.42496  1.0000
  C   C905      1.0  0.73319  0.02917  0.39257  1.0000
  C   C906      1.0  0.86240  0.32722  0.61771  1.0000
  H   H725      1.0  0.62000  0.22119  0.61844  1.0000
  H   H726      1.0  0.53671  0.34369  0.55613  1.0000
  H   H727      1.0  0.94127  0.24960  0.41953  1.0000
  C   C907      1.0  0.51261  0.28138  0.54271  1.0000
  C   C908      1.0  0.61314  0.45999  0.51945  1.0000
  H   H728      1.0  0.51791  0.35463  0.59341  1.0000
  H   H729      1.0  0.67307  0.25486  0.62384  1.0000
  H   H730      1.0  0.83645  0.03749  0.35842  1.0000
  H   H731      1.0  0.75822  0.08159  0.38933  1.0000
  H   H732      1.0  0.54933  0.44234  0.54151  1.0000
  H   H733      1.0  0.67763  0.00660  0.35486  1.0000
  H   H734      1.0  0.69460  0.30371  0.62385  1.0000
  H   H735      1.0  0.97246  0.00885  0.32773  1.0000
  H   H736      1.0  0.60572  0.42605  0.50031  1.0000
  C   C909      1.0  0.48984  0.38833  0.53219  1.0000
  H   H737      1.0  0.74579  0.32979  0.65449  1.0000
  H   H738      1.0  0.96683  0.17164  0.40656  1.0000
  C   C910      1.0  0.68838  0.25108  0.65738  1.0000
  H   H739      1.0  0.86697  0.26098  0.58601  1.0000
  C   C911      1.0  0.59730  0.33411  0.65059  1.0000
  H   H740      1.0  0.78349  0.29191  0.58685  1.0000
  H   H741      1.0  0.71836  0.31084  0.59144  1.0000
  Fe  Fe58      1.0  0.97525  0.23111  0.47028  1.0000
  C   C912      1.0  0.66683  0.24493  0.63720  1.0000
  C   C913      1.0  0.61325  0.28072  0.35643  1.0000
  C   C914      1.0  0.52048  0.42373  0.56382  1.0000
  H   H742      1.0  0.89632  0.31990  0.57338  1.0000
  H   H743      1.0  0.83760  0.00980  0.39350  1.0000
  C   C915      1.0  0.56343  0.49414  0.50881  1.0000
  C   C916      1.0  0.89493  0.31690  0.58938  1.0000
  C   C917      1.0  0.57254  0.26329  0.38665  1.0000
  H   H744      1.0  0.56763  0.22679  0.37080  1.0000
  C   C918      1.0  0.72580  0.05395  0.33329  1.0000
  H   H745      1.0  0.48995  0.40094  0.58294  1.0000
  C   C919      1.0  0.78334  0.26939  0.63537  1.0000
  H   H746      1.0  0.63796  0.49388  0.59209  1.0000
  C   C920      1.0  0.62746  0.21254  0.65095  1.0000
  H   H747      1.0  0.49478  0.36865  0.35598  1.0000
  C   C921      1.0  0.52936  0.42680  0.54423  1.0000
  H   H748      1.0  0.50702  0.28038  0.45160  1.0000
  Fe  Fe59      1.0  0.81591  0.14912  0.33362  1.0000
  S   S121      1.0  0.98252  0.27450  0.46987  1.0000
  C   C922      1.0  0.96208  0.30778  0.55663  1.0000
  H   H749      1.0  0.59690  0.35117  0.66001  1.0000
  C   C923      1.0  0.98644  0.23720  0.35573  1.0000
  H   H750      1.0  0.80177  0.25760  0.64731  1.0000
  H   H751      1.0  0.83987  0.33807  0.62368  1.0000
  C   C924      1.0  0.51378  0.40922  0.52838  1.0000
  H   H752      1.0  0.51902  0.34550  0.63014  1.0000
  H   H753      1.0  0.93190  0.27954  0.63172  1.0000
  H   H754      1.0  0.51647  0.48494  0.48142  1.0000
  C   C925      1.0  0.92472  0.21460  0.33859  1.0000
  C   C926      1.0  0.49103  0.33232  0.37164  1.0000
  H   H755      1.0  0.88301  0.30560  0.64581  1.0000
  H   H756      1.0  0.49201  0.39547  0.42037  1.0000
  H   H757      1.0  0.53335  0.43712  0.57618  1.0000
  H   H758      1.0  0.51054  0.39020  0.46698  1.0000
  C   C927      1.0  0.93091  0.32366  0.41285  1.0000
  C   C928      1.0  0.98189  0.29679  0.57554  1.0000
  H   H759      1.0  0.60410  0.19762  0.64854  1.0000
  C   C929      1.0  0.51282  0.24135  0.60737  1.0000
  C   C930      1.0  0.50175  0.26539  0.59843  1.0000
  H   H760      1.0  0.52017  0.24625  0.32883  1.0000
  C   C931      1.0  0.98354  0.32337  0.54535  1.0000
  H   H761      1.0  0.51991  0.27434  0.58857  1.0000
  H   H762      1.0  0.77334  0.00087  0.41061  1.0000
  C   C932      1.0  0.88668  0.30892  0.63012  1.0000
  C   C933      1.0  0.56069  0.21420  0.32739  1.0000
  P   P31       1.0  0.49248  0.34700  0.39668  1.0000
  H   H763      1.0  0.97559  0.22252  0.59587  1.0000
  H   H764      1.0  0.97467  0.32087  0.39368  1.0000
  C   C934      1.0  0.96541  0.22162  0.33948  1.0000
  C   C935      1.0  0.96680  0.24603  0.37118  1.0000
  C   C936      1.0  0.48917  0.35170  0.59818  1.0000
  H   H765      1.0  0.71324  0.17077  0.32769  1.0000
  C   C937      1.0  0.49028  0.23020  0.62068  1.0000
  H   H766      1.0  0.98230  0.29645  0.35493  1.0000
  Fe  Fe60      1.0  0.54679  0.23393  0.73045  1.0000
  S   S122      1.0  0.54187  0.27726  0.73110  1.0000
  Fe  Fe61      1.0  0.63860  0.23612  0.73143  1.0000
  S   S123      1.0  0.63921  0.27945  0.73225  1.0000
  S   S124      1.0  0.69979  0.21857  0.72918  1.0000
  Fe  Fe62      1.0  0.60014  0.27637  0.75591  1.0000
  S   S125      1.0  0.61769  0.30558  0.78270  1.0000
  Fe  Fe63      1.0  0.58171  0.27746  0.70750  1.0000
  S   S126      1.0  0.57157  0.30848  0.68211  1.0000
  S   S127      1.0  0.60347  0.23302  0.75670  1.0000
  S   S128      1.0  0.58283  0.23415  0.70514  1.0000
  Fe  Fe64      1.0  0.62074  0.40050  0.92166  1.0000
  S   S129      1.0  0.56801  0.37322  0.90943  1.0000
  S   S130      1.0  0.60938  0.44221  0.91026  1.0000
  Fe  Fe65      1.0  0.67207  0.35758  0.94565  1.0000
  S   S131      1.0  0.62258  0.32799  0.93540  1.0000
  S   S132      1.0  0.72879  0.34607  0.97000  1.0000
  Fe  Fe66      1.0  0.61528  0.34516  0.90343  1.0000
  S   S133      1.0  0.60318  0.31405  0.87771  1.0000
  Fe  Fe67      1.0  0.57872  0.35795  0.94205  1.0000
  H   H767      1.0  0.53480  0.16867  0.83244  1.0000
  S   S134      1.0  0.66780  0.37328  0.91338  1.0000
  S   S135      1.0  0.62850  0.38673  0.95464  1.0000
  Fe  Fe68      1.0  0.94391  0.09210  0.80871  1.0000
  H   H768      1.0  0.59065  0.26718  0.89632  1.0000
  Fe  Fe69      1.0  0.87267  0.12942  0.79454  1.0000
  S   S136      1.0  0.91438  0.16364  0.79738  1.0000
  S   S137      1.0  0.80312  0.13278  0.78678  1.0000
  Fe  Fe70      1.0  0.95516  0.13879  0.78247  1.0000
  Fe  Fe71      1.0  0.94611  0.14686  0.82815  1.0000
  Fe  Fe72      1.0  0.94025  0.26539  0.98161  1.0000
  S   S138      1.0  0.91055  0.10553  0.77720  1.0000
  S   S139      1.0  0.90244  0.11326  0.82596  1.0000
  C   C938      1.0  0.90822  0.05037  0.73489  1.0000
  H   H769      1.0  0.54208  0.43056  0.92961  1.0000
  S   S140      1.0  0.89269  0.28992  0.95989  1.0000
  S   S141      1.0  0.97156  0.05154  0.81370  1.0000
  P   P32       1.0  0.72886  0.27509  0.66188  1.0000
  C   C939      1.0  0.80066  0.32003  0.98431  1.0000
  H   H770      1.0  0.50720  0.27339  0.86895  1.0000
  S   S142      1.0  0.49717  0.20329  0.73167  1.0000
  H   H771      1.0  0.93585  0.28096  0.92659  1.0000
  C   C940      1.0  0.50468  0.31157  0.78305  1.0000
  H   H772      1.0  0.78721  0.30059  0.69599  1.0000
  C   C941      1.0  0.82277  0.27045  0.71328  1.0000
  C   C942      1.0  0.77345  0.32975  0.96670  1.0000
  C   C943      1.0  0.78304  0.32685  0.94724  1.0000
  C   C944      1.0  0.81979  0.31474  0.94552  1.0000
  C   C945      1.0  0.84719  0.30525  0.96316  1.0000
  H   H773      1.0  0.89524  0.06954  0.73460  1.0000
  C   C946      1.0  0.59041  0.29635  0.98180  1.0000
  H   H774      1.0  0.76264  0.33451  0.93362  1.0000
  H   H775      1.0  0.82719  0.31291  0.93043  1.0000
  H   H776      1.0  0.49252  0.22274  0.68311  1.0000
  H   H777      1.0  0.68976  0.21455  0.89783  1.0000
  C   C947      1.0  0.64883  0.21849  0.67104  1.0000
  C   C948      1.0  0.72805  0.19532  0.74605  1.0000
  C   C949      1.0  0.77106  0.19604  0.75002  1.0000
  C   C950      1.0  0.79460  0.17716  0.76253  1.0000
  C   C951      1.0  0.77523  0.15697  0.77077  1.0000
  C   C952      1.0  0.73223  0.15603  0.76647  1.0000
  C   C953      1.0  0.70872  0.17529  0.75443  1.0000
  H   H778      1.0  0.78627  0.21129  0.74339  1.0000
  H   H779      1.0  0.82766  0.17804  0.76562  1.0000
  H   H780      1.0  0.71701  0.14034  0.77259  1.0000
  H   H781      1.0  0.67567  0.17427  0.75121  1.0000
  C   C954      1.0  0.61317  0.30737  0.80908  1.0000
  C   C955      1.0  0.62654  0.32994  0.82052  1.0000
  C   C956      1.0  0.62372  0.33244  0.84148  1.0000
  C   C957      1.0  0.60776  0.31223  0.85134  1.0000
  C   C958      1.0  0.59493  0.28949  0.84000  1.0000
  C   C959      1.0  0.59714  0.28716  0.81894  1.0000
  H   H782      1.0  0.63884  0.34576  0.81306  1.0000
  H   H783      1.0  0.63372  0.35005  0.84995  1.0000
  H   H784      1.0  0.58285  0.27369  0.84753  1.0000
  H   H785      1.0  0.58603  0.26990  0.81026  1.0000
  C   C960      1.0  0.51936  0.43841  0.93735  1.0000
  C   C961      1.0  0.90499  0.01755  0.80442  1.0000
  C   C962      1.0  0.94741  0.02063  0.81084  1.0000
  C   C963      1.0  0.97235  0.15901  0.91509  1.0000
  H   H786      1.0  0.88566  0.03438  0.80137  1.0000
  H   H787      1.0  0.52456  0.32659  0.79125  1.0000
  H   H788      1.0  0.56486  0.19234  0.77525  1.0000
  C   C964      1.0  0.62504  0.47288  0.92162  1.0000
  H   H789      1.0  0.65315  0.32731  0.70373  1.0000
  H   H790      1.0  0.65777  0.45869  0.95116  1.0000
  C   C965      1.0  0.49771  0.42204  0.94793  1.0000
  C   C966      1.0  0.72330  0.24108  0.97567  1.0000
  C   C967      1.0  0.67137  0.22614  0.90593  1.0000
  C   C968      1.0  0.64858  0.47565  0.94182  1.0000
  H   H791      1.0  0.64255  0.20803  0.68423  1.0000
  H   H792      1.0  0.50679  0.28945  0.81037  1.0000
  C   C969      1.0  0.96470  0.15718  0.89322  1.0000
  H   H793      1.0  0.80513  0.14507  0.83180  1.0000
  H   H794      1.0  0.87374  0.15864  0.85146  1.0000
  H   H795      1.0  0.55768  0.29838  0.98032  1.0000
  C   C970      1.0  0.91185  0.03830  0.71643  1.0000
  H   H796      1.0  0.83982  0.28352  0.72486  1.0000
  H   H797      1.0  0.81368  0.20644  0.70157  1.0000
  C   C971      1.0  0.67359  0.32775  0.69304  1.0000
  C   C972      1.0  0.70910  0.19895  0.80236  1.0000
  C   C973      1.0  0.67237  0.20578  0.80755  1.0000
  C   C974      1.0  0.66448  0.23162  0.81095  1.0000
  C   C975      1.0  0.69363  0.25059  0.80959  1.0000
  C   C976      1.0  0.73134  0.24384  0.80501  1.0000
  C   C977      1.0  0.73792  0.21790  0.80044  1.0000
  P   P33       1.0  0.77018  0.26829  0.80450  1.0000
  C   C978      1.0  0.82020  0.25372  0.80711  1.0000
  C   C979      1.0  0.75867  0.28440  0.77971  1.0000
  C   C980      1.0  0.74898  0.26959  0.76150  1.0000
  C   C981      1.0  0.74382  0.28139  0.74208  1.0000
  C   C982      1.0  0.74791  0.30812  0.74069  1.0000
  C   C983      1.0  0.75775  0.32304  0.75875  1.0000
  C   C984      1.0  0.76363  0.31123  0.77822  1.0000
  C   C985      1.0  0.83166  0.23241  0.82020  1.0000
  C   C986      1.0  0.86998  0.22100  0.82174  1.0000
  C   C987      1.0  0.89748  0.23099  0.81062  1.0000
  C   C988      1.0  0.88669  0.25241  0.79784  1.0000
  C   C989      1.0  0.84828  0.26377  0.79609  1.0000
  C   C990      1.0  0.77116  0.29079  0.82567  1.0000
  C   C991      1.0  0.73963  0.30888  0.82472  1.0000
  C   C992      1.0  0.73951  0.32543  0.84147  1.0000
  C   C993      1.0  0.77094  0.32425  0.85924  1.0000
  C   C994      1.0  0.80277  0.30666  0.86021  1.0000
  C   C995      1.0  0.80298  0.29008  0.84348  1.0000
  H   H798      1.0  0.71505  0.17893  0.79951  1.0000
  H   H799      1.0  0.64966  0.19111  0.80843  1.0000
  H   H800      1.0  0.63546  0.23702  0.81434  1.0000
  H   H801      1.0  0.68607  0.27044  0.81185  1.0000
  H   H802      1.0  0.76510  0.21206  0.79530  1.0000
  H   H803      1.0  0.74593  0.24885  0.76235  1.0000
  H   H804      1.0  0.73614  0.26972  0.72811  1.0000
  H   H805      1.0  0.74343  0.31724  0.72563  1.0000
  H   H806      1.0  0.76092  0.34378  0.75767  1.0000
  H   H807      1.0  0.77254  0.32310  0.79196  1.0000
  H   H808      1.0  0.81101  0.22445  0.82914  1.0000
  H   H809      1.0  0.87860  0.20426  0.83149  1.0000
  H   H810      1.0  0.92706  0.22195  0.81187  1.0000
  H   H811      1.0  0.90801  0.26004  0.78912  1.0000
  H   H812      1.0  0.84063  0.28031  0.78604  1.0000
  H   H813      1.0  0.71499  0.31028  0.81104  1.0000
  H   H814      1.0  0.71482  0.33909  0.84071  1.0000
  H   H815      1.0  0.77051  0.33691  0.87229  1.0000
  H   H816      1.0  0.82709  0.30570  0.87405  1.0000
  H   H817      1.0  0.82789  0.27670  0.84462  1.0000
  C   C996      1.0  0.91457  0.26341  0.87566  1.0000
  C   C997      1.0  0.93472  0.27531  0.89409  1.0000
  C   C998      1.0  0.92044  0.27166  0.91225  1.0000
  C   C999      1.0  0.88618  0.25602  0.91204  1.0000
  C   C1000     1.0  0.86629  0.24358  0.89370  1.0000
  C   C1001     1.0  0.88043  0.24769  0.87548  1.0000
  P   P34       1.0  0.82111  0.22424  0.89332  1.0000
  C   C1002     1.0  0.81553  0.19909  0.87382  1.0000
  C   C1003     1.0  0.82847  0.20719  0.91766  1.0000
  C   C1004     1.0  0.86670  0.19632  0.92624  1.0000
  C   C1005     1.0  0.87298  0.18326  0.94515  1.0000
  C   C1006     1.0  0.84114  0.18089  0.95564  1.0000
  C   C1007     1.0  0.80269  0.19115  0.94698  1.0000
  C   C1008     1.0  0.79623  0.20406  0.92795  1.0000
  C   C1009     1.0  0.77667  0.19012  0.86357  1.0000
  C   C1010     1.0  0.77295  0.17092  0.84831  1.0000
  C   C1011     1.0  0.80792  0.15988  0.84370  1.0000
  C   C1012     1.0  0.84659  0.16762  0.85469  1.0000
  C   C1013     1.0  0.85043  0.18704  0.86973  1.0000
  C   C1014     1.0  0.77883  0.24665  0.88997  1.0000
  C   C1015     1.0  0.75294  0.25065  0.87040  1.0000
  C   C1016     1.0  0.72035  0.26799  0.86818  1.0000
  C   C1017     1.0  0.71417  0.28209  0.88528  1.0000
  C   C1018     1.0  0.74073  0.27902  0.90458  1.0000
  C   C1019     1.0  0.77316  0.26159  0.90691  1.0000
  H   H818      1.0  0.92570  0.26605  0.86156  1.0000
  C   C1020     1.0  0.60632  0.27400  0.97475  1.0000
  C   C1021     1.0  0.63924  0.24079  0.89463  1.0000
  H   H819      1.0  0.87544  0.25358  0.92626  1.0000
  H   H820      1.0  0.86534  0.23856  0.86119  1.0000
  H   H821      1.0  0.89190  0.19809  0.91844  1.0000
  H   H822      1.0  0.84642  0.17115  0.97049  1.0000
  H   H823      1.0  0.77807  0.18928  0.95515  1.0000
  H   H824      1.0  0.76627  0.21166  0.92135  1.0000
  H   H825      1.0  0.74921  0.19773  0.86738  1.0000
  H   H826      1.0  0.74301  0.16435  0.84012  1.0000
  H   H827      1.0  0.51584  0.22813  0.77228  1.0000
  H   H828      1.0  0.94555  0.00291  0.76899  1.0000
  H   H829      1.0  0.88075  0.19258  0.87814  1.0000
  H   H830      1.0  0.75823  0.24093  0.85672  1.0000
  H   H831      1.0  0.70032  0.27106  0.85313  1.0000
  H   H832      1.0  0.68915  0.29572  0.88351  1.0000
  H   H833      1.0  0.73629  0.29040  0.91770  1.0000
  H   H834      1.0  0.79404  0.25998  0.92190  1.0000
  C   C1022     1.0  0.62449  0.25676  0.92671  1.0000
  C   C1023     1.0  0.65703  0.24239  0.93823  1.0000
  C   C1024     1.0  0.67996  0.22671  0.92764  1.0000
  H   H835      1.0  0.50373  0.40146  0.94836  1.0000
  H   H836      1.0  0.53380  0.48176  0.98566  1.0000
  C   C1025     1.0  0.96469  0.17939  0.88119  1.0000
  H   H837      1.0  0.57541  0.16296  0.80546  1.0000
  C   C1026     1.0  0.56637  0.47891  0.99074  1.0000
  C   C1027     1.0  0.55399  0.17875  0.80438  1.0000
  C   C1028     1.0  0.76999  0.26311  0.68208  1.0000
  H   H838      1.0  0.60892  0.15471  0.96220  1.0000
  C   C1029     1.0  0.68699  0.35136  0.68674  1.0000
  H   H839      1.0  0.85299  0.23642  0.72784  1.0000
  H   H840      1.0  0.64127  0.19168  0.94859  1.0000
  S   S143      1.0  0.95869  0.17836  0.85361  1.0000
  C   C1030     1.0  0.53105  0.18196  0.81952  1.0000
  C   C1031     1.0  0.61557  0.25580  0.90504  1.0000
  H   H841      1.0  0.97369  0.14160  0.92422  1.0000
  H   H842      1.0  0.67696  0.36921  0.69256  1.0000
  H   H843      1.0  0.91702  0.04660  0.76807  1.0000
  C   C1032     1.0  0.92060  0.03751  0.75377  1.0000
  H   H844      1.0  0.60611  0.26906  0.93422  1.0000
  H   H845      1.0  0.70462  0.21504  0.93620  1.0000
  P   P35       1.0  0.66841  0.24286  0.96634  1.0000
  H   H846      1.0  0.52987  0.18411  0.69826  1.0000
  H   H847      1.0  0.69497  0.24213  0.68995  1.0000
  Fe  Fe73      1.0  0.98759  0.21732  0.97530  1.0000
  H   H848      1.0  0.96141  0.28733  0.89437  1.0000
  S   S144      1.0  0.52268  0.34541  0.95455  1.0000
  C   C1033     1.0  0.67877  0.23784  0.67425  1.0000
  C   C1034     1.0  0.79283  0.28004  0.69688  1.0000
  H   H849      1.0  0.76128  0.22308  0.67242  1.0000
  C   C1035     1.0  0.58317  0.45491  0.98781  1.0000
  C   C1036     1.0  0.80816  0.22703  0.70011  1.0000
  C   C1037     1.0  0.68530  0.30465  0.68508  1.0000
  C   C1038     1.0  0.93737  0.01282  0.75426  1.0000
  H   H850      1.0  0.58550  0.25864  0.96810  1.0000
  C   C1039     1.0  0.77836  0.23655  0.68365  1.0000
  S   S145      1.0  0.92766  0.22310  0.98483  1.0000
  C   C1040     1.0  0.92871  0.01359  0.71690  1.0000
  C   C1041     1.0  0.54840  0.19549  0.78746  1.0000
  H   H851      1.0  0.56365  0.43914  0.98075  1.0000
  H   H852      1.0  0.63286  0.24082  0.87781  1.0000
  C   C1042     1.0  0.83025  0.24394  0.71496  1.0000
  C   C1043     1.0  0.71276  0.35191  0.67272  1.0000
  H   H853      1.0  0.67391  0.28670  0.69001  1.0000
  H   H854      1.0  0.73737  0.26450  0.95091  1.0000
  C   C1044     1.0  0.83726  0.30774  0.98258  1.0000
  H   H855      1.0  0.90286  0.17529  0.95180  1.0000
  C   C1045     1.0  0.50727  0.18255  0.68381  1.0000
  C   C1046     1.0  0.94328  0.00113  0.73594  1.0000
  C   C1047     1.0  0.64431  0.21555  0.97590  1.0000
  C   C1048     1.0  0.52033  0.21569  0.78575  1.0000
  C   C1049     1.0  0.72513  0.32885  0.66499  1.0000
  C   C1050     1.0  0.49479  0.29014  0.79386  1.0000
  C   C1051     1.0  0.79190  0.24991  0.97074  1.0000
  C   C1052     1.0  0.50228  0.20177  0.81762  1.0000
  H   H856      1.0  0.98119  0.09800  0.86938  1.0000
  C   C1053     1.0  0.63471  0.19306  0.96388  1.0000
  H   H857      1.0  0.95958  0.13853  0.88575  1.0000
  H   H858      1.0  0.70728  0.29141  0.98509  1.0000
  C   C1054     1.0  0.64857  0.27184  0.97576  1.0000
  C   C1055     1.0  0.50572  0.35378  0.97746  1.0000
  C   C1056     1.0  0.71098  0.30499  0.67086  1.0000
  C   C1057     1.0  0.51206  0.46494  0.93691  1.0000
  H   H859      1.0  0.81204  0.25847  0.96180  1.0000
  H   H860      1.0  0.90131  0.04807  0.70176  1.0000
  C   C1058     1.0  0.97192  0.99843  0.81472  1.0000
  C   C1059     1.0  0.61633  0.17200  0.97156  1.0000
  H   H861      1.0  0.97023  0.22081  0.88226  1.0000
  C   C1060     1.0  0.49709  0.21899  0.80084  1.0000
  C   C1061     1.0  0.97865  0.18309  0.92526  1.0000
  H   H862      1.0  0.51502  0.25615  0.83523  1.0000
  C   C1062     1.0  0.74955  0.25294  0.96448  1.0000
  C   C1063     1.0  0.60745  0.17320  0.99127  1.0000
  H   H863      1.0  0.72297  0.37024  0.66772  1.0000
  C   C1064     1.0  0.67467  0.29221  0.98434  1.0000
  H   H864      1.0  0.93034  0.00425  0.70243  1.0000
  S   S146      1.0  0.98089  0.15547  0.75583  1.0000
  H   H865      1.0  0.98122  0.22410  0.92067  1.0000
  C   C1065     1.0  0.80855  0.23613  0.98870  1.0000
  C   C1066     1.0  0.61654  0.31655  0.99023  1.0000
  H   H866      1.0  0.52954  0.47752  0.92890  1.0000
  C   C1067     1.0  0.49869  0.15849  0.67428  1.0000
  C   C1068     1.0  0.52660  0.37162  0.99196  1.0000
  H   H867      1.0  0.49805  0.32989  0.75330  1.0000
  H   H868      1.0  0.51464  0.14153  0.68138  1.0000
  H   H869      1.0  0.49107  0.30425  0.68815  1.0000
  C   C1069     1.0  0.97014  0.20350  0.89133  1.0000
  H   H870      1.0  0.49281  0.26757  0.66459  1.0000
  C   C1070     1.0  0.97644  0.20542  0.91317  1.0000
  C   C1071     1.0  0.65863  0.31436  0.99170  1.0000
  H   H871      1.0  0.55412  0.38083  0.98937  1.0000
  H   H872      1.0  0.59513  0.49337  0.89416  1.0000
  H   H873      1.0  0.63853  0.43292  0.99070  1.0000
  C   C1072     1.0  0.48976  0.31343  0.76166  1.0000
  C   C1073     1.0  0.62543  0.45135  0.99349  1.0000
  Fe  Fe74      1.0  0.84005  0.86726  0.29946  1.0000
  S   S147      1.0  0.90040  0.87409  0.28881  1.0000
  Fe  Fe75      1.0  0.75334  0.84546  0.30053  1.0000
  S   S148      1.0  0.70649  0.81384  0.28567  1.0000
  C   C1074     1.0  0.76012  0.64856  0.03697  1.0000
  C   C1075     1.0  0.64908  0.68593  0.07965  1.0000
  S   S149      1.0  0.77635  0.87667  0.28173  1.0000
  H   H874      1.0  0.52683  0.77238  0.22948  1.0000
  H   H875      1.0  0.66319  0.58141  0.05616  1.0000
  H   H876      1.0  0.84942  0.83926  0.05291  1.0000
  C   C1076     1.0  0.51997  0.83760  0.24631  1.0000
  S   S150      1.0  0.81814  0.83385  0.31641  1.0000
  P   P36       1.0  0.89785  0.75422  0.08159  1.0000
  C   C1077     1.0  0.65413  0.57698  0.03976  1.0000
  C   C1078     1.0  0.72616  0.74026  0.01878  1.0000
  C   C1079     1.0  0.90419  0.99143  0.15453  1.0000
  C   C1080     1.0  0.78162  0.62589  0.03517  1.0000
  C   C1081     1.0  0.52646  0.62535  0.01065  1.0000
  Fe  Fe76      1.0  0.77338  0.90325  0.30841  1.0000
  H   H877      1.0  0.78545  0.98380  0.25996  1.0000
  C   C1082     1.0  0.51072  0.81992  0.21146  1.0000
  C   C1083     1.0  0.81813  0.69689  0.08967  1.0000
  H   H878      1.0  0.90591  0.76656  0.15696  1.0000
  H   H879      1.0  0.61831  0.67381  0.01554  1.0000
  C   C1084     1.0  0.90175  0.77527  0.04291  1.0000
  C   C1085     1.0  0.49958  0.74837  0.18013  1.0000
  C   C1086     1.0  0.73245  0.65850  0.01966  1.0000
  C   C1087     1.0  0.67473  0.58840  0.02578  1.0000
  C   C1088     1.0  0.53805  0.73397  0.22041  1.0000
  C   C1089     1.0  0.51419  0.72327  0.18409  1.0000
  P   P37       1.0  0.93441  0.97972  0.29007  1.0000
  H   H880      1.0  0.59613  0.85811  0.22354  1.0000
  H   H881      1.0  0.79556  0.69137  0.02400  1.0000
  H   H882      1.0  0.63431  0.68532  0.09273  1.0000
  C   C1090     1.0  0.65317  0.80641  0.28396  1.0000
  C   C1091     1.0  0.63609  0.78405  0.27311  1.0000
  C   C1092     1.0  0.59439  0.77720  0.27133  1.0000
  C   C1093     1.0  0.56868  0.79265  0.28033  1.0000
  C   C1094     1.0  0.58576  0.81501  0.29119  1.0000
  C   C1095     1.0  0.62748  0.82185  0.29300  1.0000
  H   H883      1.0  0.65537  0.77184  0.26605  1.0000
  H   H884      1.0  0.58224  0.75990  0.26306  1.0000
  H   H885      1.0  0.56652  0.82720  0.29830  1.0000
  H   H886      1.0  0.63977  0.83908  0.30142  1.0000
  C   C1096     1.0  0.92130  0.86340  0.26763  1.0000
  C   C1097     1.0  0.95537  0.87656  0.26322  1.0000
  H   H887      1.0  0.51055  0.83864  0.26100  1.0000
  C   C1098     1.0  0.95978  0.84594  0.23572  1.0000
  C   C1099     1.0  0.92567  0.83286  0.24011  1.0000
  C   C1100     1.0  0.90625  0.84167  0.25576  1.0000
  C   C1101     1.0  0.97467  0.96183  0.28212  1.0000
  H   H888      1.0  0.96897  0.95714  0.18186  1.0000
  H   H889      1.0  0.91417  0.81572  0.23133  1.0000
  H   H890      1.0  0.88010  0.83136  0.25888  1.0000
  C   C1102     1.0  0.49809  0.82205  0.23033  1.0000
  C   C1103     1.0  0.97425  0.86809  0.24723  1.0000
  S   S151      1.0  0.74506  0.94322  0.30112  1.0000
  C   C1104     1.0  0.67618  0.71044  0.05438  1.0000
  H   H891      1.0  0.74787  0.74262  0.07018  1.0000
  C   C1105     1.0  0.67597  0.66375  0.05324  1.0000
  C   C1106     1.0  0.94078  0.79531  0.14477  1.0000
  C   C1107     1.0  0.74802  0.62275  0.99891  1.0000
  H   H892      1.0  0.86315  0.80050  0.28537  1.0000
  H   H893      1.0  0.95076  0.79898  0.09474  1.0000
  C   C1108     1.0  0.88583  0.96712  0.27578  1.0000
  H   H894      1.0  0.68077  0.64577  0.04577  1.0000
  C   C1109     1.0  0.85380  0.71074  0.08904  1.0000
  H   H895      1.0  0.50922  0.70903  0.17174  1.0000
  C   C1110     1.0  0.52355  0.75912  0.21653  1.0000
  H   H896      1.0  0.68149  0.72897  0.04801  1.0000
  C   C1111     1.0  0.74110  0.71495  0.02172  1.0000
  C   C1112     1.0  0.85077  0.98266  0.27145  1.0000
  C   C1113     1.0  0.81262  0.97193  0.26243  1.0000
  C   C1114     1.0  0.80900  0.94559  0.25786  1.0000
  C   C1115     1.0  0.84372  0.93004  0.26183  1.0000
  C   C1116     1.0  0.88198  0.94075  0.27063  1.0000
  C   C1117     1.0  0.91526  0.77363  0.14325  1.0000
  S   S152      1.0  0.90546  0.68937  0.00161  1.0000
  C   C1118     1.0  0.49601  0.55380  0.04089  1.0000
  C   C1119     1.0  0.68622  0.68749  0.04535  1.0000
  C   C1120     1.0  0.94018  0.79188  0.10811  1.0000
  H   H897      1.0  0.74084  0.78028  0.01502  1.0000
  C   C1121     1.0  0.66268  0.69187  0.00033  1.0000
  C   C1122     1.0  0.53480  0.53039  0.01961  1.0000
  C   C1123     1.0  0.91818  0.95246  0.32395  1.0000
  H   H898      1.0  0.54905  0.62080  0.02455  1.0000
  C   C1124     1.0  0.62208  0.55955  0.03261  1.0000
  H   H899      1.0  0.85992  0.80503  0.07943  1.0000
  C   C1125     1.0  0.53348  0.71609  0.20421  1.0000
  H   H900      1.0  0.53119  0.57208  0.02151  1.0000
  P   P38       1.0  0.70588  0.68826  0.02190  1.0000
  C   C1126     1.0  0.65816  0.70964  0.07161  1.0000
  S   S153      1.0  0.51517  0.78544  0.27828  1.0000
  C   C1127     1.0  0.77546  0.61294  0.01614  1.0000
  H   H901      1.0  0.77909  0.93709  0.25186  1.0000
  H   H902      1.0  0.84087  0.90946  0.25882  1.0000
  H   H903      1.0  0.90814  0.92805  0.27431  1.0000
  H   H904      1.0  0.81015  0.76691  0.06863  1.0000
  C   C1128     1.0  0.89682  0.93024  0.21549  1.0000
  C   C1129     1.0  0.75269  0.76087  0.01756  1.0000
  H   H905      1.0  0.87653  0.92247  0.22474  1.0000
  C   C1130     1.0  0.91436  0.77017  0.10640  1.0000
  H   H906      1.0  0.64945  0.64464  0.07621  1.0000
  C   C1131     1.0  0.95602  0.69520  0.05876  1.0000
  C   C1132     1.0  0.55526  0.85057  0.24387  1.0000
  C   C1133     1.0  0.92646  0.71275  0.06194  1.0000
  H   H907      1.0  0.94825  0.68077  0.04657  1.0000
  H   H908      1.0  0.89591  0.71142  0.05228  1.0000
  H   H909      1.0  0.76559  0.65861  0.05171  1.0000
  C   C1134     1.0  0.88874  0.77862  0.06158  1.0000
  C   C1135     1.0  0.89541  0.79474  0.02793  1.0000
  C   C1136     1.0  0.77737  0.73358  0.07530  1.0000
  H   H910      1.0  0.81459  0.77221  0.01736  1.0000
  H   H911      1.0  0.82018  0.67739  0.09569  1.0000
  C   C1137     1.0  0.76992  0.97384  0.30487  1.0000
  C   C1138     1.0  0.87649  0.81773  0.03149  1.0000
  C   C1139     1.0  0.65780  0.66300  0.07040  1.0000
  C   C1140     1.0  0.81059  0.97673  0.31562  1.0000
  H   H912      1.0  0.60706  0.55044  0.04372  1.0000
  H   H913      1.0  0.87288  0.83303  0.02007  1.0000
  C   C1141     1.0  0.49744  0.50721  0.04181  1.0000
  H   H914      1.0  0.91780  0.75809  0.03996  1.0000
  H   H915      1.0  0.94867  0.96630  0.24944  1.0000
  S   S154      1.0  0.74669  0.87272  0.32617  1.0000
  C   C1142     1.0  0.56828  0.84842  0.22523  1.0000
  C   C1143     1.0  0.60990  0.55390  0.01133  1.0000
  H   H916      1.0  0.90674  0.79244  0.01388  1.0000
  H   H917      1.0  0.65030  0.72741  0.07845  1.0000
  H   H918      1.0  0.95136  0.80496  0.15960  1.0000
  C   C1144     1.0  0.97671  0.73364  0.08909  1.0000
  H   H919      1.0  0.65458  0.51124  0.01200  1.0000
  C   C1145     1.0  0.78301  0.71061  0.02281  1.0000
  C   C1146     1.0  0.81296  0.74740  0.07449  1.0000
  H   H920      1.0  0.88321  0.70176  0.09482  1.0000
  H   H921      1.0  0.67955  0.59066  0.99376  1.0000
  H   H922      1.0  0.87902  0.96931  0.21888  1.0000
  C   C1147     1.0  0.86952  0.80179  0.06499  1.0000
  C   C1148     1.0  0.86342  0.82123  0.04999  1.0000
  H   H923      1.0  0.75235  0.69768  0.08361  1.0000
  C   C1149     1.0  0.52305  0.50708  0.02762  1.0000
  P   P39       1.0  0.56953  0.53086  0.00196  1.0000
  C   C1150     1.0  0.85149  0.73603  0.08124  1.0000
  C   C1151     1.0  0.91689  0.80522  0.30986  1.0000
  C   C1152     1.0  0.93655  0.73207  0.07720  1.0000
  H   H924      1.0  0.69980  0.60167  0.03126  1.0000
  H   H925      1.0  0.54328  0.69634  0.20741  1.0000
  C   C1153     1.0  0.94891  0.94990  0.19144  1.0000
  C   C1154     1.0  0.89851  0.95688  0.21216  1.0000
  H   H926      1.0  0.55721  0.83153  0.19492  1.0000
  C   C1155     1.0  0.88024  0.79323  0.30009  1.0000
  C   C1156     1.0  0.77991  0.70832  0.08284  1.0000
  H   H927      1.0  0.88246  0.74428  0.12336  1.0000
  Fe  Fe77      1.0  0.95631  0.71816  0.99897  1.0000
  C   C1157     1.0  0.52142  0.55376  0.02666  1.0000
  H   H928      1.0  0.56004  0.80513  0.13514  1.0000
  C   C1158     1.0  0.49136  0.80949  0.16632  1.0000
  C   C1159     1.0  0.92539  0.96700  0.20047  1.0000
  C   C1160     1.0  0.92137  0.91350  0.20696  1.0000
  H   H929      1.0  0.54969  0.79038  0.16916  1.0000
  H   H930      1.0  0.57308  0.86172  0.25663  1.0000
  C   C1161     1.0  0.62355  0.68309  0.00168  1.0000
  H   H931      1.0  0.97327  0.82109  0.12842  1.0000
  H   H932      1.0  0.55184  0.72810  0.23610  1.0000
  C   C1162     1.0  0.95308  0.80445  0.12719  1.0000
  H   H933      1.0  0.92023  0.89287  0.20963  1.0000
  H   H934      1.0  0.80336  0.61845  0.04845  1.0000
  H   H935      1.0  0.69373  0.74400  0.01671  1.0000
  C   C1163     1.0  0.54608  0.83324  0.20904  1.0000
  C   C1164     1.0  0.52670  0.80235  0.15953  1.0000
  C   C1165     1.0  0.59159  0.49942  0.99981  1.0000
  C   C1166     1.0  0.66325  0.58242  0.00467  1.0000
  H   H936      1.0  0.90255  0.93830  0.31291  1.0000
  H   H937      1.0  0.82801  0.95988  0.32169  1.0000
  C   C1167     1.0  0.90205  0.76107  0.12415  1.0000
  C   C1168     1.0  0.80935  0.73124  0.02140  1.0000
  C   C1169     1.0  0.53274  0.81076  0.14030  1.0000
  C   C1170     1.0  0.72700  0.64563  0.00056  1.0000
  C   C1171     1.0  0.97318  0.95804  0.26091  1.0000
  H   H938      1.0  0.50838  0.83293  0.11285  1.0000
  C   C1172     1.0  0.94717  0.92333  0.19480  1.0000
  H   H939      1.0  0.88526  0.98291  0.12188  1.0000
  H   H940      1.0  0.79218  0.59544  0.01463  1.0000
  C   C1173     1.0  0.50412  0.76653  0.19633  1.0000
  S   S155      1.0  0.83761  0.89548  0.32525  1.0000
  H   H941      1.0  0.96740  0.89333  0.27235  1.0000
  H   H942      1.0  0.88767  0.97510  0.15894  1.0000
  C   C1174     1.0  0.50367  0.82643  0.12775  1.0000
  C   C1175     1.0  0.86459  0.77272  0.30974  1.0000
  C   C1176     1.0  0.63084  0.56540  0.99743  1.0000
  H   H943      1.0  0.92753  0.82178  0.30248  1.0000
  H   H944      1.0  0.84132  0.72759  0.02158  1.0000
  H   H945      1.0  0.96603  0.91042  0.18795  1.0000
  S   S156      1.0  0.98409  0.83291  0.21648  1.0000
  C   C1177     1.0  0.93676  0.97438  0.31738  1.0000
  H   H946      1.0  0.98551  0.74848  0.10078  1.0000
  C   C1178     1.0  0.79425  0.75635  0.01886  1.0000
  H   H947      1.0  0.83547  0.76403  0.30242  1.0000
  H   H948      1.0  0.71634  0.99404  0.28869  1.0000
  C   C1179     1.0  0.63410  0.49566  0.00555  1.0000
  H   H949      1.0  0.86596  0.85423  0.42030  1.0000
  H   H950      1.0  0.56599  0.60967  0.48148  1.0000
  Fe  Fe78      1.0  0.81224  0.86264  0.34102  1.0000
  S   S157      1.0  0.83225  0.85759  0.37641  1.0000
  Fe  Fe79      1.0  0.67862  0.64975  0.59123  1.0000
  S   S158      1.0  0.67041  0.67627  0.56397  1.0000
  S   S159      1.0  0.68252  0.67381  0.62122  1.0000
  Fe  Fe80      1.0  0.68820  0.60371  0.56283  1.0000
  S   S160      1.0  0.68029  0.62884  0.53410  1.0000
  S   S161      1.0  0.70242  0.56140  0.55610  1.0000
  Fe  Fe81      1.0  0.72287  0.65708  0.55408  1.0000
  S   S162      1.0  0.76579  0.68810  0.54513  1.0000
  Fe  Fe82      1.0  0.62867  0.64653  0.54597  1.0000
  S   S163      1.0  0.57230  0.66468  0.52545  1.0000
  S   S164      1.0  0.73393  0.63144  0.58237  1.0000
  S   S165      1.0  0.63366  0.62031  0.57355  1.0000
  C   C1180     1.0  0.56031  0.53518  0.58425  1.0000
  S   S166      1.0  0.95287  0.77540  0.49098  1.0000
  S   S167      1.0  0.91472  0.70186  0.49884  1.0000
  H   H951      1.0  0.86061  0.67495  0.45065  1.0000
  S   S168      1.0  0.96708  0.78317  0.43051  1.0000
  C   C1181     1.0  0.78400  0.95488  0.35751  1.0000
  C   C1182     1.0  0.69011  0.52915  0.56249  1.0000
  H   H952      1.0  0.49446  0.74936  0.56056  1.0000
  C   C1183     1.0  0.66541  0.52367  0.57656  1.0000
  C   C1184     1.0  0.93899  0.96656  0.35972  1.0000
  H   H953      1.0  0.65330  0.53936  0.58414  1.0000
  C   C1185     1.0  0.52519  0.64903  0.51504  1.0000
  C   C1186     1.0  0.92306  0.77554  0.33867  1.0000
  H   H954      1.0  0.54098  0.61268  0.53021  1.0000
  C   C1187     1.0  0.80604  0.69144  0.53138  1.0000
  C   C1188     1.0  0.82084  0.67069  0.52163  1.0000
  C   C1189     1.0  0.85379  0.67434  0.51165  1.0000
  C   C1190     1.0  0.87228  0.69876  0.51111  1.0000
  C   C1191     1.0  0.85670  0.71965  0.52035  1.0000
  C   C1192     1.0  0.82410  0.71595  0.53053  1.0000
  H   H955      1.0  0.80740  0.65173  0.52208  1.0000
  H   H956      1.0  0.86538  0.65802  0.50451  1.0000
  H   H957      1.0  0.86998  0.73862  0.51979  1.0000
  H   H958      1.0  0.81285  0.73221  0.53789  1.0000
  C   C1193     1.0  0.52907  0.62580  0.61660  1.0000
  C   C1194     1.0  0.96211  0.73232  0.64266  1.0000
  H   H959      1.0  0.96858  0.83195  0.60243  1.0000
  C   C1195     1.0  0.65255  0.68007  0.64010  1.0000
  C   C1196     1.0  0.62391  0.66238  0.64451  1.0000
  H   H960      1.0  0.93249  0.73212  0.42756  1.0000
  H   H961      1.0  0.79385  0.85524  0.44334  1.0000
  H   H962      1.0  0.61903  0.64434  0.63610  1.0000
  C   C1197     1.0  0.76522  0.97898  0.35705  1.0000
  H   H963      1.0  0.70857  0.73716  0.36633  1.0000
  C   C1198     1.0  0.86883  0.83612  0.39123  1.0000
  C   C1199     1.0  0.88671  0.81616  0.38205  1.0000
  C   C1200     1.0  0.91579  0.79985  0.39442  1.0000
  C   C1201     1.0  0.92768  0.80321  0.41608  1.0000
  C   C1202     1.0  0.90897  0.82271  0.42533  1.0000
  C   C1203     1.0  0.87979  0.83903  0.41297  1.0000
  H   H964      1.0  0.87817  0.81331  0.36543  1.0000
  H   H965      1.0  0.92896  0.78436  0.38716  1.0000
  H   H966      1.0  0.91761  0.82557  0.44194  1.0000
  C   C1204     1.0  0.57495  0.55035  0.50443  1.0000
  H   H967      1.0  0.64019  0.66637  0.50052  1.0000
  H   H968      1.0  0.49464  0.55976  0.44098  1.0000
  C   C1205     1.0  0.55052  0.52966  0.54114  1.0000
  C   C1206     1.0  0.79232  0.78363  0.39609  1.0000
  C   C1207     1.0  0.95503  0.73048  0.55508  1.0000
  C   C1208     1.0  0.57385  0.71762  0.56342  1.0000
  C   C1209     1.0  0.56330  0.55337  0.55081  1.0000
  H   H969      1.0  0.68132  0.71703  0.64862  1.0000
  H   H970      1.0  0.67477  0.56726  0.50774  1.0000
  H   H971      1.0  0.64160  0.60588  0.48928  1.0000
  H   H972      1.0  0.89072  0.81576  0.48480  1.0000
  H   H973      1.0  0.73498  0.77264  0.34756  1.0000
  C   C1210     1.0  0.93955  0.64273  0.56197  1.0000
  C   C1211     1.0  0.66567  0.67236  0.47356  1.0000
  C   C1212     1.0  0.65716  0.67475  0.45195  1.0000
  C   C1213     1.0  0.61670  0.67328  0.44054  1.0000
  C   C1214     1.0  0.77726  0.78668  0.37476  1.0000
  C   C1215     1.0  0.84138  0.97062  0.38349  1.0000
  H   H974      1.0  0.69699  0.67346  0.48245  1.0000
  H   H975      1.0  0.68203  0.67756  0.44405  1.0000
  P   P40       1.0  0.53204  0.66659  0.43660  1.0000
  Fe  Fe83      1.0  0.96334  0.73292  0.49647  1.0000
  H   H976      1.0  0.78936  0.80195  0.36653  1.0000
  H   H977      1.0  0.97479  0.79387  0.56664  1.0000
  C   C1216     1.0  0.53479  0.74353  0.64794  1.0000
  H   H978      1.0  0.87340  0.74835  0.33672  1.0000
  H   H979      1.0  0.54340  0.72638  0.37977  1.0000
  C   C1217     1.0  0.95814  0.98818  0.35336  1.0000
  C   C1218     1.0  0.56815  0.55606  0.57229  1.0000
  C   C1219     1.0  0.91143  0.68153  0.57375  1.0000
  H   H980      1.0  0.76078  0.70851  0.62651  1.0000
  C   C1220     1.0  0.53996  0.69971  0.40445  1.0000
  P   P41       1.0  0.54426  0.52580  0.51342  1.0000
  H   H981      1.0  0.87706  0.76372  0.42556  1.0000
  C   C1221     1.0  0.77300  0.74185  0.64663  1.0000
  H   H982      1.0  0.67951  0.73042  0.48165  1.0000
  H   H983      1.0  0.61220  0.72579  0.54193  1.0000
  H   H984      1.0  0.56603  0.62048  0.42210  1.0000
  H   H985      1.0  0.56520  0.53712  0.60095  1.0000
  H   H986      1.0  0.90441  0.93185  0.34991  1.0000
  C   C1222     1.0  0.57030  0.71804  0.58426  1.0000
  H   H987      1.0  0.65577  0.74931  0.44657  1.0000
  C   C1223     1.0  0.76812  0.71545  0.64243  1.0000
  H   H988      1.0  0.61388  0.49585  0.53568  1.0000
  C   C1224     1.0  0.49201  0.75306  0.60731  1.0000
  H   H989      1.0  0.49858  0.73847  0.47971  1.0000
  C   C1225     1.0  0.90219  0.62999  0.56092  1.0000
  Fe  Fe84      1.0  0.98651  0.77135  0.46502  1.0000
  H   H990      1.0  0.70579  0.76294  0.42617  1.0000
  H   H991      1.0  0.93889  0.76852  0.35367  1.0000
  H   H992      1.0  0.75371  0.72527  0.49632  1.0000
  H   H993      1.0  0.61088  0.67449  0.42379  1.0000
  C   C1226     1.0  0.94411  0.66883  0.56784  1.0000
  H   H994      1.0  0.49984  0.68281  0.49824  1.0000
  H   H995      1.0  0.67066  0.74130  0.56915  1.0000
  H   H996      1.0  0.92529  0.76576  0.54309  1.0000
  C   C1227     1.0  0.93921  0.85115  0.35235  1.0000
  C   C1228     1.0  0.51255  0.76625  0.64339  1.0000
  H   H997      1.0  0.51242  0.78019  0.65562  1.0000
  H   H998      1.0  0.55003  0.57406  0.42397  1.0000
  H   H999      1.0  0.89843  0.61005  0.55587  1.0000
  H   H1000     1.0  0.94299  0.72272  0.62939  1.0000
  H   H1001     1.0  0.81668  0.79631  0.40390  1.0000
  H   H1002     1.0  0.66621  0.74001  0.60618  1.0000
  H   H1003     1.0  0.73539  0.73141  0.40406  1.0000
  H   H1004     1.0  0.85555  0.85634  0.47209  1.0000
  C   C1229     1.0  0.55226  0.65833  0.59532  1.0000
  H   H1005     1.0  0.80419  0.73871  0.47618  1.0000
  C   C1230     1.0  0.64166  0.56848  0.50348  1.0000
  C   C1231     1.0  0.60402  0.72612  0.59961  1.0000
  H   H1006     1.0  0.83635  0.93191  0.37092  1.0000
  H   H1007     1.0  0.53086  0.60638  0.62276  1.0000
  H   H1008     1.0  0.57032  0.56967  0.54194  1.0000
  C   C1232     1.0  0.97809  0.77308  0.56757  1.0000
  H   H1009     1.0  0.76749  0.81379  0.42737  1.0000
  C   C1233     1.0  0.62301  0.59030  0.49324  1.0000
  H   H1010     1.0  0.91668  0.84639  0.33840  1.0000
  C   C1234     1.0  0.51769  0.62341  0.51971  1.0000
  C   C1235     1.0  0.54170  0.50895  0.55319  1.0000
  H   H1011     1.0  0.87081  0.96732  0.39376  1.0000
  C   C1236     1.0  0.59341  0.66668  0.47241  1.0000
  H   H1012     1.0  0.57416  0.61922  0.59852  1.0000
  C   C1237     1.0  0.88591  0.76395  0.32906  1.0000
  C   C1238     1.0  0.74668  0.74721  0.39612  1.0000
  C   C1239     1.0  0.77619  0.76441  0.40708  1.0000
  C   C1240     1.0  0.68817  0.74662  0.45280  1.0000
  C   C1241     1.0  0.97621  0.83763  0.35775  1.0000
  C   C1242     1.0  0.49066  0.77086  0.62315  1.0000
  C   C1243     1.0  0.63996  0.73461  0.59416  1.0000
  H   H1013     1.0  0.54599  0.70919  0.46762  1.0000
  C   C1244     1.0  0.49825  0.68760  0.44679  1.0000
  C   C1245     1.0  0.50268  0.64367  0.62252  1.0000
  H   H1014     1.0  0.77003  0.75542  0.63393  1.0000
  C   C1246     1.0  0.51352  0.70694  0.46143  1.0000
  C   C1247     1.0  0.51961  0.63284  0.43818  1.0000
  C   C1248     1.0  0.63376  0.66832  0.48377  1.0000
  C   C1249     1.0  0.58045  0.59239  0.48879  1.0000
  H   H1015     1.0  0.80365  0.70549  0.44718  1.0000
  C   C1250     1.0  0.71663  0.75407  0.44117  1.0000
  C   C1251     1.0  0.58442  0.66984  0.45079  1.0000
  C   C1252     1.0  0.95008  0.75724  0.55436  1.0000
  C   C1253     1.0  0.52454  0.67597  0.40969  1.0000
  H   H1016     1.0  0.84022  0.63335  0.56505  1.0000
  H   H1017     1.0  0.57178  0.66369  0.58485  1.0000
  P   P42       1.0  0.52281  0.70882  0.59119  1.0000
  C   C1254     1.0  0.53167  0.70799  0.38378  1.0000
  C   C1255     1.0  0.50082  0.66882  0.61476  1.0000
  H   H1018     1.0  0.55771  0.71204  0.41639  1.0000
  C   C1256     1.0  0.82251  0.99469  0.38323  1.0000
  H   H1019     1.0  0.86546  0.77401  0.46858  1.0000
  C   C1257     1.0  0.61782  0.54861  0.50910  1.0000
  C   C1258     1.0  0.83176  0.71185  0.44323  1.0000
  C   C1259     1.0  0.83671  0.73735  0.43692  1.0000
  C   C1260     1.0  0.87296  0.74436  0.43094  1.0000
  P   P43       1.0  0.79604  0.76057  0.43464  1.0000
  C   C1261     1.0  0.75867  0.75051  0.44914  1.0000
  C   C1262     1.0  0.81532  0.79090  0.44637  1.0000
  C   C1263     1.0  0.79465  0.81393  0.43976  1.0000
  C   C1264     1.0  0.80927  0.83747  0.44891  1.0000
  C   C1265     1.0  0.84400  0.83810  0.46508  1.0000
  C   C1266     1.0  0.86395  0.81518  0.47218  1.0000
  C   C1267     1.0  0.84970  0.79162  0.46288  1.0000
  C   C1268     1.0  0.77182  0.74067  0.46932  1.0000
  C   C1269     1.0  0.74331  0.73317  0.48086  1.0000
  C   C1270     1.0  0.70150  0.73608  0.47259  1.0000
  C   C1271     1.0  0.55651  0.57258  0.49439  1.0000
  C   C1272     1.0  0.86371  0.69420  0.44478  1.0000
  C   C1273     1.0  0.90439  0.72646  0.43199  1.0000
  H   H1020     1.0  0.63320  0.53243  0.51769  1.0000
  H   H1021     1.0  0.76923  0.93954  0.34732  1.0000
  H   H1022     1.0  0.56910  0.66306  0.48055  1.0000
  C   C1274     1.0  0.51521  0.73044  0.61165  1.0000
  C   C1275     1.0  0.87419  0.66871  0.57275  1.0000
  H   H1023     1.0  0.60314  0.72552  0.61585  1.0000
  C   C1276     1.0  0.73173  0.75024  0.37473  1.0000
  C   C1277     1.0  0.93042  0.87074  0.36527  1.0000
  C   C1278     1.0  0.77158  0.69790  0.65873  1.0000
  P   P44       1.0  0.98677  0.81138  0.34161  1.0000
  C   C1279     1.0  0.64247  0.73529  0.57333  1.0000
  C   C1280     1.0  0.54699  0.51165  0.57469  1.0000
  H   H1024     1.0  0.73621  0.98171  0.34632  1.0000
  H   H1025     1.0  0.84851  0.67882  0.57658  1.0000
  C   C1281     1.0  0.53298  0.58816  0.43074  1.0000
  H   H1026     1.0  0.93949  0.96366  0.37602  1.0000
  H   H1027     1.0  0.52374  0.57517  0.49136  1.0000
  H   H1028     1.0  0.90120  0.88041  0.36146  1.0000
  H   H1029     1.0  0.92510  0.68800  0.44079  1.0000
  H   H1030     1.0  0.50284  0.52752  0.46960  1.0000
  C   C1282     1.0  0.55353  0.63307  0.60289  1.0000
  C   C1283     1.0  0.49451  0.66285  0.50156  1.0000
  C   C1284     1.0  0.49127  0.66944  0.37343  1.0000
  C   C1285     1.0  0.90007  0.70153  0.43925  1.0000
  C   C1286     1.0  0.86947  0.64302  0.56621  1.0000
  C   C1287     1.0  0.91923  0.94866  0.34503  1.0000
  C   C1288     1.0  0.50190  0.58007  0.44041  1.0000
  C   C1289     1.0  0.52606  0.67642  0.60135  1.0000
  C   C1290     1.0  0.60948  0.72665  0.55798  1.0000
  H   H1031     1.0  0.91429  0.70137  0.57896  1.0000
  C   C1291     1.0  0.95839  0.87707  0.38357  1.0000
  C   C1292     1.0  0.82204  0.95067  0.37069  1.0000
  C   C1293     1.0  0.54192  0.61444  0.42968  1.0000
  H   H1032     1.0  0.54957  0.70994  0.55130  1.0000
  C   C1294     1.0  0.65929  0.70312  0.65179  1.0000
  H   H1033     1.0  0.50018  0.69940  0.35230  1.0000
  C   C1295     1.0  0.74673  0.77013  0.36410  1.0000
  H   H1034     1.0  0.95071  0.89159  0.39390  1.0000
  H   H1035     1.0  0.57902  0.57418  0.57972  1.0000
  C   C1296     1.0  0.50735  0.69284  0.36828  1.0000
  C   C1297     1.0  0.93899  0.79619  0.32908  1.0000
  H   H1036     1.0  0.93406  0.71842  0.54429  1.0000
  C   C1298     1.0  0.49950  0.66109  0.39405  1.0000
  H   H1037     1.0  0.96015  0.66534  0.52772  1.0000
  H   H1038     1.0  0.55472  0.70867  0.63599  1.0000
  C   C1299     1.0  0.53621  0.72578  0.63218  1.0000
  H   H1039     1.0  0.72531  0.51218  0.54222  1.0000
  H   H1040     1.0  0.76670  0.67749  0.65532  1.0000
  C   C1300     1.0  0.70599  0.50830  0.55304  1.0000
  C   C1301     1.0  0.65691  0.49778  0.58109  1.0000
  H   H1041     1.0  0.96472  0.63230  0.55799  1.0000
  C   C1302     1.0  0.49115  0.52983  0.50053  1.0000
  C   C1303     1.0  0.95730  0.99202  0.33230  1.0000
  C   C1304     1.0  0.98739  0.71934  0.56938  1.0000
  H   H1042     1.0  0.54154  0.49535  0.58400  1.0000
  Fe  Fe85      1.0  0.61941  0.77563  0.74061  1.0000
  S   S169      1.0  0.62966  0.73335  0.74699  1.0000
  S   S170      1.0  0.66544  0.80882  0.74700  1.0000
  Fe  Fe86      1.0  0.52473  0.76967  0.72684  1.0000
  S   S171      1.0  0.52872  0.72677  0.73313  1.0000
  Fe  Fe87      1.0  0.57613  0.73585  0.76258  1.0000
  S   S172      1.0  0.58372  0.72640  0.79735  1.0000
  Fe  Fe88      1.0  0.58233  0.72717  0.71705  1.0000
  S   S173      1.0  0.58260  0.69550  0.69245  1.0000
  S   S174      1.0  0.56799  0.77874  0.75723  1.0000
  S   S175      1.0  0.57616  0.76944  0.70960  1.0000
  Fe  Fe89      1.0  0.61724  0.63102  0.89836  1.0000
  S   S176      1.0  0.68004  0.61887  0.91590  1.0000
  S   S177      1.0  0.60219  0.63302  0.86262  1.0000
  Fe  Fe90      1.0  0.58432  0.63439  0.93874  1.0000
  S   S178      1.0  0.64521  0.62410  0.95874  1.0000
  C   C1305     1.0  0.53900  0.53962  0.93873  1.0000
  Fe  Fe91      1.0  0.67394  0.65034  0.93850  1.0000
  S   S179      1.0  0.72178  0.68280  0.94780  1.0000
  Fe  Fe92      1.0  0.64690  0.59323  0.93466  1.0000
  S   S180      1.0  0.66721  0.55355  0.94832  1.0000
  S   S181      1.0  0.61218  0.66347  0.92016  1.0000
  S   S182      1.0  0.58478  0.60259  0.91544  1.0000
  Fe  Fe93      1.0  0.95258  0.85803  0.83869  1.0000
  S   S183      1.0  0.88883  0.86830  0.82179  1.0000
  C   C1306     1.0  0.97572  0.78244  0.91765  1.0000
  H   H1043     1.0  0.68257  0.81095  0.70574  1.0000
  S   S184      1.0  0.92423  0.87431  0.77911  1.0000
  Fe  Fe94      1.0  0.91847  0.89969  0.80629  1.0000
  S   S185      1.0  0.88812  0.93938  0.80202  1.0000
  Fe  Fe95      1.0  0.89970  0.84233  0.79632  1.0000
  S   S186      1.0  0.85826  0.80850  0.78260  1.0000
  S   S187      1.0  0.96231  0.83028  0.81410  1.0000
  C   C1307     1.0  0.77961  0.70670  0.67927  1.0000
  H   H1044     1.0  0.53216  0.84911  0.71450  1.0000
  C   C1308     1.0  0.59042  0.68601  0.98485  1.0000
  H   H1045     1.0  0.78364  0.77134  0.67003  1.0000
  H   H1046     1.0  0.69795  0.70999  0.98035  1.0000
  H   H1047     1.0  0.87768  0.63179  0.82859  1.0000
  C   C1309     1.0  0.91199  0.97038  0.80568  1.0000
  H   H1048     1.0  0.50921  0.57162  0.98634  1.0000
  S   S188      1.0  0.98150  0.89127  0.82482  1.0000
  C   C1310     1.0  0.59617  0.69701  0.96641  1.0000
  H   H1049     1.0  0.91059  0.77077  0.76392  1.0000
  H   H1050     1.0  0.86192  0.90962  0.69573  1.0000
  H   H1051     1.0  0.67133  0.68966  0.71470  1.0000
  C   C1311     1.0  0.54408  0.54092  0.97610  1.0000
  H   H1052     1.0  0.52059  0.81034  0.81580  1.0000
  H   H1053     1.0  0.57081  0.84483  0.79130  1.0000
  C   C1312     1.0  0.90322  0.94187  0.74930  1.0000
  H   H1054     1.0  0.88839  0.70995  0.85085  1.0000
  C   C1313     1.0  0.88758  0.67099  0.83954  1.0000
  C   C1314     1.0  0.64974  0.52278  0.93780  1.0000
  C   C1315     1.0  0.95440  0.97346  0.81210  1.0000
  C   C1316     1.0  0.62564  0.52001  0.91776  1.0000
  H   H1055     1.0  0.88735  0.85909  0.88655  1.0000
  H   H1056     1.0  0.61690  0.53694  0.90830  1.0000
  C   C1317     1.0  0.77389  0.68379  0.96157  1.0000
  C   C1318     1.0  0.79445  0.70775  0.96458  1.0000
  C   C1319     1.0  0.83535  0.70962  0.97590  1.0000
  C   C1320     1.0  0.85587  0.68760  0.98491  1.0000
  S   S189      1.0  0.94497  0.75867  0.98727  1.0000
  C   C1321     1.0  0.79501  0.66168  0.96982  1.0000
  C   C1322     1.0  0.70000  0.69794  0.72315  1.0000
  H   H1057     1.0  0.67954  0.50235  0.96534  1.0000
  H   H1058     1.0  0.78022  0.64307  0.96699  1.0000
  H   H1059     1.0  0.85952  0.71373  0.70318  1.0000
  C   C1323     1.0  0.83533  0.66366  0.98184  1.0000
  C   C1324     1.0  0.71857  0.80807  0.75831  1.0000
  C   C1325     1.0  0.73999  0.78494  0.76273  1.0000
  C   C1326     1.0  0.78260  0.78546  0.77077  1.0000
  C   C1327     1.0  0.80419  0.80900  0.77441  1.0000
  C   C1328     1.0  0.78258  0.83208  0.77048  1.0000
  C   C1329     1.0  0.74001  0.83159  0.76241  1.0000
  H   H1060     1.0  0.72387  0.76672  0.75965  1.0000
  H   H1061     1.0  0.79903  0.76756  0.77409  1.0000
  H   H1062     1.0  0.79880  0.85031  0.77320  1.0000
  H   H1063     1.0  0.72369  0.84957  0.75904  1.0000
  C   C1330     1.0  0.58894  0.69998  0.81512  1.0000
  C   C1331     1.0  0.59650  0.70528  0.83657  1.0000
  C   C1332     1.0  0.60061  0.68516  0.85132  1.0000
  C   C1333     1.0  0.59738  0.65936  0.84482  1.0000
  C   C1334     1.0  0.58998  0.65409  0.82336  1.0000
  C   C1335     1.0  0.58562  0.67420  0.80861  1.0000
  H   H1064     1.0  0.59886  0.72510  0.84184  1.0000
  H   H1065     1.0  0.60607  0.68956  0.86772  1.0000
  H   H1066     1.0  0.58726  0.63424  0.81811  1.0000
  H   H1067     1.0  0.57951  0.66972  0.79222  1.0000
  H   H1068     1.0  0.64297  0.72636  0.67613  1.0000
  H   H1069     1.0  0.57062  0.69824  0.95314  1.0000
  C   C1336     1.0  0.87023  0.72630  0.71636  1.0000
  H   H1070     1.0  0.49345  0.73293  0.79393  1.0000
  H   H1071     1.0  0.81865  0.70743  0.85757  1.0000
  H   H1072     1.0  0.72848  0.72776  0.91825  1.0000
  H   H1073     1.0  0.57048  0.62537  0.99090  1.0000
  C   C1337     1.0  0.80906  0.66747  0.84792  1.0000
  C   C1338     1.0  0.82559  0.64649  0.83911  1.0000
  P   P45       1.0  0.75778  0.66530  0.85222  1.0000
  C   C1339     1.0  0.74799  0.63400  0.86215  1.0000
  C   C1340     1.0  0.74971  0.68719  0.87217  1.0000
  C   C1341     1.0  0.78092  0.69161  0.88984  1.0000
  C   C1342     1.0  0.77341  0.70665  0.90619  1.0000
  C   C1343     1.0  0.73464  0.71707  0.90515  1.0000
  C   C1344     1.0  0.70321  0.71233  0.88780  1.0000
  C   C1345     1.0  0.71064  0.69736  0.87139  1.0000
  C   C1346     1.0  0.70769  0.62476  0.85943  1.0000
  C   C1347     1.0  0.69971  0.60102  0.86780  1.0000
  C   C1348     1.0  0.73174  0.58665  0.87948  1.0000
  C   C1349     1.0  0.77186  0.59604  0.88279  1.0000
  C   C1350     1.0  0.77999  0.61971  0.87428  1.0000
  C   C1351     1.0  0.72386  0.67225  0.82765  1.0000
  C   C1352     1.0  0.70599  0.65218  0.81435  1.0000
  C   C1353     1.0  0.67839  0.65775  0.79576  1.0000
  C   C1354     1.0  0.66916  0.68335  0.79013  1.0000
  C   C1355     1.0  0.68834  0.70343  0.80277  1.0000
  C   C1356     1.0  0.71578  0.69795  0.82144  1.0000
  C   C1357     1.0  0.87084  0.69221  0.84771  1.0000
  H   H1074     1.0  0.80813  0.62878  0.83538  1.0000
  H   H1075     1.0  0.81061  0.68274  0.89138  1.0000
  H   H1076     1.0  0.97078  0.75946  0.88994  1.0000
  C   C1358     1.0  0.89946  0.75816  0.75071  1.0000
  H   H1077     1.0  0.67265  0.71936  0.88743  1.0000
  H   H1078     1.0  0.68550  0.69293  0.85849  1.0000
  H   H1079     1.0  0.68219  0.63608  0.85118  1.0000
  H   H1080     1.0  0.66839  0.59419  0.86579  1.0000
  H   H1081     1.0  0.72523  0.56857  0.88640  1.0000
  H   H1082     1.0  0.79649  0.58519  0.89232  1.0000
  H   H1083     1.0  0.81106  0.62705  0.87758  1.0000
  H   H1084     1.0  0.71260  0.63221  0.81846  1.0000
  H   H1085     1.0  0.66323  0.64221  0.78598  1.0000
  H   H1086     1.0  0.64638  0.68767  0.77621  1.0000
  H   H1087     1.0  0.68072  0.72321  0.79833  1.0000
  H   H1088     1.0  0.72989  0.71372  0.83124  1.0000
  C   C1359     1.0  0.85091  0.73810  0.81023  1.0000
  C   C1360     1.0  0.88931  0.74870  0.81014  1.0000
  C   C1361     1.0  0.90389  0.76970  0.82297  1.0000
  C   C1362     1.0  0.87980  0.78052  0.83559  1.0000
  C   C1363     1.0  0.84107  0.77010  0.83569  1.0000
  C   C1364     1.0  0.82706  0.74853  0.82314  1.0000
  P   P46       1.0  0.81122  0.78266  0.85317  1.0000
  C   C1365     1.0  0.82806  0.76839  0.87862  1.0000
  C   C1366     1.0  0.82076  0.81705  0.85646  1.0000
  C   C1367     1.0  0.85354  0.82599  0.87206  1.0000
  C   C1368     1.0  0.80460  0.86159  0.84633  1.0000
  C   C1369     1.0  0.79642  0.83516  0.84356  1.0000
  C   C1370     1.0  0.81003  0.77602  0.89499  1.0000
  C   C1371     1.0  0.82521  0.76691  0.91513  1.0000
  C   C1372     1.0  0.85909  0.75059  0.91918  1.0000
  C   C1373     1.0  0.87764  0.74327  0.90308  1.0000
  C   C1374     1.0  0.86235  0.75216  0.88291  1.0000
  C   C1375     1.0  0.75767  0.77647  0.84167  1.0000
  C   C1376     1.0  0.73162  0.76459  0.85299  1.0000
  C   C1377     1.0  0.69033  0.76029  0.84379  1.0000
  C   C1378     1.0  0.67482  0.76755  0.82322  1.0000
  C   C1379     1.0  0.70074  0.77856  0.81163  1.0000
  C   C1380     1.0  0.74203  0.78276  0.82072  1.0000
  H   H1089     1.0  0.83957  0.72185  0.80027  1.0000
  H   H1090     1.0  0.90761  0.74094  0.79994  1.0000
  H   H1091     1.0  0.93343  0.77812  0.82271  1.0000
  H   H1092     1.0  0.89140  0.79713  0.84507  1.0000
  H   H1093     1.0  0.79766  0.73980  0.82320  1.0000
  H   H1094     1.0  0.87369  0.81264  0.88193  1.0000
  H   H1095     1.0  0.77148  0.82923  0.83117  1.0000
  H   H1096     1.0  0.78486  0.78952  0.89227  1.0000
  H   H1097     1.0  0.81131  0.77292  0.92772  1.0000
  H   H1098     1.0  0.87162  0.74403  0.93487  1.0000
  H   H1099     1.0  0.90490  0.73142  0.90647  1.0000
  H   H1100     1.0  0.87847  0.74713  0.87098  1.0000
  H   H1101     1.0  0.74284  0.75835  0.86879  1.0000
  H   H1102     1.0  0.67024  0.75115  0.85251  1.0000
  H   H1103     1.0  0.64279  0.76431  0.81614  1.0000
  H   H1104     1.0  0.68877  0.78386  0.79555  1.0000
  H   H1105     1.0  0.76174  0.79109  0.81139  1.0000
  C   C1381     1.0  0.77335  0.71986  0.74500  1.0000
  C   C1382     1.0  0.76029  0.72453  0.72362  1.0000
  C   C1383     1.0  0.72298  0.71386  0.71291  1.0000
  P   P47       1.0  0.78997  0.74483  0.71006  1.0000
  C   C1384     1.0  0.78352  0.73328  0.68364  1.0000
  C   C1385     1.0  0.77134  0.77756  0.70952  1.0000
  C   C1386     1.0  0.79821  0.79864  0.71010  1.0000
  C   C1387     1.0  0.78364  0.82389  0.70983  1.0000
  C   C1388     1.0  0.74197  0.82832  0.70824  1.0000
  C   C1389     1.0  0.71485  0.80750  0.70678  1.0000
  C   C1390     1.0  0.72942  0.78222  0.70762  1.0000
  H   H1106     1.0  0.62264  0.56101  0.98099  1.0000
  H   H1107     1.0  0.80474  0.84004  0.71109  1.0000
  H   H1108     1.0  0.52536  0.76327  0.82173  1.0000
  C   C1391     1.0  0.87356  0.91856  0.71071  1.0000
  H   H1109     1.0  0.50577  0.90241  0.85247  1.0000
  C   C1392     1.0  0.84336  0.74335  0.72313  1.0000
  C   C1393     1.0  0.90683  0.93565  0.71337  1.0000
  C   C1394     1.0  0.63496  0.70575  0.96494  1.0000
  C   C1395     1.0  0.51720  0.56196  0.97329  1.0000
  H   H1110     1.0  0.77855  0.72501  0.95823  1.0000
  C   C1396     1.0  0.51000  0.84737  0.74271  1.0000
  H   H1111     1.0  0.80139  0.72832  0.75378  1.0000
  H   H1112     1.0  0.71167  0.71771  0.69658  1.0000
  P   P48       1.0  0.96500  0.96920  0.73668  1.0000
  C   C1397     1.0  0.88748  0.99258  0.80182  1.0000
  H   H1113     1.0  0.70784  0.76648  0.70700  1.0000
  H   H1114     1.0  0.92020  0.93999  0.70024  1.0000
  H   H1115     1.0  0.91810  0.67227  0.83654  1.0000
  C   C1398     1.0  0.50529  0.79739  0.80368  1.0000
  C   C1399     1.0  0.63774  0.70843  0.66754  1.0000
  H   H1116     1.0  0.78161  0.69277  0.69166  1.0000
  H   H1117     1.0  0.57787  0.51491  0.96011  1.0000
  C   C1400     1.0  0.86486  0.64818  0.83512  1.0000
  H   H1118     1.0  0.69573  0.68055  0.75211  1.0000
  H   H1119     1.0  0.54842  0.53149  0.92538  1.0000
  C   C1401     1.0  0.86145  0.85242  0.87480  1.0000
  H   H1120     1.0  0.83826  0.77227  0.74618  1.0000
  C   C1402     1.0  0.97055  0.77881  0.89607  1.0000
  H   H1121     1.0  0.73068  0.84785  0.70841  1.0000
  C   C1403     1.0  0.51024  0.63497  0.97364  1.0000
  H   H1122     1.0  0.74344  0.61283  0.98407  1.0000
  C   C1404     1.0  0.75007  0.70410  0.75527  1.0000
  C   C1405     1.0  0.86989  0.92490  0.74657  1.0000
  C   C1406     1.0  0.92235  0.94703  0.73284  1.0000
  C   C1407     1.0  0.85830  0.75906  0.74053  1.0000
  C   C1408     1.0  0.96618  0.80003  0.88239  1.0000
  C   C1409     1.0  0.83707  0.87022  0.86194  1.0000
  C   C1410     1.0  0.71367  0.69292  0.74428  1.0000
  H   H1123     1.0  0.84411  0.89065  0.86370  1.0000
  C   C1411     1.0  0.78067  0.75078  0.66715  1.0000
  C   C1412     1.0  0.58162  0.85029  0.74151  1.0000
  C   C1413     1.0  0.85522  0.91309  0.72734  1.0000
  H   H1124     1.0  0.91413  0.95097  0.76428  1.0000
  H   H1125     1.0  0.93201  0.71207  0.72143  1.0000
  H   H1126     1.0  0.82951  0.89984  0.72537  1.0000
  C   C1414     1.0  0.91142  0.72529  0.72668  1.0000
  H   H1127     1.0  0.95801  0.74072  0.75171  1.0000
  H   H1128     1.0  0.50084  0.56850  0.92084  1.0000
  C   C1415     1.0  0.60279  0.66751  0.66044  1.0000
  C   C1416     1.0  0.66089  0.50046  0.94982  1.0000
  H   H1129     1.0  0.85084  0.64647  0.98864  1.0000
  C   C1417     1.0  0.59235  0.84904  0.76315  1.0000
  H   H1130     1.0  0.58121  0.65341  0.66382  1.0000
  Fe  Fe96      1.0  0.98597  0.86410  0.79859  1.0000
  C   C1418     1.0  0.50817  0.77075  0.80711  1.0000
  C   C1419     1.0  0.92607  0.74131  0.74379  1.0000
  H   H1131     1.0  0.79716  0.70930  0.92009  1.0000
  H   H1132     1.0  0.63975  0.71372  0.95048  1.0000
  H   H1133     1.0  0.96754  0.74318  0.69400  1.0000
  S   S190      1.0  0.52440  0.64128  0.94955  1.0000
  C   C1420     1.0  0.60979  0.69043  0.67224  1.0000
  H   H1134     1.0  0.97367  0.95661  0.81512  1.0000
  H   H1135     1.0  0.85558  0.92089  0.75950  1.0000
  H   H1136     1.0  0.78636  0.87541  0.83602  1.0000
  H   H1137     1.0  0.76010  0.70059  0.77177  1.0000
  C   C1421     1.0  0.56193  0.84692  0.77461  1.0000
  C   C1422     1.0  0.55531  0.53008  0.95858  1.0000
  C   C1423     1.0  0.83148  0.69062  0.85164  1.0000
  C   C1424     1.0  0.97581  0.74388  0.67902  1.0000
  H   H1138     1.0  0.62440  0.84868  0.77093  1.0000
  H   H1139     1.0  0.70719  0.65346  0.98681  1.0000
  H   H1140     1.0  0.83051  0.79571  0.71098  1.0000
  C   C1425     1.0  0.96713  0.82521  0.89016  1.0000
  S   S191      1.0  0.96643  0.85286  0.87411  1.0000
  S   S192      1.0  0.98387  0.75497  0.93415  1.0000
  C   C1426     1.0  0.50138  0.57162  0.95341  1.0000
  C   C1427     1.0  0.54048  0.84933  0.73130  1.0000
  H   H1141     1.0  0.85464  0.99046  0.79681  1.0000
  C   C1428     1.0  0.97542  0.80757  0.92535  1.0000
  H   H1142     1.0  0.96354  0.79695  0.86595  1.0000
  C   C1429     1.0  0.51219  0.56045  0.93615  1.0000
  C   C1430     1.0  0.66801  0.70340  0.98189  1.0000
  H   H1143     1.0  0.85053  0.72820  0.97823  1.0000
  H   H1144     1.0  0.60534  0.85107  0.73267  1.0000
  C   C1431     1.0  0.52045  0.84665  0.76447  1.0000
  C   C1432     1.0  0.53876  0.62798  0.99159  1.0000
  H   H1145     1.0  0.56023  0.67930  0.98588  1.0000
  C   C1433     1.0  0.51429  0.88284  0.80433  1.0000
  H   H1146     1.0  0.55158  0.73980  0.66366  1.0000
  C   C1434     1.0  0.51999  0.89789  0.82236  1.0000
  H   H1147     1.0  0.53860  0.91525  0.82371  1.0000
  H   H1148     1.0  0.97933  0.81070  0.94187  1.0000
  C   C1435     1.0  0.97107  0.82878  0.91166  1.0000
  H   H1149     1.0  0.98670  0.92211  0.76147  1.0000
  H   H1150     1.0  0.52817  0.88906  0.79179  1.0000
  H   H1151     1.0  0.97149  0.84815  0.91779  1.0000
  C   C1436     1.0  0.50143  0.89069  0.83854  1.0000
  C   C1437     1.0  0.49025  0.75355  0.79137  1.0000
  C   C1438     1.0  0.49047  0.86023  0.80254  1.0000
  C   C1439     1.0  0.61333  0.49525  0.90979  1.0000
  C   C1440     1.0  0.95161  0.73116  0.66198  1.0000
  H   H1152     1.0  0.92453  0.72058  0.66372  1.0000
