data_image0
_chemical_formula_structural       FeS2FeS2H2CHSHFeHSHS2FeS2FeS2C6H4C6H4C6H2C7H2C6PFeH3C2H2C6HCH2CH4SC2HC4H3C2H4C4PC9SHC8H18CHC4PC5HC7H2SC2H2C2H3C2H3CH2CHCHCHCHC2HCH2C4HCH3SHC2HCSHCH3C2HC2HCHCH3FeCSC2Fe2C2HC4H2CSC3SCSHFeS2FeS2FeS2FeS2C6HCHC7H2C8H4C6H2SHC6PC3HC2HCHCHC7H5CHCH4CH3CH3C2HCPC3HCH2CHCHFeHC2H3CHC2HCH6SCH2C3H3CFeSCHSCSCH3C2H3FeC3HPFeH2C3PC2HC4HCHC4HC2HCHSCH2C2H2CHC2H2CH2CHCHCH4SH2CH2C2H2CH3C2H2C5HFeS2FeS2HSH2SCFeS2HSC3Fe2S2C4HCH3C7H2CHC5H4C6H2CHC6PC3HC11H6CH10CH2CSH2SCHCHC2H4CH2CPC2H2C9H2SC2SC2HC2H2CH2CHCSC2H3CHCH2CH7CHC2H2CHFeHPC2H2CHCHC3H6C4FeHCFeCHSHCH2C3SHCHSHC2SCSCFeS2FeS2FeS2FeS2C7H4C8H2C6H3C3PC3H3CHC4PC8FeHC4HCHCH2FeHCH8CH3CH3CHCH3CSH3C2H2SCHC2PC2H2C6H2C8H3C2HC2HC3H6CH2CH4CHC4HC5HCH3C3HCHC2H6SH3C7PC5HCHCH2C3SHC2HC2H2C2HC2HC2H3FeHCH4CFeSCFeS2FeS2FeS2FeSFeS3FeHSH2C3HC6H4C3H2C4HC6HCH2C7H4PCHCHCH2CHC4HCHC8HC2HCHC2HCH4C2HC3HC2PHC5H3CHCHC3HCHC2H2SC4H2SC5HCHCHCPH6C3H6C3H3C2PH4CHC7HPH3CHCPC2H3C4H2CHC2HC2HC7H3CH2CH5CH3C4HC2H2CSC2HFeHCFeSHFeCSHCSFeS2FeS2FeSFeS3HC5H2C8H2CHC6H4C6H5C2HCH2CHC2H3CH4CH3CH2C3PC7H2CHC9H7CHCH3CH3C2HC2H2C3H3CHPHCHCH3CH2C2H3CHC2H3CHCHCH2CHPC3HC4HC11SCHC2HCH3SCH6C6PC3HCH2C2HC2HC4PCH5CHFeS2H2SH2SFeS2FeS2FeSFeS3HC6H4C6H4C7H3CHC2HC2HC5HC2PCH4CHCPCH2CH2C3H3CHCHCHC2HC11PC10HC4HC3H6CH2C2PHCHCH3C4HC3H3CH2CH2CHCHCH3C2FeCHC6HFeH2C4H5CHSCHC2H4C5HCHC2H2CSCH3CHCH2PC4HC2HCHC2HC2H2C2H4CFeS2FeS2FeSFeS3HSCFeSHFeCSH2C4HC2HSC8H4C6H4C2H2C2H3CH3PC8H2C3HCH3CH2CHC5HC2PHC7H5CHC4HCHCH5C2HC4H2CPCHCHCHCH2CHCHCH2FeCHC2H2C4HCHC2H5C3HC2HCSH3CH2C2HC3H2C2H7C2HC2H2C2SC3HFeC3H2CHC3HC4PHC2FeS2FeHSH2SFeSHFeS2FeS2FeSCFeS2C6H4C6H4C8H2CHCH2CHCHCHC4PC3HC6HCH11C3PC17H16SCSCH4CH2SCH2C2HFeH3CFeHC2HCHC3H2C2H2C3H4FeS2FeS2FeSCHS2FeS2FeS2FeS2CSC7H4C6H4C6H5SC5H4CHC4PC4HC3HC9H2C2H3CH2CHCH8CHCHCHC2HCHCH3C2HPCHC2H4C4HC3HCSC4PC15FeHC4H13C2H2C6PC3HC3SH6CHCH12C2H2CHC2H3C2HC2H2CSHCHFeH2FeCH4FeS2FeHSHCSFeHSFeS2FeS2FeS2FeS2C6H5PC3H2FeC9H3C6H4C3HCHCHCHCH2CPC2H2CH2SC2H3C2H2C4HC2HCH2C3HCHCHCHC4HCH2CH2C2HCHSH3CPCHC3H6CH2C7HC4H2CHCHCH3CH4C7PC3HC15HCH3C2H4SCH3C3HCHCH2CH4CHC2HCH2C2HC4HFeSCFeS2FeS2HSHFeS2HCSCSHC6SCH2C6H4CH2C2H2C6H2SHC6PC18H7CH3FeCH3C2H3C3H2C7HFeH8C5PCH3SCH2CH3C3HSHCH4CH2CSCH4CPH2C3H2PC2FeH3C2H4CHC6SCHCHCH4CHC2H2FeH3SCFeSC2H3CHC7H2C2H2C
_chemical_formula_sum              "Fe96 S192 H1152 C1440 P48"
_cell_length_a       43.0801
_cell_length_b       43.2002
_cell_length_c       43.355
_cell_angle_alpha    89.9972
_cell_angle_beta     89.4969
_cell_angle_gamma    89.9786

_space_group_name_H-M_alt    "P 1"
_space_group_IT_number       1

loop_
  _space_group_symop_operation_xyz
  'x, y, z'

loop_
  _atom_site_type_symbol
  _atom_site_label
  _atom_site_symmetry_multiplicity
  _atom_site_fract_x
  _atom_site_fract_y
  _atom_site_fract_z
  _atom_site_occupancy
  Fe  Fe1       1.0  0.14537  0.49234  0.21576  1.0000
  S   S1        1.0  0.09341  0.49114  0.21374  1.0000
  S   S2        1.0  0.18237  0.48410  0.17896  1.0000
  Fe  Fe2       1.0  0.09527  0.46697  0.25978  1.0000
  S   S3        1.0  0.05884  0.42991  0.26882  1.0000
  S   S4        1.0  0.14727  0.46448  0.25952  1.0000
  H   H1        1.0  0.14956  0.05828  0.37166  1.0000
  H   H2        1.0  0.28951  0.41417  0.25352  1.0000
  C   C1        1.0  0.11975  0.49097  0.43050  1.0000
  H   H3        1.0  0.12560  0.47160  0.35342  1.0000
  S   S5        1.0  0.16483  0.43300  0.04250  1.0000
  H   H4        1.0  0.11034  0.25368  0.37514  1.0000
  Fe  Fe3       1.0  0.28612  0.11933  0.49808  1.0000
  H   H5        1.0  0.03397  0.14517  0.39578  1.0000
  S   S6        1.0  0.32165  0.09928  0.46455  1.0000
  H   H6        1.0  0.25435  0.49758  0.24411  1.0000
  S   S7        1.0  0.20066  0.19983  0.49076  1.0000
  S   S8        1.0  0.23437  0.11276  0.49963  1.0000
  Fe  Fe4       1.0  0.03537  0.27728  0.36987  1.0000
  S   S9        1.0  0.03732  0.27368  0.42168  1.0000
  S   S10       1.0  0.07378  0.30617  0.34734  1.0000
  Fe  Fe5       1.0  0.03539  0.22234  0.41434  1.0000
  S   S11       1.0  0.06305  0.18465  0.43910  1.0000
  S   S12       1.0  0.03604  0.22553  0.36250  1.0000
  C   C2        1.0  0.10168  0.18907  0.45249  1.0000
  C   C3        1.0  0.11792  0.16296  0.46321  1.0000
  C   C4        1.0  0.14838  0.16572  0.47463  1.0000
  C   C5        1.0  0.16286  0.19467  0.47552  1.0000
  C   C6        1.0  0.14681  0.22065  0.46436  1.0000
  C   C7        1.0  0.11638  0.21792  0.45298  1.0000
  H   H7        1.0  0.10684  0.14052  0.46281  1.0000
  H   H8        1.0  0.16049  0.14557  0.48313  1.0000
  H   H9        1.0  0.15783  0.24314  0.46483  1.0000
  H   H10       1.0  0.10423  0.23818  0.44477  1.0000
  C   C8        1.0  0.17675  0.46908  0.14148  1.0000
  C   C9        1.0  0.20294  0.46281  0.12295  1.0000
  C   C10       1.0  0.19968  0.45144  0.09273  1.0000
  C   C11       1.0  0.17011  0.44638  0.08072  1.0000
  C   C12       1.0  0.14388  0.45259  0.09928  1.0000
  C   C13       1.0  0.14715  0.46378  0.12962  1.0000
  H   H11       1.0  0.22587  0.46690  0.13199  1.0000
  H   H12       1.0  0.22000  0.44671  0.07869  1.0000
  H   H13       1.0  0.04507  0.10444  0.46126  1.0000
  H   H14       1.0  0.12683  0.46858  0.14366  1.0000
  C   C14       1.0  0.06342  0.39640  0.29193  1.0000
  C   C15       1.0  0.09261  0.38626  0.30155  1.0000
  C   C16       1.0  0.09536  0.35830  0.31803  1.0000
  C   C17       1.0  0.06896  0.34080  0.32601  1.0000
  C   C18       1.0  0.03972  0.35134  0.31703  1.0000
  C   C19       1.0  0.03704  0.37886  0.29981  1.0000
  H   H15       1.0  0.11310  0.39950  0.29557  1.0000
  H   H16       1.0  0.11805  0.35017  0.32473  1.0000
  C   C20       1.0  0.11246  0.44467  0.46126  1.0000
  C   C21       1.0  0.30843  0.08861  0.16977  1.0000
  C   C22       1.0  0.31245  0.08896  0.42627  1.0000
  C   C23       1.0  0.28183  0.08873  0.41591  1.0000
  C   C24       1.0  0.27544  0.08071  0.38516  1.0000
  C   C25       1.0  0.29959  0.07344  0.36435  1.0000
  C   C26       1.0  0.32206  0.32832  0.04815  1.0000
  H   H17       1.0  0.26309  0.09481  0.43153  1.0000
  H   H18       1.0  0.25163  0.08018  0.37760  1.0000
  C   C27       1.0  0.15517  0.38758  0.36509  1.0000
  C   C28       1.0  0.16948  0.40697  0.34345  1.0000
  C   C29       1.0  0.15870  0.43718  0.33942  1.0000
  C   C30       1.0  0.13321  0.44788  0.35652  1.0000
  C   C31       1.0  0.11821  0.42827  0.37775  1.0000
  C   C32       1.0  0.12987  0.39830  0.38248  1.0000
  P   P1        1.0  0.08746  0.44315  0.40203  1.0000
  Fe  Fe6       1.0  0.32499  0.04334  0.29173  1.0000
  H   H19       1.0  0.22622  0.36678  0.06983  1.0000
  H   H20       1.0  0.04937  0.09295  0.37771  1.0000
  H   H21       1.0  0.13291  0.44559  0.50647  1.0000
  C   C33       1.0  0.14052  0.48843  0.48216  1.0000
  C   C34       1.0  0.23838  0.34969  0.21609  1.0000
  H   H22       1.0  0.24923  0.37432  0.25817  1.0000
  H   H23       1.0  0.16357  0.36419  0.36843  1.0000
  C   C35       1.0  0.31823  0.42974  0.14632  1.0000
  C   C36       1.0  0.12808  0.23585  0.37408  1.0000
  C   C37       1.0  0.29988  0.44443  0.12421  1.0000
  C   C38       1.0  0.16116  0.07595  0.38501  1.0000
  C   C39       1.0  0.06059  0.41312  0.41362  1.0000
  C   C40       1.0  0.05456  0.38821  0.39377  1.0000
  H   H24       1.0  0.34405  0.25195  0.16983  1.0000
  C   C41       1.0  0.31326  0.41034  0.24607  1.0000
  H   H25       1.0  0.10608  0.41520  0.21488  1.0000
  H   H26       1.0  0.08178  0.07666  0.49449  1.0000
  C   C42       1.0  0.33759  0.41636  0.26629  1.0000
  H   H27       1.0  0.18910  0.39872  0.33002  1.0000
  H   H28       1.0  0.17032  0.45256  0.32333  1.0000
  H   H29       1.0  0.16935  0.38648  0.14888  1.0000
  H   H30       1.0  0.11946  0.38312  0.39955  1.0000
  S   S13       1.0  0.29064  0.06550  0.32535  1.0000
  C   C43       1.0  0.03631  0.48316  0.33392  1.0000
  C   C44       1.0  0.34393  0.34771  0.03399  1.0000
  H   H31       1.0  0.31976  0.43995  0.16900  1.0000
  C   C45       1.0  0.22387  0.37007  0.09446  1.0000
  C   C46       1.0  0.34600  0.27699  0.16976  1.0000
  C   C47       1.0  0.12886  0.45839  0.48540  1.0000
  C   C48       1.0  0.32713  0.05469  0.12921  1.0000
  H   H32       1.0  0.17953  0.32764  0.22752  1.0000
  H   H33       1.0  0.12472  0.32210  0.24375  1.0000
  H   H34       1.0  0.06613  0.38658  0.37160  1.0000
  C   C49       1.0  0.29842  0.43264  0.09428  1.0000
  C   C50       1.0  0.19201  0.38108  0.13943  1.0000
  H   H35       1.0  0.17488  0.37943  0.09282  1.0000
  H   H36       1.0  0.28056  0.05392  0.14764  1.0000
  H   H37       1.0  0.29287  0.28565  0.24831  1.0000
  H   H38       1.0  0.32231  0.03592  0.11358  1.0000
  C   C51       1.0  0.15926  0.24392  0.37016  1.0000
  C   C52       1.0  0.18209  0.22088  0.36900  1.0000
  C   C53       1.0  0.17384  0.18954  0.37210  1.0000
  C   C54       1.0  0.14243  0.18165  0.37590  1.0000
  P   P2        1.0  0.20306  0.15967  0.36866  1.0000
  C   C55       1.0  0.18853  0.12512  0.38736  1.0000
  C   C56       1.0  0.21150  0.15225  0.32831  1.0000
  C   C57       1.0  0.22719  0.12513  0.31945  1.0000
  C   C58       1.0  0.23420  0.11945  0.28843  1.0000
  C   C59       1.0  0.22527  0.14063  0.26586  1.0000
  C   C60       1.0  0.20929  0.16753  0.27434  1.0000
  C   C61       1.0  0.20246  0.17338  0.30542  1.0000
  C   C62       1.0  0.19079  0.12176  0.41949  1.0000
  C   C63       1.0  0.17847  0.09564  0.43416  1.0000
  S   S14       1.0  0.33071  0.06035  0.24281  1.0000
  H   H39       1.0  0.09564  0.19847  0.38038  1.0000
  C   C64       1.0  0.17327  0.10216  0.37026  1.0000
  C   C65       1.0  0.23776  0.17119  0.38884  1.0000
  C   C66       1.0  0.23548  0.19029  0.41498  1.0000
  C   C67       1.0  0.26187  0.19742  0.43208  1.0000
  C   C68       1.0  0.29072  0.18524  0.42351  1.0000
  C   C69       1.0  0.29327  0.16633  0.39749  1.0000
  C   C70       1.0  0.26696  0.15944  0.38011  1.0000
  C   C71       1.0  0.13278  0.34360  0.23356  1.0000
  H   H40       1.0  0.16560  0.26809  0.36808  1.0000
  H   H41       1.0  0.20614  0.22745  0.36567  1.0000
  H   H42       1.0  0.13525  0.15779  0.37836  1.0000
  H   H43       1.0  0.23425  0.10834  0.33647  1.0000
  H   H44       1.0  0.24680  0.09861  0.28205  1.0000
  H   H45       1.0  0.23076  0.13615  0.24183  1.0000
  H   H46       1.0  0.20221  0.18389  0.25682  1.0000
  H   H47       1.0  0.19007  0.19435  0.31134  1.0000
  H   H48       1.0  0.20166  0.13944  0.43343  1.0000
  H   H49       1.0  0.18014  0.09342  0.45895  1.0000
  H   H50       1.0  0.04326  0.45317  0.13736  1.0000
  H   H51       1.0  0.28408  0.33395  0.27808  1.0000
  H   H52       1.0  0.17039  0.10460  0.34560  1.0000
  H   H53       1.0  0.21316  0.19894  0.42289  1.0000
  H   H54       1.0  0.25963  0.21162  0.45261  1.0000
  H   H55       1.0  0.31097  0.18990  0.43740  1.0000
  H   H56       1.0  0.31547  0.15618  0.39127  1.0000
  H   H57       1.0  0.26960  0.14419  0.36053  1.0000
  C   C72       1.0  0.27745  0.30336  0.23950  1.0000
  H   H58       1.0  0.08790  0.36556  0.23693  1.0000
  C   C73       1.0  0.25290  0.35360  0.24470  1.0000
  C   C74       1.0  0.16378  0.07268  0.41696  1.0000
  C   C75       1.0  0.01724  0.36737  0.43032  1.0000
  C   C76       1.0  0.24242  0.32164  0.20009  1.0000
  P   P3        1.0  0.21434  0.37997  0.20004  1.0000
  C   C77       1.0  0.22751  0.41716  0.21389  1.0000
  C   C78       1.0  0.21806  0.37808  0.15847  1.0000
  C   C79       1.0  0.24716  0.37173  0.14495  1.0000
  C   C80       1.0  0.24990  0.36735  0.11311  1.0000
  C   C81       1.0  0.26215  0.29876  0.21160  1.0000
  H   H59       1.0  0.31269  0.34059  0.13829  1.0000
  C   C82       1.0  0.27258  0.33063  0.25619  1.0000
  C   C83       1.0  0.21841  0.42749  0.24335  1.0000
  C   C84       1.0  0.22840  0.45624  0.25431  1.0000
  C   C85       1.0  0.24745  0.47492  0.23592  1.0000
  C   C86       1.0  0.25663  0.46484  0.20659  1.0000
  C   C87       1.0  0.24661  0.43613  0.19554  1.0000
  C   C88       1.0  0.17433  0.37503  0.21179  1.0000
  H   H60       1.0  0.31555  0.29162  0.08122  1.0000
  H   H61       1.0  0.28687  0.46509  0.13017  1.0000
  S   S15       1.0  0.28185  0.33001  0.03926  1.0000
  C   C89       1.0  0.12223  0.39610  0.21729  1.0000
  C   C90       1.0  0.15330  0.39963  0.20837  1.0000
  H   H62       1.0  0.12093  0.44872  0.09013  1.0000
  H   H63       1.0  0.19585  0.05272  0.50217  1.0000
  C   C91       1.0  0.16386  0.34694  0.22449  1.0000
  C   C92       1.0  0.31581  0.40654  0.08624  1.0000
  H   H64       1.0  0.23057  0.31752  0.17852  1.0000
  H   H65       1.0  0.26761  0.36955  0.15906  1.0000
  H   H66       1.0  0.27205  0.36147  0.10267  1.0000
  C   C93       1.0  0.33222  0.30690  0.07034  1.0000
  C   C94       1.0  0.15997  0.01799  0.50199  1.0000
  H   H67       1.0  0.26565  0.27744  0.19884  1.0000
  H   H68       1.0  0.20307  0.41361  0.25766  1.0000
  H   H69       1.0  0.22057  0.46455  0.27670  1.0000
  C   C95       1.0  0.04195  0.47752  0.14326  1.0000
  H   H70       1.0  0.27048  0.47984  0.19197  1.0000
  H   H71       1.0  0.25303  0.42934  0.17238  1.0000
  C   C96       1.0  0.19497  0.37697  0.10754  1.0000
  H   H72       1.0  0.28401  0.44385  0.07720  1.0000
  C   C97       1.0  0.11196  0.36809  0.22977  1.0000
  H   H73       1.0  0.16089  0.42154  0.19871  1.0000
  C   C98       1.0  0.30311  0.06499  0.14852  1.0000
  H   H74       1.0  0.15426  0.05249  0.42844  1.0000
  C   C99       1.0  0.11974  0.20473  0.37686  1.0000
  H   H75       1.0  0.28996  0.09603  0.18519  1.0000
  C   C100      1.0  0.33405  0.39166  0.10831  1.0000
  C   C101      1.0  0.10709  0.46119  0.43392  1.0000
  H   H76       1.0  0.31485  0.39761  0.06291  1.0000
  C   C102      1.0  0.33018  0.07320  0.37488  1.0000
  H   H77       1.0  0.05690  0.50194  0.41878  1.0000
  H   H78       1.0  0.06525  0.49200  0.10199  1.0000
  C   C103      1.0  0.04705  0.11071  0.48537  1.0000
  C   C104      1.0  0.05578  0.46327  0.35025  1.0000
  C   C105      1.0  0.06400  0.47012  0.38072  1.0000
  C   C106      1.0  0.33654  0.08075  0.40578  1.0000
  H   H79       1.0  0.01947  0.46932  0.18717  1.0000
  C   C107      1.0  0.02838  0.48660  0.17123  1.0000
  H   H80       1.0  0.06421  0.44241  0.33912  1.0000
  H   H81       1.0  0.30046  0.39435  0.20105  1.0000
  H   H82       1.0  0.30709  0.28402  0.13972  1.0000
  S   S16       1.0  0.25524  0.41575  0.01591  1.0000
  H   H83       1.0  0.10447  0.42104  0.46379  1.0000
  C   C108      1.0  0.31957  0.39960  0.21622  1.0000
  C   C109      1.0  0.03329  0.36525  0.40227  1.0000
  H   H84       1.0  0.33388  0.02804  0.48207  1.0000
  C   C110      1.0  0.05186  0.49677  0.39492  1.0000
  S   S17       1.0  0.28414  0.17066  0.50671  1.0000
  H   H85       1.0  0.33268  0.42469  0.28941  1.0000
  C   C111      1.0  0.02730  0.09620  0.38942  1.0000
  H   H86       1.0  0.01921  0.33811  0.32302  1.0000
  H   H87       1.0  0.11738  0.50355  0.40903  1.0000
  H   H88       1.0  0.02912  0.34582  0.38701  1.0000
  C   C112      1.0  0.04366  0.41563  0.44135  1.0000
  C   C113      1.0  0.33462  0.40257  0.13881  1.0000
  H   H89       1.0  0.13784  0.49455  0.04103  1.0000
  C   C114      1.0  0.32874  0.32726  0.15187  1.0000
  C   C115      1.0  0.32534  0.29505  0.15278  1.0000
  H   H90       1.0  0.33654  0.36416  0.01673  1.0000
  C   C116      1.0  0.33787  0.10188  0.17187  1.0000
  H   H91       1.0  0.34215  0.11982  0.18875  1.0000
  C   C117      1.0  0.06788  0.09502  0.50441  1.0000
  H   H92       1.0  0.15344  0.49907  0.50071  1.0000
  H   H93       1.0  0.03018  0.47762  0.31034  1.0000
  H   H94       1.0  0.04675  0.43540  0.45634  1.0000
  Fe  Fe7       1.0  0.14566  0.51055  0.28372  1.0000
  C   C118      1.0  0.05462  0.49973  0.12330  1.0000
  S   S18       1.0  0.09371  0.51095  0.28742  1.0000
  C   C119      1.0  0.02502  0.51012  0.34784  1.0000
  C   C120      1.0  0.13608  0.50463  0.45467  1.0000
  Fe  Fe8       1.0  0.20327  0.41162  0.01300  1.0000
  Fe  Fe9       1.0  0.23239  0.16333  0.51178  1.0000
  C   C121      1.0  0.02225  0.39266  0.44976  1.0000
  C   C122      1.0  0.01862  0.12566  0.39960  1.0000
  H   H95       1.0  0.34761  0.37157  0.10159  1.0000
  C   C123      1.0  0.02992  0.13567  0.49689  1.0000
  C   C124      1.0  0.11859  0.51073  0.04150  1.0000
  C   C125      1.0  0.17229  0.04701  0.50905  1.0000
  C   C126      1.0  0.05556  0.06839  0.60085  1.0000
  H   H96       1.0  0.09976  0.15396  0.97865  1.0000
  H   H97       1.0  0.17517  0.29186  0.87800  1.0000
  C   C127      1.0  0.08286  0.40493  0.91967  1.0000
  S   S19       1.0  0.04100  0.29076  0.94856  1.0000
  C   C128      1.0  0.34048  0.37954  0.57887  1.0000
  C   C129      1.0  0.12486  0.06063  0.53653  1.0000
  C   C130      1.0  0.26284  0.51109  0.69885  1.0000
  S   S20       1.0  0.05216  0.04784  0.80869  1.0000
  C   C131      1.0  0.01567  0.47798  0.88656  1.0000
  S   S21       1.0  0.17602  0.06412  0.71598  1.0000
  H   H98       1.0  0.01706  0.28354  0.68293  1.0000
  Fe  Fe10      1.0  0.20621  0.36774  0.95785  1.0000
  S   S22       1.0  0.20240  0.41946  0.96162  1.0000
  S   S23       1.0  0.17732  0.34255  0.92204  1.0000
  Fe  Fe11      1.0  0.25455  0.41907  0.96370  1.0000
  S   S24       1.0  0.28564  0.45498  0.93999  1.0000
  S   S25       1.0  0.25869  0.36763  0.95633  1.0000
  Fe  Fe12      1.0  0.24060  0.10532  0.55086  1.0000
  S   S26       1.0  0.23512  0.15552  0.56306  1.0000
  S   S27       1.0  0.21653  0.06461  0.57425  1.0000
  Fe  Fe13      1.0  0.28709  0.15864  0.55689  1.0000
  S   S28       1.0  0.31520  0.18375  0.59361  1.0000
  S   S29       1.0  0.29255  0.10766  0.54818  1.0000
  C   C132      1.0  0.30307  0.46279  0.83514  1.0000
  C   C133      1.0  0.06163  0.38322  0.93147  1.0000
  C   C134      1.0  0.31447  0.47798  0.88789  1.0000
  C   C135      1.0  0.29230  0.45700  0.89954  1.0000
  C   C136      1.0  0.27548  0.43894  0.87877  1.0000
  C   C137      1.0  0.28074  0.44197  0.84675  1.0000
  H   H99       1.0  0.25925  0.25120  0.84201  1.0000
  C   C138      1.0  0.02695  0.13430  0.83659  1.0000
  H   H100      1.0  0.25838  0.42270  0.88739  1.0000
  C   C139      1.0  0.22449  0.31914  0.82294  1.0000
  C   C140      1.0  0.20546  0.06494  0.61367  1.0000
  C   C141      1.0  0.21155  0.09030  0.63271  1.0000
  C   C142      1.0  0.20235  0.08972  0.66397  1.0000
  C   C143      1.0  0.18680  0.06391  0.67644  1.0000
  C   C144      1.0  0.18068  0.03855  0.65737  1.0000
  C   C145      1.0  0.19018  0.03901  0.62619  1.0000
  H   H101      1.0  0.22338  0.11034  0.62336  1.0000
  H   H102      1.0  0.20728  0.10937  0.67859  1.0000
  C   C146      1.0  0.11920  0.21341  0.88705  1.0000
  C   C147      1.0  0.08684  0.06621  0.59169  1.0000
  C   C148      1.0  0.07882  0.30511  0.94081  1.0000
  C   C149      1.0  0.09069  0.30697  0.91076  1.0000
  C   C150      1.0  0.12074  0.31869  0.90547  1.0000
  C   C151      1.0  0.13921  0.32895  0.92999  1.0000
  C   C152      1.0  0.12727  0.32734  0.96004  1.0000
  C   C153      1.0  0.09730  0.31527  0.96542  1.0000
  H   H103      1.0  0.07680  0.29928  0.89159  1.0000
  H   H104      1.0  0.12971  0.31970  0.88221  1.0000
  H   H105      1.0  0.14119  0.33514  0.97916  1.0000
  H   H106      1.0  0.08833  0.31397  0.98876  1.0000
  C   C154      1.0  0.04928  0.15343  0.82280  1.0000
  C   C155      1.0  0.07244  0.14002  0.80410  1.0000
  C   C156      1.0  0.07377  0.10773  0.79967  1.0000
  C   C157      1.0  0.05157  0.08856  0.81361  1.0000
  C   C158      1.0  0.15474  0.06843  0.52600  1.0000
  C   C159      1.0  0.10168  0.42151  0.94028  1.0000
  H   H107      1.0  0.08939  0.15470  0.79289  1.0000
  H   H108      1.0  0.09184  0.09769  0.78533  1.0000
  S   S30       1.0  0.01971  0.27146  0.86118  1.0000
  H   H109      1.0  0.10653  0.46170  0.83581  1.0000
  C   C160      1.0  0.06860  0.14849  0.90716  1.0000
  C   C161      1.0  0.07177  0.15727  0.93796  1.0000
  C   C162      1.0  0.09773  0.14775  0.95455  1.0000
  C   C163      1.0  0.12069  0.12975  0.94022  1.0000
  C   C164      1.0  0.11837  0.12205  0.90881  1.0000
  C   C165      1.0  0.09152  0.13054  0.89278  1.0000
  P   P4        1.0  0.14674  0.09713  0.89049  1.0000
  C   C166      1.0  0.18374  0.09742  0.90974  1.0000
  C   C167      1.0  0.12976  0.05902  0.89259  1.0000
  C   C168      1.0  0.19466  0.29226  0.86221  1.0000
  H   H110      1.0  0.05652  0.01944  0.66267  1.0000
  C   C169      1.0  0.30301  0.08089  0.62532  1.0000
  C   C170      1.0  0.21613  0.26793  0.86200  1.0000
  H   H111      1.0  0.18574  0.01917  0.61169  1.0000
  C   C171      1.0  0.20201  0.07051  0.91028  1.0000
  H   H112      1.0  0.28165  0.29975  0.95373  1.0000
  C   C172      1.0  0.24035  0.09673  0.94130  1.0000
  H   H113      1.0  0.17665  0.18880  0.59816  1.0000
  C   C173      1.0  0.19497  0.12455  0.92355  1.0000
  C   C174      1.0  0.15535  0.10780  0.85104  1.0000
  C   C175      1.0  0.14685  0.13683  0.83924  1.0000
  C   C176      1.0  0.15321  0.14431  0.80842  1.0000
  C   C177      1.0  0.16842  0.12304  0.78928  1.0000
  C   C178      1.0  0.17815  0.09469  0.80121  1.0000
  C   C179      1.0  0.17167  0.08704  0.83197  1.0000
  H   H114      1.0  0.04819  0.15536  0.89443  1.0000
  H   H115      1.0  0.05384  0.17104  0.94907  1.0000
  H   H116      1.0  0.08320  0.22523  0.91983  1.0000
  H   H117      1.0  0.13982  0.12146  0.95391  1.0000
  H   H118      1.0  0.08809  0.12301  0.86921  1.0000
  C   C180      1.0  0.24599  0.29487  0.82246  1.0000
  H   H119      1.0  0.13624  0.10025  0.61699  1.0000
  C   C181      1.0  0.21812  0.19536  0.83939  1.0000
  H   H120      1.0  0.24357  0.04890  0.92713  1.0000
  H   H121      1.0  0.14372  0.05094  0.93979  1.0000
  H   H122      1.0  0.26604  0.29606  0.80724  1.0000
  H   H123      1.0  0.32738  0.49223  0.90371  1.0000
  C   C182      1.0  0.23327  0.24516  0.92349  1.0000
  H   H124      1.0  0.15355  0.18879  0.54597  1.0000
  H   H125      1.0  0.18203  0.14600  0.92199  1.0000
  H   H126      1.0  0.13479  0.15352  0.85347  1.0000
  C   C183      1.0  0.32809  0.40951  0.57825  1.0000
  H   H127      1.0  0.12539  0.36808  0.84628  1.0000
  H   H128      1.0  0.25199  0.12471  0.83043  1.0000
  H   H129      1.0  0.17870  0.06458  0.84058  1.0000
  C   C184      1.0  0.14918  0.16962  0.56161  1.0000
  C   C185      1.0  0.13092  0.14471  0.55214  1.0000
  H   H130      1.0  0.05297  0.42877  0.82122  1.0000
  C   C186      1.0  0.14923  0.41412  0.88168  1.0000
  P   P5        1.0  0.08466  0.41288  0.87869  1.0000
  C   C187      1.0  0.07705  0.37822  0.85650  1.0000
  C   C188      1.0  0.11258  0.03141  0.52933  1.0000
  C   C189      1.0  0.15725  0.14455  0.61077  1.0000
  H   H131      1.0  0.19911  0.41365  0.88370  1.0000
  C   C190      1.0  0.05953  0.37798  0.96326  1.0000
  H   H132      1.0  0.11786  0.43883  0.93203  1.0000
  H   H133      1.0  0.23107  0.14471  0.95124  1.0000
  C   C191      1.0  0.13157  0.04183  0.92002  1.0000
  H   H134      1.0  0.18982  0.07818  0.78619  1.0000
  C   C192      1.0  0.10149  0.36148  0.84277  1.0000
  H   H135      1.0  0.34024  0.01451  0.99050  1.0000
  Fe  Fe14      1.0  0.08939  0.02265  0.78078  1.0000
  H   H136      1.0  0.13100  0.04461  0.60141  1.0000
  C   C193      1.0  0.04098  0.45883  0.89313  1.0000
  C   C194      1.0  0.16220  0.16963  0.59099  1.0000
  H   H137      1.0  0.14692  0.39546  0.89824  1.0000
  H   H138      1.0  0.30448  0.12915  0.63774  1.0000
  H   H139      1.0  0.04935  0.45782  0.91657  1.0000
  C   C195      1.0  0.07166  0.10421  0.53528  1.0000
  H   H140      1.0  0.11148  0.50865  0.99252  1.0000
  C   C196      1.0  0.06483  0.03237  0.64276  1.0000
  C   C197      1.0  0.24494  0.14615  0.84147  1.0000
  H   H141      1.0  0.02059  0.05332  0.63353  1.0000
  C   C198      1.0  0.11300  0.04705  0.86769  1.0000
  H   H142      1.0  0.05748  0.13739  0.57007  1.0000
  H   H143      1.0  0.15914  0.47943  0.82110  1.0000
  H   H144      1.0  0.14565  0.16633  0.79917  1.0000
  H   H145      1.0  0.26677  0.13528  0.88455  1.0000
  H   H146      1.0  0.17245  0.12825  0.76509  1.0000
  H   H147      1.0  0.33111  0.27678  0.51451  1.0000
  S   S31       1.0  0.20388  0.35981  0.00874  1.0000
  C   C199      1.0  0.23004  0.07009  0.92625  1.0000
  H   H148      1.0  0.27380  0.26775  0.00033  1.0000
  H   H149      1.0  0.33709  0.28973  0.62800  1.0000
  C   C200      1.0  0.31583  0.26555  0.59071  1.0000
  C   C201      1.0  0.25316  0.15211  0.87199  1.0000
  C   C202      1.0  0.31988  0.48084  0.85588  1.0000
  H   H150      1.0  0.26755  0.42795  0.83088  1.0000
  H   H151      1.0  0.11429  0.32222  0.81472  1.0000
  H   H152      1.0  0.16779  0.14430  0.63337  1.0000
  C   C203      1.0  0.15629  0.46137  0.83822  1.0000
  Fe  Fe15      1.0  0.25618  0.36422  0.00821  1.0000
  S   S32       1.0  0.14045  0.02712  0.78954  1.0000
  C   C204      1.0  0.18249  0.44794  0.85160  1.0000
  H   H153      1.0  0.03955  0.08302  0.58852  1.0000
  S   S33       1.0  0.04996  0.19396  0.82917  1.0000
  C   C205      1.0  0.10680  0.04660  0.60811  1.0000
  S   S34       1.0  0.09407  0.02553  0.72926  1.0000
  C   C206      1.0  0.12274  0.42767  0.86867  1.0000
  H   H154      1.0  0.05993  0.30579  0.80593  1.0000
  H   H155      1.0  0.15885  0.20594  0.85808  1.0000
  H   H156      1.0  0.33006  0.45556  0.59747  1.0000
  C   C207      1.0  0.12648  0.45124  0.84663  1.0000
  C   C208      1.0  0.26450  0.50067  0.72930  1.0000
  H   H157      1.0  0.27883  0.07806  0.63194  1.0000
  H   H158      1.0  0.30947  0.41507  0.56254  1.0000
  H   H159      1.0  0.20463  0.21187  0.82630  1.0000
  Fe  Fe16      1.0  0.34612  0.49252  0.76827  1.0000
  C   C209      1.0  0.17891  0.42432  0.87334  1.0000
  C   C210      1.0  0.13921  0.11943  0.60127  1.0000
  C   C211      1.0  0.10008  0.41558  0.97197  1.0000
  H   H160      1.0  0.18259  0.33695  0.84406  1.0000
  P   P6        1.0  0.10183  0.08755  0.55889  1.0000
  Fe  Fe17      1.0  0.14544  0.02681  0.73762  1.0000
  H   H161      1.0  0.25564  0.28649  0.90527  1.0000
  H   H162      1.0  0.26193  0.09624  0.95395  1.0000
  C   C212      1.0  0.04633  0.36848  0.85165  1.0000
  C   C213      1.0  0.22580  0.20135  0.87027  1.0000
  C   C214      1.0  0.24373  0.17963  0.88635  1.0000
  P   P7        1.0  0.21176  0.23627  0.88883  1.0000
  C   C215      1.0  0.15075  0.21592  0.87948  1.0000
  C   C216      1.0  0.17110  0.23192  0.89901  1.0000
  H   H163      1.0  0.01652  0.33548  0.82916  1.0000
  C   C217      1.0  0.07902  0.39381  0.98345  1.0000
  C   C218      1.0  0.34839  0.11353  0.61937  1.0000
  C   C219      1.0  0.12778  0.24249  0.93380  1.0000
  C   C220      1.0  0.15913  0.24577  0.92595  1.0000
  H   H164      1.0  0.22168  0.16344  0.80129  1.0000
  C   C221      1.0  0.12570  0.11939  0.57187  1.0000
  H   H165      1.0  0.20559  0.45563  0.84502  1.0000
  C   C222      1.0  0.06472  0.32613  0.81975  1.0000
  C   C223      1.0  0.22290  0.12400  0.93981  1.0000
  C   C224      1.0  0.04024  0.34278  0.83304  1.0000
  C   C225      1.0  0.22905  0.22699  0.95011  1.0000
  H   H166      1.0  0.08954  0.02500  0.53725  1.0000
  C   C226      1.0  0.22774  0.16793  0.82509  1.0000
  C   C227      1.0  0.02816  0.10202  0.83204  1.0000
  H   H167      1.0  0.30215  0.25078  0.60580  1.0000
  C   C228      1.0  0.19887  0.31784  0.84288  1.0000
  H   H168      1.0  0.26847  0.49558  0.67996  1.0000
  S   S35       1.0  0.30835  0.46606  0.79462  1.0000
  C   C229      1.0  0.31420  0.26160  0.55880  1.0000
  H   H169      1.0  0.19457  0.04975  0.89847  1.0000
  H   H170      1.0  0.10339  0.20166  0.87161  1.0000
  C   C230      1.0  0.25250  0.27142  0.92497  1.0000
  C   C231      1.0  0.04299  0.44263  0.83962  1.0000
  H   H171      1.0  0.11871  0.25325  0.95458  1.0000
  H   H172      1.0  0.17366  0.25984  0.94064  1.0000
  C   C232      1.0  0.10775  0.22662  0.91424  1.0000
  H   H173      1.0  0.25061  0.18378  0.90987  1.0000
  C   C233      1.0  0.09591  0.03003  0.63370  1.0000
  C   C234      1.0  0.09532  0.33541  0.82470  1.0000
  H   H174      1.0  0.04700  0.36987  0.91630  1.0000
  H   H175      1.0  0.21366  0.20718  0.94977  1.0000
  C   C235      1.0  0.24197  0.26941  0.84206  1.0000
  H   H176      1.0  0.29925  0.24381  0.54937  1.0000
  H   H177      1.0  0.22792  0.33914  0.80821  1.0000
  C   C236      1.0  0.33967  0.43235  0.59790  1.0000
  H   H178      1.0  0.33113  0.36230  0.56344  1.0000
  C   C237      1.0  0.05458  0.44064  0.86977  1.0000
  H   H179      1.0  0.16907  0.01843  0.66681  1.0000
  C   C238      1.0  0.05413  0.12920  0.54670  1.0000
  H   H180      1.0  0.30799  0.03396  0.60967  1.0000
  H   H181      1.0  0.11551  0.42753  0.98767  1.0000
  H   H182      1.0  0.11163  0.01562  0.64684  1.0000
  H   H183      1.0  0.07822  0.38880  0.00794  1.0000
  S   S36       1.0  0.34406  0.49084  0.71620  1.0000
  H   H184      1.0  0.16505  0.09056  0.53160  1.0000
  H   H185      1.0  0.27143  0.47702  0.73411  1.0000
  C   C239      1.0  0.04465  0.05149  0.62631  1.0000
  H   H186      1.0  0.12096  0.14521  0.52933  1.0000
  H   H187      1.0  0.34406  0.46031  0.98804  1.0000
  C   C240      1.0  0.26284  0.26110  0.97886  1.0000
  C   C241      1.0  0.26725  0.27921  0.95252  1.0000
  H   H188      1.0  0.04376  0.36052  0.97212  1.0000
  H   H189      1.0  0.33680  0.49716  0.84721  1.0000
  C   C242      1.0  0.24383  0.23493  0.97763  1.0000
  H   H190      1.0  0.24008  0.22123  0.99826  1.0000
  H   H191      1.0  0.26001  0.51217  0.77699  1.0000
  H   H192      1.0  0.11015  0.06034  0.84670  1.0000
  C   C243      1.0  0.33590  0.28757  0.60318  1.0000
  C   C244      1.0  0.33230  0.28006  0.53924  1.0000
  H   H193      1.0  0.20819  0.51070  0.88725  1.0000
  H   H194      1.0  0.02700  0.38083  0.86200  1.0000
  C   C245      1.0  0.31748  0.10960  0.62870  1.0000
  C   C246      1.0  0.01757  0.46165  0.83322  1.0000
  C   C247      1.0  0.09925  0.01778  0.86983  1.0000
  C   C248      1.0  0.31950  0.05604  0.61267  1.0000
  C   C249      1.0  0.03327  0.14476  0.52760  1.0000
  H   H195      1.0  0.02055  0.16465  0.53620  1.0000
  Fe  Fe18      1.0  0.26211  0.65334  0.47603  1.0000
  S   S37       1.0  0.25260  0.60202  0.47589  1.0000
  S   S38       1.0  0.29696  0.66901  0.43924  1.0000
  Fe  Fe19      1.0  0.20222  0.61486  0.47387  1.0000
  S   S39       1.0  0.16362  0.59416  0.44459  1.0000
  S   S40       1.0  0.21161  0.66597  0.47115  1.0000
  H   H196      1.0  0.33280  0.98231  0.03737  1.0000
  S   S41       1.0  0.28790  0.85380  0.02116  1.0000
  H   H197      1.0  0.34738  0.97238  0.16679  1.0000
  H   H198      1.0  0.31100  0.90834  0.35519  1.0000
  S   S42       1.0  0.32206  0.92072  0.06926  1.0000
  C   C250      1.0  0.02724  0.51793  0.17915  1.0000
  Fe  Fe20      1.0  0.03943  0.79150  0.10304  1.0000
  S   S43       1.0  0.04776  0.78342  0.15350  1.0000
  S   S44       1.0  0.06518  0.82866  0.07536  1.0000
  H   H199      1.0  0.05039  0.58134  0.35455  1.0000
  S   S45       1.0  0.07812  0.69768  0.15755  1.0000
  C   C251      1.0  0.13238  0.71175  0.30523  1.0000
  C   C252      1.0  0.10639  0.60489  0.30399  1.0000
  C   C253      1.0  0.20858  0.64813  0.38234  1.0000
  Fe  Fe21      1.0  0.28851  0.90485  0.03192  1.0000
  Fe  Fe22      1.0  0.09468  0.53519  0.24137  1.0000
  S   S46       1.0  0.05853  0.57273  0.23335  1.0000
  S   S47       1.0  0.14659  0.53838  0.23997  1.0000
  C   C254      1.0  0.07207  0.66294  0.17848  1.0000
  C   C255      1.0  0.09755  0.64340  0.18408  1.0000
  C   C256      1.0  0.09381  0.61561  0.20071  1.0000
  C   C257      1.0  0.06452  0.60719  0.21198  1.0000
  H   H200      1.0  0.32090  0.87171  0.29209  1.0000
  C   C258      1.0  0.04275  0.65442  0.18962  1.0000
  H   H201      1.0  0.12032  0.64982  0.17553  1.0000
  H   H202      1.0  0.11360  0.60088  0.20502  1.0000
  H   H203      1.0  0.26445  0.71281  0.01979  1.0000
  C   C259      1.0  0.10905  0.86872  0.20279  1.0000
  C   C260      1.0  0.16730  0.82305  0.04384  1.0000
  C   C261      1.0  0.15191  0.79650  0.05479  1.0000
  C   C262      1.0  0.12101  0.79808  0.06556  1.0000
  C   C263      1.0  0.10498  0.82620  0.06491  1.0000
  C   C264      1.0  0.12044  0.85285  0.05420  1.0000
  C   C265      1.0  0.15158  0.85138  0.04400  1.0000
  H   H204      1.0  0.16393  0.77450  0.05488  1.0000
  H   H205      1.0  0.10938  0.77741  0.07373  1.0000
  C   C266      1.0  0.07017  0.59404  0.34566  1.0000
  H   H206      1.0  0.34547  0.55293  0.47354  1.0000
  C   C267      1.0  0.29889  0.97734  0.15647  1.0000
  C   C268      1.0  0.27561  0.97076  0.13490  1.0000
  C   C269      1.0  0.28237  0.95368  0.10796  1.0000
  C   C270      1.0  0.31244  0.94266  0.10257  1.0000
  C   C271      1.0  0.22759  0.67395  0.37794  1.0000
  H   H207      1.0  0.11071  0.98833  0.10608  1.0000
  H   H208      1.0  0.26430  0.94892  0.09147  1.0000
  H   H209      1.0  0.23914  0.71214  0.34818  1.0000
  H   H210      1.0  0.16200  0.55133  0.17608  1.0000
  C   C272      1.0  0.17696  0.54021  0.35397  1.0000
  C   C273      1.0  0.20281  0.54820  0.37186  1.0000
  C   C274      1.0  0.19915  0.56487  0.39957  1.0000
  C   C275      1.0  0.16952  0.57347  0.40977  1.0000
  C   C276      1.0  0.14364  0.56531  0.39196  1.0000
  C   C277      1.0  0.14731  0.54900  0.36402  1.0000
  H   H211      1.0  0.22582  0.54149  0.36424  1.0000
  H   H212      1.0  0.21924  0.57091  0.41311  1.0000
  C   C278      1.0  0.05382  0.53126  0.13131  1.0000
  H   H213      1.0  0.20248  0.63229  0.20456  1.0000
  C   C279      1.0  0.25526  0.86458  0.10991  1.0000
  C   C280      1.0  0.24483  0.83541  0.10081  1.0000
  C   C281      1.0  0.21403  0.82678  0.10642  1.0000
  C   C282      1.0  0.19329  0.84760  0.12022  1.0000
  C   C283      1.0  0.20360  0.87697  0.12944  1.0000
  C   C284      1.0  0.23486  0.88509  0.12457  1.0000
  P   P8        1.0  0.17734  0.90483  0.14659  1.0000
  C   C285      1.0  0.14228  0.88635  0.16064  1.0000
  C   C286      1.0  0.19813  0.92247  0.17800  1.0000
  C   C287      1.0  0.21520  0.90373  0.19819  1.0000
  H   H214      1.0  0.08605  0.70158  0.22950  1.0000
  C   C288      1.0  0.20962  0.59401  0.23557  1.0000
  C   C289      1.0  0.21666  0.96802  0.20503  1.0000
  C   C290      1.0  0.19890  0.95476  0.18163  1.0000
  C   C291      1.0  0.13681  0.88215  0.19238  1.0000
  C   C292      1.0  0.11949  0.87703  0.13960  1.0000
  C   C293      1.0  0.16660  0.93387  0.11861  1.0000
  C   C294      1.0  0.18552  0.93993  0.09277  1.0000
  C   C295      1.0  0.17756  0.96329  0.07195  1.0000
  C   C296      1.0  0.15068  0.98081  0.07678  1.0000
  C   C297      1.0  0.13160  0.97480  0.10233  1.0000
  C   C298      1.0  0.13953  0.95147  0.12321  1.0000
  H   H215      1.0  0.27901  0.87157  0.10515  1.0000
  H   H216      1.0  0.26036  0.81968  0.08879  1.0000
  H   H217      1.0  0.20587  0.80432  0.09886  1.0000
  H   H218      1.0  0.16934  0.84065  0.12325  1.0000
  H   H219      1.0  0.24333  0.90757  0.13160  1.0000
  H   H220      1.0  0.11381  0.60077  0.28039  1.0000
  C   C299      1.0  0.03994  0.54016  0.15931  1.0000
  H   H221      1.0  0.24618  0.90248  0.23681  1.0000
  H   H222      1.0  0.34171  0.98375  0.44686  1.0000
  H   H223      1.0  0.18648  0.96986  0.16614  1.0000
  H   H224      1.0  0.15363  0.88940  0.20924  1.0000
  H   H225      1.0  0.12308  0.88007  0.11502  1.0000
  H   H226      1.0  0.20650  0.92687  0.08863  1.0000
  H   H227      1.0  0.19236  0.96782  0.05208  1.0000
  H   H228      1.0  0.21811  0.99298  0.20718  1.0000
  H   H229      1.0  0.02355  0.53748  0.38937  1.0000
  H   H230      1.0  0.12467  0.94737  0.14310  1.0000
  C   C300      1.0  0.18042  0.64023  0.24862  1.0000
  H   H231      1.0  0.22303  0.58056  0.21911  1.0000
  H   H232      1.0  0.07680  0.62025  0.38740  1.0000
  C   C301      1.0  0.23283  0.91708  0.22160  1.0000
  S   S48       1.0  0.31330  0.99520  0.27655  1.0000
  H   H233      1.0  0.02101  0.81401  0.02508  1.0000
  H   H234      1.0  0.11605  0.75894  0.30441  1.0000
  S   S49       1.0  0.23652  0.90997  0.02918  1.0000
  C   C302      1.0  0.09180  0.86366  0.15012  1.0000
  H   H235      1.0  0.24542  0.67930  0.39467  1.0000
  C   C303      1.0  0.08066  0.58878  0.31554  1.0000
  H   H236      1.0  0.33773  0.86165  0.12038  1.0000
  C   C304      1.0  0.31602  0.98638  0.36344  1.0000
  C   C305      1.0  0.34367  0.98805  0.37999  1.0000
  H   H237      1.0  0.30894  0.94170  0.22275  1.0000
  H   H238      1.0  0.16324  0.87200  0.03582  1.0000
  H   H239      1.0  0.28308  0.95658  0.34126  1.0000
  H   H240      1.0  0.16354  0.62836  0.11351  1.0000
  C   C306      1.0  0.09917  0.70445  0.25054  1.0000
  H   H241      1.0  0.12723  0.54301  0.35047  1.0000
  H   H242      1.0  0.01631  0.62034  0.21504  1.0000
  C   C307      1.0  0.30414  0.95769  0.35466  1.0000
  P   P9        1.0  0.07157  0.56052  0.10719  1.0000
  C   C308      1.0  0.10725  0.57378  0.12432  1.0000
  C   C309      1.0  0.08361  0.54434  0.07048  1.0000
  H   H243      1.0  0.03958  0.56428  0.16621  1.0000
  H   H244      1.0  0.08714  0.75254  0.25549  1.0000
  C   C310      1.0  0.33579  0.94943  0.12404  1.0000
  C   C311      1.0  0.11618  0.73680  0.29269  1.0000
  C   C312      1.0  0.06928  0.55288  0.04274  1.0000
  C   C313      1.0  0.12302  0.59926  0.11155  1.0000
  C   C314      1.0  0.15184  0.60830  0.12307  1.0000
  C   C315      1.0  0.16574  0.59120  0.14655  1.0000
  C   C316      1.0  0.15075  0.56518  0.15862  1.0000
  C   C317      1.0  0.12149  0.55661  0.14783  1.0000
  C   C318      1.0  0.04267  0.59063  0.10263  1.0000
  H   H245      1.0  0.25260  0.76853  0.01223  1.0000
  H   H246      1.0  0.14464  0.99900  0.06070  1.0000
  S   S50       1.0  0.18289  0.51899  0.31949  1.0000
  C   C319      1.0  0.02564  0.64408  0.10807  1.0000
  C   C320      1.0  0.04807  0.62111  0.11250  1.0000
  S   S51       1.0  0.03652  0.74093  0.09179  1.0000
  C   C321      1.0  0.23370  0.94924  0.22491  1.0000
  C   C322      1.0  0.22393  0.69248  0.35178  1.0000
  H   H247      1.0  0.30395  0.00739  0.35708  1.0000
  C   C323      1.0  0.31160  0.90750  0.25886  1.0000
  C   C324      1.0  0.32913  0.96692  0.15073  1.0000
  H   H248      1.0  0.19891  0.69955  0.30971  1.0000
  H   H249      1.0  0.11383  0.65703  0.25174  1.0000
  C   C325      1.0  0.33849  0.59771  0.49405  1.0000
  H   H250      1.0  0.05075  0.56970  0.04239  1.0000
  H   H251      1.0  0.29087  0.91555  0.27063  1.0000
  C   C326      1.0  0.11030  0.63260  0.35239  1.0000
  H   H252      1.0  0.07429  0.85652  0.13381  1.0000
  C   C327      1.0  0.03268  0.51686  0.37839  1.0000
  S   S52       1.0  0.28910  0.99867  0.19012  1.0000
  C   C328      1.0  0.07922  0.53994  0.01474  1.0000
  C   C329      1.0  0.10871  0.52354  0.06951  1.0000
  H   H253      1.0  0.12095  0.65009  0.36673  1.0000
  H   H254      1.0  0.03022  0.66762  0.11550  1.0000
  H   H255      1.0  0.06932  0.62742  0.12391  1.0000
  C   C330      1.0  0.34750  0.93210  0.37914  1.0000
  H   H256      1.0  0.03849  0.84248  0.50367  1.0000
  C   C331      1.0  0.17388  0.62813  0.27805  1.0000
  H   H257      1.0  0.18832  0.59779  0.15512  1.0000
  H   H258      1.0  0.12064  0.57170  0.39984  1.0000
  C   C332      1.0  0.32200  0.92248  0.23215  1.0000
  H   H259      1.0  0.24809  0.95978  0.24242  1.0000
  H   H260      1.0  0.11311  0.61207  0.09255  1.0000
  H   H261      1.0  0.10822  0.87470  0.05367  1.0000
  H   H262      1.0  0.34173  0.68703  0.39399  1.0000
  H   H263      1.0  0.21518  0.87878  0.19555  1.0000
  H   H264      1.0  0.17382  0.00145  0.48908  1.0000
  H   H265      1.0  0.31680  0.59129  0.50527  1.0000
  C   C333      1.0  0.18112  0.66004  0.33499  1.0000
  H   H266      1.0  0.18166  0.58960  0.30896  1.0000
  C   C334      1.0  0.20097  0.68541  0.33021  1.0000
  C   C335      1.0  0.13272  0.68303  0.29003  1.0000
  H   H267      1.0  0.07737  0.78664  0.01366  1.0000
  H   H268      1.0  0.25220  0.97893  0.13904  1.0000
  C   C336      1.0  0.32976  0.69369  0.44180  1.0000
  H   H269      1.0  0.17203  0.62025  0.36417  1.0000
  Fe  Fe23      1.0  0.23643  0.85985  0.01477  1.0000
  H   H270      1.0  0.14411  0.71476  0.32699  1.0000
  P   P10       1.0  0.15241  0.65009  0.30646  1.0000
  C   C337      1.0  0.32859  0.88284  0.27100  1.0000
  C   C338      1.0  0.12173  0.62658  0.32255  1.0000
  H   H271      1.0  0.32374  0.70572  0.48961  1.0000
  H   H272      1.0  0.02302  0.66931  0.18555  1.0000
  C   C339      1.0  0.08656  0.85949  0.18167  1.0000
  H   H273      1.0  0.06498  0.84916  0.18968  1.0000
  C   C340      1.0  0.11522  0.67934  0.26307  1.0000
  H   H274      1.0  0.17236  0.66298  0.24202  1.0000
  C   C341      1.0  0.20400  0.58230  0.26514  1.0000
  C   C342      1.0  0.03904  0.62668  0.20633  1.0000
  C   C343      1.0  0.31980  0.93056  0.36262  1.0000
  H   H275      1.0  0.21170  0.63350  0.40242  1.0000
  H   H276      1.0  0.14569  0.52769  0.45199  1.0000
  H   H277      1.0  0.12786  0.94851  0.02360  1.0000
  H   H278      1.0  0.21300  0.55982  0.27168  1.0000
  H   H279      1.0  0.11055  0.53616  0.15740  1.0000
  H   H280      1.0  0.10483  0.86560  0.22726  1.0000
  C   C344      1.0  0.33779  0.70891  0.46906  1.0000
  C   C345      1.0  0.18601  0.59916  0.28621  1.0000
  C   C346      1.0  0.18575  0.64094  0.36077  1.0000
  C   C347      1.0  0.19789  0.62301  0.22734  1.0000
  Fe  Fe24      1.0  0.32305  0.01097  0.22819  1.0000
  H   H281      1.0  0.06858  0.57252  0.30092  1.0000
  C   C348      1.0  0.09977  0.73320  0.26523  1.0000
  Fe  Fe25      1.0  0.04138  0.73269  0.14282  1.0000
  C   C349      1.0  0.08494  0.61600  0.36407  1.0000
  H   H282      1.0  0.01759  0.52501  0.20124  1.0000
  S   S53       1.0  0.20590  0.81946  0.02981  1.0000
  H   H283      1.0  0.12048  0.98769  0.50665  1.0000
  C   C350      1.0  0.34518  0.00416  0.03875  1.0000
  H   H284      1.0  0.33648  0.64497  0.50960  1.0000
  H   H285      1.0  0.12064  0.51705  0.09046  1.0000
  C   C351      1.0  0.34814  0.69828  0.41526  1.0000
  C   C352      1.0  0.10375  0.51875  0.01415  1.0000
  C   C353      1.0  0.13005  0.01023  0.51202  1.0000
  S   S54       1.0  0.18497  0.70331  0.55082  1.0000
  H   H286      1.0  0.05648  0.85480  0.61583  1.0000
  C   C354      1.0  0.30267  0.63688  0.82198  1.0000
  H   H287      1.0  0.11309  0.79569  0.55119  1.0000
  S   S55       1.0  0.26979  0.56912  0.55789  1.0000
  H   H288      1.0  0.16735  0.53711  0.85689  1.0000
  C   C355      1.0  0.10173  0.00052  0.89694  1.0000
  C   C356      1.0  0.07295  0.84773  0.53914  1.0000
  S   S56       1.0  0.04624  0.68754  0.60120  1.0000
  C   C357      1.0  0.12506  0.72536  0.71940  1.0000
  S   S57       1.0  0.04291  0.80204  0.70710  1.0000
  C   C358      1.0  0.24814  0.74935  0.61026  1.0000
  Fe  Fe26      1.0  0.29299  0.86798  0.97166  1.0000
  S   S58       1.0  0.29728  0.91869  0.98235  1.0000
  S   S59       1.0  0.31919  0.84134  0.93441  1.0000
  Fe  Fe27      1.0  0.24518  0.91996  0.97851  1.0000
  S   S60       1.0  0.21976  0.95873  0.95350  1.0000
  S   S61       1.0  0.24149  0.87039  0.96442  1.0000
  Fe  Fe28      1.0  0.09921  0.97352  0.73044  1.0000
  S   S62       1.0  0.15121  0.97514  0.73491  1.0000
  S   S63       1.0  0.07453  0.94565  0.69323  1.0000
  Fe  Fe29      1.0  0.14205  0.97533  0.78636  1.0000
  S   S64       1.0  0.16938  0.94175  0.81636  1.0000
  S   S65       1.0  0.09029  0.97037  0.78148  1.0000
  C   C359      1.0  0.20529  0.95344  0.91559  1.0000
  C   C360      1.0  0.18826  0.97736  0.90169  1.0000
  C   C361      1.0  0.17699  0.97431  0.87136  1.0000
  C   C362      1.0  0.18262  0.94712  0.85467  1.0000
  C   C363      1.0  0.19943  0.92312  0.86870  1.0000
  C   C364      1.0  0.21070  0.92620  0.89896  1.0000
  C   C365      1.0  0.19774  0.82533  0.54335  1.0000
  H   H289      1.0  0.16415  0.99299  0.86083  1.0000
  H   H290      1.0  0.20407  0.90212  0.85588  1.0000
  H   H291      1.0  0.22397  0.90769  0.90917  1.0000
  H   H292      1.0  0.08019  0.69990  0.66040  1.0000
  C   C366      1.0  0.05116  0.84206  0.70313  1.0000
  C   C367      1.0  0.32778  0.62518  0.91153  1.0000
  C   C368      1.0  0.04669  0.89113  0.67594  1.0000
  C   C369      1.0  0.06566  0.90580  0.69777  1.0000
  C   C370      1.0  0.07737  0.88843  0.72230  1.0000
  C   C371      1.0  0.07022  0.85669  0.72488  1.0000
  C   C372      1.0  0.24026  0.65763  0.69383  1.0000
  C   C373      1.0  0.18648  0.74720  0.63086  1.0000
  H   H293      1.0  0.09203  0.89944  0.73922  1.0000
  H   H294      1.0  0.07944  0.84343  0.74387  1.0000
  C   C374      1.0  0.14636  0.69861  0.56471  1.0000
  C   C375      1.0  0.13110  0.72368  0.57900  1.0000
  C   C376      1.0  0.10041  0.72076  0.59017  1.0000
  C   C377      1.0  0.08471  0.69260  0.58729  1.0000
  C   C378      1.0  0.09998  0.66750  0.57322  1.0000
  C   C379      1.0  0.13061  0.67047  0.56194  1.0000
  H   H295      1.0  0.14303  0.74547  0.58135  1.0000
  H   H296      1.0  0.08894  0.74016  0.60110  1.0000
  H   H297      1.0  0.08807  0.64558  0.57094  1.0000
  C   C380      1.0  0.04259  0.84502  0.52816  1.0000
  C   C381      1.0  0.28758  0.57325  0.59456  1.0000
  C   C382      1.0  0.29977  0.54681  0.60906  1.0000
  P   P11       1.0  0.24171  0.57847  0.77903  1.0000
  C   C383      1.0  0.31549  0.57726  0.65352  1.0000
  C   C384      1.0  0.30322  0.60372  0.63910  1.0000
  C   C385      1.0  0.28962  0.60182  0.60967  1.0000
  H   H298      1.0  0.32538  0.77484  0.94454  1.0000
  H   H299      1.0  0.22528  0.73432  0.70515  1.0000
  H   H300      1.0  0.28085  0.62246  0.59868  1.0000
  C   C386      1.0  0.31208  0.76088  0.96059  1.0000
  H   H301      1.0  0.07822  0.87994  0.97251  1.0000
  C   C387      1.0  0.07701  0.79352  0.98958  1.0000
  C   C388      1.0  0.09889  0.81471  0.97843  1.0000
  C   C389      1.0  0.09864  0.82415  0.94739  1.0000
  C   C390      1.0  0.07560  0.81235  0.92787  1.0000
  P   P12       1.0  0.12692  0.85230  0.93393  1.0000
  C   C391      1.0  0.12747  0.88297  0.96219  1.0000
  C   C392      1.0  0.16496  0.83463  0.93023  1.0000
  C   C393      1.0  0.18513  0.84353  0.90613  1.0000
  C   C394      1.0  0.21432  0.82969  0.90281  1.0000
  C   C395      1.0  0.22388  0.80712  0.92375  1.0000
  C   C396      1.0  0.20430  0.79857  0.94816  1.0000
  C   C397      1.0  0.17502  0.81228  0.95146  1.0000
  C   C398      1.0  0.09988  0.89156  0.97748  1.0000
  Fe  Fe30      1.0  0.24837  0.60676  0.52762  1.0000
  H   H302      1.0  0.13873  0.98384  0.59370  1.0000
  C   C399      1.0  0.13437  0.95920  0.59190  1.0000
  C   C400      1.0  0.15503  0.89885  0.96872  1.0000
  C   C401      1.0  0.11709  0.86830  0.89665  1.0000
  C   C402      1.0  0.11664  0.84894  0.87058  1.0000
  H   H303      1.0  0.02892  0.74187  0.54170  1.0000
  C   C403      1.0  0.13953  0.91084  0.56393  1.0000
  H   H304      1.0  0.30334  0.65031  0.84304  1.0000
  C   C404      1.0  0.11316  0.90037  0.89270  1.0000
  H   H305      1.0  0.18131  0.56664  0.81022  1.0000
  H   H306      1.0  0.06801  0.54650  0.99344  1.0000
  Fe  Fe31      1.0  0.20949  0.66533  0.52306  1.0000
  H   H307      1.0  0.11573  0.82412  0.99426  1.0000
  C   C405      1.0  0.05374  0.79108  0.93910  1.0000
  H   H308      1.0  0.17869  0.86159  0.89010  1.0000
  H   H309      1.0  0.22995  0.83725  0.88459  1.0000
  H   H310      1.0  0.24696  0.79726  0.92179  1.0000
  H   H311      1.0  0.21211  0.78205  0.96521  1.0000
  H   H312      1.0  0.16084  0.80575  0.97105  1.0000
  H   H313      1.0  0.10462  0.90296  0.81474  1.0000
  H   H314      1.0  0.14199  0.65097  0.55107  1.0000
  H   H315      1.0  0.31832  0.61498  0.89080  1.0000
  C   C406      1.0  0.21041  0.60323  0.76629  1.0000
  H   H316      1.0  0.17642  0.89325  0.95668  1.0000
  H   H317      1.0  0.12103  0.82437  0.87287  1.0000
  H   H318      1.0  0.28313  0.79921  0.97447  1.0000
  C   C407      1.0  0.21158  0.63549  0.77023  1.0000
  H   H319      1.0  0.08648  0.00860  0.85043  1.0000
  H   H320      1.0  0.11487  0.91617  0.91196  1.0000
  H   H321      1.0  0.23112  0.64644  0.78123  1.0000
  C   C408      1.0  0.22759  0.77302  0.60240  1.0000
  H   H322      1.0  0.13137  0.68458  0.63990  1.0000
  C   C409      1.0  0.19683  0.77202  0.61282  1.0000
  H   H323      1.0  0.10661  0.93745  0.85994  1.0000
  H   H324      1.0  0.16244  0.74687  0.63822  1.0000
  H   H325      1.0  0.18078  0.79019  0.60650  1.0000
  C   C410      1.0  0.15508  0.92239  0.99088  1.0000
  S   S66       1.0  0.02193  0.77652  0.62133  1.0000
  H   H326      1.0  0.26942  0.72826  0.74056  1.0000
  H   H327      1.0  0.12303  0.73748  0.74122  1.0000
  H   H328      1.0  0.30072  0.58931  0.74632  1.0000
  C   C411      1.0  0.18489  0.59011  0.75112  1.0000
  C   C412      1.0  0.23567  0.71168  0.70808  1.0000
  H   H329      1.0  0.07582  0.72686  0.71084  1.0000
  H   H330      1.0  0.03603  0.78210  0.92393  1.0000
  S   S67       1.0  0.19670  0.61501  0.52557  1.0000
  C   C413      1.0  0.33555  0.60617  0.93636  1.0000
  H   H331      1.0  0.30586  0.75865  0.84892  1.0000
  C   C414      1.0  0.14480  0.83319  0.56171  1.0000
  C   C415      1.0  0.17589  0.84288  0.55984  1.0000
  P   P13       1.0  0.11721  0.85388  0.58561  1.0000
  C   C416      1.0  0.12425  0.89506  0.58799  1.0000
  C   C417      1.0  0.07829  0.85053  0.57092  1.0000
  H   H332      1.0  0.29638  0.67764  0.74481  1.0000
  H   H333      1.0  0.11147  0.84640  0.82116  1.0000
  C   C418      1.0  0.32770  0.63802  0.80124  1.0000
  C   C419      1.0  0.33242  0.65720  0.91334  1.0000
  C   C420      1.0  0.28815  0.77482  0.97760  1.0000
  C   C421      1.0  0.11273  0.91202  0.61328  1.0000
  C   C422      1.0  0.10083  0.70426  0.67391  1.0000
  C   C423      1.0  0.24848  0.56209  0.71713  1.0000
  H   H334      1.0  0.14995  0.84419  0.69447  1.0000
  H   H335      1.0  0.32312  0.52826  0.64908  1.0000
  C   C424      1.0  0.11931  0.83528  0.62277  1.0000
  C   C425      1.0  0.13691  0.84802  0.64674  1.0000
  C   C426      1.0  0.13754  0.83356  0.67560  1.0000
  C   C427      1.0  0.12129  0.80596  0.68042  1.0000
  C   C428      1.0  0.10475  0.79257  0.65629  1.0000
  C   C429      1.0  0.10385  0.80708  0.62754  1.0000
  C   C430      1.0  0.32675  0.62083  0.77398  1.0000
  C   C431      1.0  0.05288  0.85187  0.59135  1.0000
  H   H336      1.0  0.14125  0.59859  0.72865  1.0000
  H   H337      1.0  0.09214  0.84759  0.52284  1.0000
  H   H338      1.0  0.15742  0.95473  0.54792  1.0000
  C   C432      1.0  0.25814  0.52090  0.75373  1.0000
  C   C433      1.0  0.03929  0.85946  0.67872  1.0000
  H   H339      1.0  0.18366  0.56530  0.74750  1.0000
  C   C434      1.0  0.11151  0.86131  0.84125  1.0000
  C   C435      1.0  0.14494  0.94273  0.56613  1.0000
  H   H340      1.0  0.09970  0.90074  0.63161  1.0000
  C   C436      1.0  0.09838  0.71933  0.70233  1.0000
  C   C437      1.0  0.27618  0.67995  0.73026  1.0000
  C   C438      1.0  0.15691  0.70123  0.67950  1.0000
  H   H341      1.0  0.33195  0.58137  0.93485  1.0000
  H   H342      1.0  0.14972  0.86933  0.64348  1.0000
  H   H343      1.0  0.09107  0.97788  0.89848  1.0000
  H   H344      1.0  0.12068  0.79540  0.70307  1.0000
  H   H345      1.0  0.09156  0.77158  0.66021  1.0000
  H   H346      1.0  0.09050  0.79663  0.60925  1.0000
  C   C439      1.0  0.10744  0.89316  0.83760  1.0000
  H   H347      1.0  0.18393  0.99835  0.91449  1.0000
  H   H348      1.0  0.22650  0.61638  0.58318  1.0000
  C   C440      1.0  0.31383  0.54879  0.63826  1.0000
  H   H349      1.0  0.15887  0.58386  0.64861  1.0000
  H   H350      1.0  0.25426  0.70653  0.63445  1.0000
  H   H351      1.0  0.10947  0.95660  0.63524  1.0000
  H   H352      1.0  0.18344  0.86365  0.57156  1.0000
  C   C441      1.0  0.25363  0.54262  0.83107  1.0000
  H   H353      1.0  0.24292  0.58592  0.71187  1.0000
  C   C442      1.0  0.10005  0.91511  0.99957  1.0000
  C   C443      1.0  0.19951  0.55545  0.82310  1.0000
  C   C444      1.0  0.16086  0.60888  0.74033  1.0000
  C   C445      1.0  0.23073  0.55759  0.81362  1.0000
  H   H354      1.0  0.14721  0.89863  0.54345  1.0000
  C   C446      1.0  0.26096  0.70842  0.72787  1.0000
  C   C447      1.0  0.32526  0.73773  0.88958  1.0000
  C   C448      1.0  0.16211  0.64091  0.74452  1.0000
  C   C449      1.0  0.18748  0.65420  0.75941  1.0000
  C   C450      1.0  0.15424  0.71640  0.70807  1.0000
  H   H355      1.0  0.23547  0.79196  0.58801  1.0000
  C   C451      1.0  0.12768  0.93043  0.00635  1.0000
  H   H356      1.0  0.27869  0.63301  0.71365  1.0000
  H   H357      1.0  0.22422  0.66825  0.60567  1.0000
  H   H358      1.0  0.22164  0.83300  0.54172  1.0000
  C   C452      1.0  0.12993  0.69541  0.66244  1.0000
  C   C453      1.0  0.27553  0.60148  0.78789  1.0000
  C   C454      1.0  0.11803  0.94388  0.61532  1.0000
  H   H359      1.0  0.19363  0.57423  0.60351  1.0000
  C   C455      1.0  0.30081  0.60265  0.76738  1.0000
  H   H360      1.0  0.14341  0.65539  0.73617  1.0000
  C   C456      1.0  0.26601  0.65469  0.71300  1.0000
  C   C457      1.0  0.25004  0.55181  0.74785  1.0000
  H   H361      1.0  0.25749  0.61784  0.83170  1.0000
  H   H362      1.0  0.07393  0.81974  0.90417  1.0000
  H   H363      1.0  0.25380  0.54996  0.66916  1.0000
  H   H364      1.0  0.17449  0.72171  0.72151  1.0000
  H   H365      1.0  0.20606  0.78319  0.51771  1.0000
  H   H366      1.0  0.15827  0.63517  0.67369  1.0000
  S   S68       1.0  0.33169  0.58076  0.69091  1.0000
  H   H367      1.0  0.23349  0.63775  0.68030  1.0000
  H   H368      1.0  0.30450  0.62588  0.65063  1.0000
  H   H369      1.0  0.27191  0.74994  0.60188  1.0000
  C   C458      1.0  0.27673  0.61854  0.81545  1.0000
  C   C459      1.0  0.21102  0.62080  0.60243  1.0000
  C   C460      1.0  0.19262  0.59693  0.61416  1.0000
  C   C461      1.0  0.17318  0.60239  0.63953  1.0000
  C   C462      1.0  0.17261  0.63163  0.65340  1.0000
  C   C463      1.0  0.19088  0.65589  0.64145  1.0000
  C   C464      1.0  0.20988  0.65026  0.61561  1.0000
  P   P14       1.0  0.19441  0.69147  0.66304  1.0000
  C   C465      1.0  0.22474  0.68619  0.69123  1.0000
  C   C466      1.0  0.20693  0.72314  0.63869  1.0000
  C   C467      1.0  0.23797  0.72465  0.62855  1.0000
  C   C468      1.0  0.25462  0.54174  0.69278  1.0000
  C   C469      1.0  0.05450  0.78160  0.96991  1.0000
  H   H370      1.0  0.18857  0.67906  0.76245  1.0000
  C   C470      1.0  0.10835  0.91265  0.86325  1.0000
  H   H371      1.0  0.30648  0.68789  0.98996  1.0000
  C   C471      1.0  0.11783  0.01255  0.92206  1.0000
  H   H372      1.0  0.30292  0.73602  0.90108  1.0000
  H   H373      1.0  0.27783  0.54338  0.82394  1.0000
  C   C472      1.0  0.19144  0.53871  0.84964  1.0000
  C   C473      1.0  0.21438  0.52390  0.86681  1.0000
  C   C474      1.0  0.31889  0.72933  0.96439  1.0000
  S   S69       1.0  0.26124  0.65722  0.52794  1.0000
  H   H374      1.0  0.34620  0.62132  0.75786  1.0000
  C   C475      1.0  0.18902  0.79736  0.52972  1.0000
  C   C476      1.0  0.15841  0.78705  0.53237  1.0000
  H   H375      1.0  0.11991  0.99905  0.94300  1.0000
  C   C477      1.0  0.32678  0.75034  0.85988  1.0000
  C   C478      1.0  0.13641  0.80474  0.54846  1.0000
  H   H376      1.0  0.03753  0.90439  0.65692  1.0000
  H   H377      1.0  0.17645  0.93438  0.99608  1.0000
  C   C479      1.0  0.01745  0.84560  0.54878  1.0000
  C   C480      1.0  0.02261  0.84923  0.58033  1.0000
  H   H378      1.0  0.29841  0.52464  0.59756  1.0000
  C   C481      1.0  0.27097  0.75750  0.99888  1.0000
  C   C482      1.0  0.30162  0.71209  0.98604  1.0000
  H   H379      1.0  0.32633  0.67148  0.89382  1.0000
  C   C483      1.0  0.24542  0.52588  0.85751  1.0000
  C   C484      1.0  0.27770  0.72614  0.00310  1.0000
  H   H380      1.0  0.03751  0.76524  0.97866  1.0000
  H   H381      1.0  0.15202  0.76476  0.52272  1.0000
  H   H382      1.0  0.02435  0.84846  0.66206  1.0000
  Fe  Fe32      1.0  0.01727  0.72487  0.62474  1.0000
  H   H383      1.0  0.01774  0.68581  0.54049  1.0000
  C   C485      1.0  0.34478  0.67047  0.94016  1.0000
  H   H384      1.0  0.07881  0.92122  0.01167  1.0000
  H   H385      1.0  0.34789  0.65210  0.80623  1.0000
  H   H386      1.0  0.33940  0.51547  0.97364  1.0000
  H   H387      1.0  0.26310  0.51412  0.87072  1.0000
  C   C486      1.0  0.34784  0.61916  0.96312  1.0000
  Fe  Fe33      1.0  0.64080  0.49248  0.28672  1.0000
  S   S70       1.0  0.59098  0.48710  0.30108  1.0000
  C   C487      1.0  0.51060  0.47700  0.30715  1.0000
  Fe  Fe34      1.0  0.58087  0.48538  0.25018  1.0000
  S   S71       1.0  0.54105  0.45635  0.23076  1.0000
  S   S72       1.0  0.63134  0.48704  0.23569  1.0000
  Fe  Fe35      1.0  0.49944  0.28950  0.15820  1.0000
  S   S73       1.0  0.50263  0.29123  0.10646  1.0000
  S   S74       1.0  0.53456  0.31490  0.18843  1.0000
  Fe  Fe36      1.0  0.44848  0.23978  0.15648  1.0000
  S   S75       1.0  0.44816  0.23816  0.10464  1.0000
  S   S76       1.0  0.41275  0.21350  0.18541  1.0000
  Fe  Fe37      1.0  0.50041  0.23932  0.10818  1.0000
  S   S77       1.0  0.52845  0.20863  0.07542  1.0000
  Fe  Fe38      1.0  0.45019  0.29006  0.10694  1.0000
  S   S78       1.0  0.42575  0.32319  0.07383  1.0000
  S   S79       1.0  0.50049  0.23711  0.15997  1.0000
  S   S80       1.0  0.44730  0.29212  0.15883  1.0000
  Fe  Fe39      1.0  0.38058  0.04628  0.24801  1.0000
  H   H388      1.0  0.58944  0.32619  0.46985  1.0000
  S   S81       1.0  0.42169  0.07199  0.22677  1.0000
  H   H389      1.0  0.39211  0.33387  0.19800  1.0000
  H   H390      1.0  0.51842  0.08349  0.18280  1.0000
  C   C488      1.0  0.62888  0.27503  0.47314  1.0000
  C   C489      1.0  0.63578  0.34097  0.45641  1.0000
  C   C490      1.0  0.61646  0.24275  0.18846  1.0000
  H   H391      1.0  0.58524  0.40634  0.28930  1.0000
  C   C491      1.0  0.41533  0.17380  0.19569  1.0000
  C   C492      1.0  0.39309  0.16139  0.21614  1.0000
  C   C493      1.0  0.39456  0.13020  0.22551  1.0000
  C   C494      1.0  0.41830  0.11100  0.21443  1.0000
  C   C495      1.0  0.44024  0.12320  0.19351  1.0000
  C   C496      1.0  0.43875  0.15445  0.18410  1.0000
  H   H392      1.0  0.37485  0.17613  0.22516  1.0000
  H   H393      1.0  0.37760  0.12114  0.24169  1.0000
  H   H394      1.0  0.45837  0.10836  0.18451  1.0000
  H   H395      1.0  0.45569  0.16363  0.16797  1.0000
  C   C497      1.0  0.38568  0.32439  0.06439  1.0000
  C   C498      1.0  0.37550  0.34583  0.04219  1.0000
  C   C499      1.0  0.62216  0.28222  0.50408  1.0000
  H   H396      1.0  0.66544  0.23271  0.18870  1.0000
  H   H397      1.0  0.51532  0.43048  0.29105  1.0000
  C   C500      1.0  0.36382  0.30494  0.07849  1.0000
  C   C501      1.0  0.62851  0.31277  0.38968  1.0000
  C   C502      1.0  0.55608  0.12333  0.01749  1.0000
  C   C503      1.0  0.40689  0.02295  0.12538  1.0000
  H   H398      1.0  0.37128  0.28836  0.09560  1.0000
  C   C504      1.0  0.56911  0.20346  0.07839  1.0000
  C   C505      1.0  0.58469  0.20909  0.10597  1.0000
  C   C506      1.0  0.61679  0.20329  0.10797  1.0000
  C   C507      1.0  0.63367  0.19188  0.08253  1.0000
  C   C508      1.0  0.61807  0.18603  0.05500  1.0000
  C   C509      1.0  0.58593  0.19180  0.05298  1.0000
  H   H399      1.0  0.57198  0.21768  0.12581  1.0000
  C   C510      1.0  0.60471  0.34563  0.46553  1.0000
  H   H400      1.0  0.50869  0.34124  0.45675  1.0000
  H   H401      1.0  0.55352  0.26606  0.04748  1.0000
  C   C511      1.0  0.35680  0.02323  0.47266  1.0000
  C   C512      1.0  0.54028  0.41719  0.21827  1.0000
  C   C513      1.0  0.51288  0.40551  0.20520  1.0000
  C   C514      1.0  0.51096  0.37450  0.19522  1.0000
  C   C515      1.0  0.53640  0.35472  0.19849  1.0000
  C   C516      1.0  0.56375  0.36633  0.21177  1.0000
  C   C517      1.0  0.56577  0.39743  0.22146  1.0000
  H   H402      1.0  0.49298  0.42056  0.20286  1.0000
  H   H403      1.0  0.48965  0.36572  0.18557  1.0000
  H   H404      1.0  0.58341  0.35109  0.21476  1.0000
  H   H405      1.0  0.58694  0.40610  0.23151  1.0000
  P   P15       1.0  0.65037  0.30238  0.44951  1.0000
  C   C518      1.0  0.67079  0.27188  0.06615  1.0000
  H   H406      1.0  0.55522  0.05833  0.14680  1.0000
  C   C519      1.0  0.59746  0.02184  0.11521  1.0000
  H   H407      1.0  0.55488  0.01766  0.48917  1.0000
  C   C520      1.0  0.37467  0.40110  0.22678  1.0000
  H   H408      1.0  0.62384  0.39399  0.18459  1.0000
  H   H409      1.0  0.61656  0.34116  0.16462  1.0000
  C   C521      1.0  0.54521  0.34950  0.29619  1.0000
  H   H410      1.0  0.55080  0.44936  0.38195  1.0000
  C   C522      1.0  0.52392  0.12873  0.16274  1.0000
  C   C523      1.0  0.65466  0.36674  0.45035  1.0000
  C   C524      1.0  0.52996  0.09702  0.16502  1.0000
  C   C525      1.0  0.36974  0.29116  0.18629  1.0000
  H   H411      1.0  0.45083  0.11670  0.49076  1.0000
  C   C526      1.0  0.35037  0.39623  0.20590  1.0000
  H   H412      1.0  0.61373  0.32194  0.34316  1.0000
  C   C527      1.0  0.58857  0.10003  0.05681  1.0000
  C   C528      1.0  0.39779  0.39246  0.15602  1.0000
  C   C529      1.0  0.41640  0.37077  0.14042  1.0000
  C   C530      1.0  0.44703  0.37805  0.13234  1.0000
  C   C531      1.0  0.45921  0.40712  0.13948  1.0000
  C   C532      1.0  0.44057  0.42916  0.15428  1.0000
  C   C533      1.0  0.40984  0.42202  0.16221  1.0000
  C   C534      1.0  0.53203  0.43521  0.33799  1.0000
  H   H413      1.0  0.50119  0.48512  0.28548  1.0000
  C   C535      1.0  0.61775  0.24708  0.46085  1.0000
  C   C536      1.0  0.38147  0.04287  0.47970  1.0000
  H   H414      1.0  0.39859  0.39698  0.22005  1.0000
  C   C537      1.0  0.40303  0.13101  0.49322  1.0000
  H   H415      1.0  0.38594  0.27701  0.19916  1.0000
  C   C538      1.0  0.55949  0.13216  0.11940  1.0000
  C   C539      1.0  0.64709  0.24608  0.17816  1.0000
  H   H416      1.0  0.42985  0.05285  0.47222  1.0000
  C   C540      1.0  0.61397  0.10148  0.03635  1.0000
  H   H417      1.0  0.59934  0.26310  0.08088  1.0000
  H   H418      1.0  0.67577  0.40011  0.32912  1.0000
  H   H419      1.0  0.40734  0.34827  0.13417  1.0000
  H   H420      1.0  0.46130  0.36108  0.12041  1.0000
  C   C541      1.0  0.43025  0.11834  0.50516  1.0000
  C   C542      1.0  0.59356  0.23435  0.50996  1.0000
  H   H421      1.0  0.39560  0.43942  0.17342  1.0000
  C   C543      1.0  0.53677  0.33675  0.41560  1.0000
  C   C544      1.0  0.51542  0.35170  0.43495  1.0000
  C   C545      1.0  0.65962  0.26170  0.36455  1.0000
  H   H422      1.0  0.61035  0.03113  0.13447  1.0000
  C   C546      1.0  0.53300  0.37887  0.37859  1.0000
  C   C547      1.0  0.54531  0.35012  0.38740  1.0000
  P   P16       1.0  0.54427  0.39539  0.34191  1.0000
  H   H423      1.0  0.47562  0.15369  0.09536  1.0000
  C   C548      1.0  0.58599  0.39666  0.33829  1.0000
  C   C549      1.0  0.59960  0.40222  0.30930  1.0000
  C   C550      1.0  0.63741  0.39468  0.36090  1.0000
  C   C551      1.0  0.60510  0.39379  0.36428  1.0000
  C   C552      1.0  0.59280  0.25968  0.17452  1.0000
  H   H424      1.0  0.44309  0.01617  0.31980  1.0000
  H   H425      1.0  0.64841  0.26323  0.05925  1.0000
  H   H426      1.0  0.65222  0.39307  0.38093  1.0000
  C   C553      1.0  0.37713  0.06042  0.04263  1.0000
  H   H427      1.0  0.38137  0.12146  0.09443  1.0000
  C   C554      1.0  0.58604  0.04162  0.09222  1.0000
  H   H428      1.0  0.54651  0.31464  0.42235  1.0000
  C   C555      1.0  0.52714  0.37100  0.31277  1.0000
  C   C556      1.0  0.51087  0.39333  0.39771  1.0000
  C   C557      1.0  0.44812  0.08010  0.10368  1.0000
  H   H429      1.0  0.56148  0.33806  0.37238  1.0000
  C   C558      1.0  0.66425  0.36956  0.10805  1.0000
  H   H430      1.0  0.59530  0.39147  0.38722  1.0000
  C   C559      1.0  0.50000  0.33364  0.26736  1.0000
  C   C560      1.0  0.36205  0.09147  0.15283  1.0000
  H   H431      1.0  0.49405  0.09996  0.10357  1.0000
  H   H432      1.0  0.48063  0.38861  0.32021  1.0000
  S   S82       1.0  0.67418  0.18601  0.08627  1.0000
  C   C561      1.0  0.63954  0.11659  0.12399  1.0000
  C   C562      1.0  0.53165  0.33102  0.27351  1.0000
  C   C563      1.0  0.63034  0.28325  0.13955  1.0000
  C   C564      1.0  0.60025  0.22682  0.47925  1.0000
  H   H433      1.0  0.64101  0.27646  0.32097  1.0000
  H   H434      1.0  0.53929  0.10921  0.06197  1.0000
  S   S83       1.0  0.37568  0.03283  0.29831  1.0000
  C   C565      1.0  0.35681  0.06807  0.13092  1.0000
  C   C566      1.0  0.48167  0.35428  0.28437  1.0000
  C   C567      1.0  0.61209  0.40114  0.46338  1.0000
  C   C568      1.0  0.63188  0.40298  0.30601  1.0000
  C   C569      1.0  0.65381  0.40826  0.14726  1.0000
  H   H435      1.0  0.54578  0.31518  0.25997  1.0000
  C   C570      1.0  0.55407  0.31585  0.04483  1.0000
  H   H436      1.0  0.65748  0.41641  0.44914  1.0000
  C   C571      1.0  0.41610  0.08592  0.10150  1.0000
  H   H437      1.0  0.56927  0.37906  0.47683  1.0000
  C   C572      1.0  0.64223  0.28108  0.34551  1.0000
  P   P17       1.0  0.35838  0.38311  0.16704  1.0000
  H   H438      1.0  0.38488  0.10152  0.15566  1.0000
  H   H439      1.0  0.41932  0.16426  0.09091  1.0000
  H   H440      1.0  0.45670  0.05692  0.10766  1.0000
  H   H441      1.0  0.45714  0.35624  0.27954  1.0000
  H   H442      1.0  0.39222  0.36097  0.03115  1.0000
  H   H443      1.0  0.60599  0.36268  0.08014  1.0000
  C   C573      1.0  0.56932  0.02902  0.06756  1.0000
  C   C574      1.0  0.64607  0.29348  0.40898  1.0000
  C   C575      1.0  0.53855  0.14625  0.13980  1.0000
  H   H444      1.0  0.56979  0.34705  0.30037  1.0000
  H   H445      1.0  0.40224  0.13882  0.46948  1.0000
  H   H446      1.0  0.58094  0.29309  0.14000  1.0000
  H   H447      1.0  0.61660  0.33286  0.39879  1.0000
  H   H448      1.0  0.35557  0.14365  0.50275  1.0000
  H   H449      1.0  0.48536  0.39118  0.44068  1.0000
  C   C576      1.0  0.42733  0.14067  0.09412  1.0000
  C   C577      1.0  0.35304  0.34162  0.16785  1.0000
  C   C578      1.0  0.59522  0.34132  0.07293  1.0000
  H   H450      1.0  0.36027  0.08064  0.41375  1.0000
  H   H451      1.0  0.48311  0.41250  0.13357  1.0000
  H   H452      1.0  0.60326  0.42445  0.46639  1.0000
  C   C579      1.0  0.63543  0.38701  0.16342  1.0000
  C   C580      1.0  0.66164  0.26791  0.39613  1.0000
  P   P18       1.0  0.38814  0.05485  0.10604  1.0000
  H   H453      1.0  0.56903  0.25721  0.18253  1.0000
  H   H454      1.0  0.61098  0.22696  0.20713  1.0000
  H   H455      1.0  0.50794  0.13978  0.17876  1.0000
  H   H456      1.0  0.53371  0.17081  0.13777  1.0000
  C   C581      1.0  0.35690  0.01410  0.06702  1.0000
  H   H457      1.0  0.57090  0.14600  0.10194  1.0000
  C   C582      1.0  0.51661  0.49801  0.33084  1.0000
  C   C583      1.0  0.65075  0.39877  0.33171  1.0000
  C   C584      1.0  0.66721  0.48155  0.36976  1.0000
  C   C585      1.0  0.59302  0.37562  0.46920  1.0000
  C   C586      1.0  0.59965  0.27993  0.15022  1.0000
  C   C587      1.0  0.59138  0.28546  0.07320  1.0000
  C   C588      1.0  0.65404  0.26621  0.15379  1.0000
  H   H458      1.0  0.63078  0.17716  0.03526  1.0000
  P   P19       1.0  0.59293  0.08278  0.09455  1.0000
  H   H459      1.0  0.56026  0.04371  0.04953  1.0000
  H   H460      1.0  0.37749  0.06276  0.49452  1.0000
  H   H461      1.0  0.67188  0.24205  0.35476  1.0000
  C   C589      1.0  0.63222  0.08974  0.10731  1.0000
  H   H462      1.0  0.45008  0.45173  0.15968  1.0000
  C   C590      1.0  0.51855  0.44580  0.31053  1.0000
  P   P20       1.0  0.63937  0.30981  0.10853  1.0000
  C   C591      1.0  0.56584  0.10040  0.12147  1.0000
  C   C592      1.0  0.55086  0.08284  0.14449  1.0000
  H   H463      1.0  0.48988  0.31988  0.24908  1.0000
  H   H464      1.0  0.38715  0.41562  0.27257  1.0000
  H   H465      1.0  0.62862  0.20748  0.12939  1.0000
  C   C593      1.0  0.53870  0.45664  0.36140  1.0000
  C   C594      1.0  0.63151  0.35697  0.15205  1.0000
  C   C595      1.0  0.62673  0.30663  0.35806  1.0000
  C   C596      1.0  0.41085  0.03740  0.46690  1.0000
  H   H466      1.0  0.65148  0.04877  0.08535  1.0000
  H   H467      1.0  0.67568  0.25300  0.41053  1.0000
  C   C597      1.0  0.60665  0.31245  0.08268  1.0000
  H   H468      1.0  0.49995  0.41479  0.39085  1.0000
  C   C598      1.0  0.56539  0.28711  0.05423  1.0000
  C   C599      1.0  0.49510  0.37267  0.30724  1.0000
  H   H469      1.0  0.57404  0.18725  0.03160  1.0000
  C   C600      1.0  0.45908  0.13474  0.09674  1.0000
  C   C601      1.0  0.55941  0.11052  0.04691  1.0000
  H   H470      1.0  0.65657  0.43161  0.15604  1.0000
  C   C602      1.0  0.53086  0.48788  0.35786  1.0000
  C   C603      1.0  0.65617  0.06901  0.09925  1.0000
  C   C604      1.0  0.50235  0.37988  0.42592  1.0000
  C   C605      1.0  0.40592  0.11638  0.09621  1.0000
  C   C606      1.0  0.37321  0.32334  0.18545  1.0000
  C   C607      1.0  0.64617  0.34790  0.12441  1.0000
  C   C608      1.0  0.36827  0.41139  0.25676  1.0000
  H   H471      1.0  0.64237  0.40788  0.28371  1.0000
  H   H472      1.0  0.65711  0.49215  0.41748  1.0000
  H   H473      1.0  0.63652  0.09303  0.04304  1.0000
  C   C609      1.0  0.46946  0.10445  0.10137  1.0000
  H   H474      1.0  0.40550  0.04516  0.17002  1.0000
  H   H475      1.0  0.53701  0.50460  0.37539  1.0000
  C   C610      1.0  0.56900  0.34295  0.05415  1.0000
  H   H476      1.0  0.64814  0.49513  0.36094  1.0000
  H   H477      1.0  0.38943  0.08222  0.04356  1.0000
  H   H478      1.0  0.53337  0.31708  0.03084  1.0000
  H   H479      1.0  0.62203  0.13369  0.12946  1.0000
  H   H480      1.0  0.62227  0.24080  0.43713  1.0000
  C   C611      1.0  0.37297  0.04232  0.06926  1.0000
  H   H481      1.0  0.55993  0.36526  0.04726  1.0000
  H   H482      1.0  0.67575  0.14350  0.14497  1.0000
  H   H483      1.0  0.59175  0.20529  0.46971  1.0000
  C   C612      1.0  0.41283  0.02504  0.15702  1.0000
  C   C613      1.0  0.64278  0.39664  0.45380  1.0000
  C   C614      1.0  0.67231  0.47974  0.40180  1.0000
  C   C615      1.0  0.66820  0.39955  0.11957  1.0000
  H   H484      1.0  0.67486  0.36344  0.08615  1.0000
  C   C616      1.0  0.67010  0.12226  0.13296  1.0000
  C   C617      1.0  0.67352  0.29522  0.08854  1.0000
  H   H485      1.0  0.67788  0.26813  0.14602  1.0000
  H   H486      1.0  0.67850  0.36388  0.44277  1.0000
  C   C618      1.0  0.36538  0.05040  0.01431  1.0000
  S   S84       1.0  0.68179  0.46787  0.30871  1.0000
  C   C619      1.0  0.37665  0.13369  0.51195  1.0000
  C   C620      1.0  0.34940  0.02230  0.01238  1.0000
  H   H487      1.0  0.34894  0.06757  0.35912  1.0000
  Fe  Fe40      1.0  0.65535  0.01950  0.79102  1.0000
  H   H488      1.0  0.63813  0.10548  0.90085  1.0000
  C   C621      1.0  0.42033  0.03776  0.56713  1.0000
  Fe  Fe41      1.0  0.60684  0.03597  0.74186  1.0000
  S   S85       1.0  0.57060  0.07015  0.72375  1.0000
  H   H489      1.0  0.67197  0.41898  0.58221  1.0000
  Fe  Fe42      1.0  0.39572  0.48315  0.71795  1.0000
  C   C622      1.0  0.59246  0.12554  0.84890  1.0000
  S   S86       1.0  0.42041  0.45081  0.68412  1.0000
  H   H490      1.0  0.64021  0.07202  0.85404  1.0000
  C   C623      1.0  0.40425  0.11018  0.55456  1.0000
  S   S87       1.0  0.39707  0.48134  0.76956  1.0000
  Fe  Fe43      1.0  0.54762  0.23844  0.65080  1.0000
  S   S88       1.0  0.53987  0.24372  0.59977  1.0000
  S   S89       1.0  0.58568  0.20678  0.66920  1.0000
  Fe  Fe44      1.0  0.50316  0.29149  0.66645  1.0000
  S   S90       1.0  0.49215  0.30044  0.61690  1.0000
  S   S91       1.0  0.48338  0.31914  0.70682  1.0000
  Fe  Fe45      1.0  0.48916  0.24876  0.61222  1.0000
  S   S92       1.0  0.45578  0.22768  0.57751  1.0000
  Fe  Fe46      1.0  0.54329  0.29483  0.60785  1.0000
  S   S93       1.0  0.56471  0.32847  0.57327  1.0000
  S   S94       1.0  0.49666  0.23961  0.66290  1.0000
  S   S95       1.0  0.55473  0.28974  0.65804  1.0000
  H   H491      1.0  0.58095  0.02400  0.53963  1.0000
  C   C624      1.0  0.65781  0.31774  0.58375  1.0000
  C   C625      1.0  0.62552  0.31453  0.58750  1.0000
  C   C626      1.0  0.60539  0.33342  0.57081  1.0000
  C   C627      1.0  0.61782  0.35595  0.55082  1.0000
  C   C628      1.0  0.65018  0.35919  0.54709  1.0000
  H   H492      1.0  0.46901  0.17359  0.67631  1.0000
  H   H493      1.0  0.61621  0.29701  0.60282  1.0000
  C   C629      1.0  0.56159  0.08051  0.83622  1.0000
  C   C630      1.0  0.41785  0.28799  0.67369  1.0000
  C   C631      1.0  0.35226  0.30230  0.55160  1.0000
  C   C632      1.0  0.37084  0.20650  0.61470  1.0000
  C   C633      1.0  0.40190  0.21650  0.61173  1.0000
  C   C634      1.0  0.41646  0.21655  0.58276  1.0000
  C   C635      1.0  0.39954  0.20700  0.55686  1.0000
  C   C636      1.0  0.36845  0.19734  0.55982  1.0000
  H   H494      1.0  0.60237  0.37065  0.53783  1.0000
  H   H495      1.0  0.41466  0.22367  0.63186  1.0000
  C   C637      1.0  0.42954  0.43563  0.81963  1.0000
  H   H496      1.0  0.57985  0.21879  0.52422  1.0000
  C   C638      1.0  0.43663  0.41381  0.69143  1.0000
  C   C639      1.0  0.44904  0.39707  0.66647  1.0000
  C   C640      1.0  0.46303  0.36800  0.67087  1.0000
  C   C641      1.0  0.46494  0.35532  0.70042  1.0000
  C   C642      1.0  0.45231  0.37193  0.72551  1.0000
  C   C643      1.0  0.43813  0.40105  0.72105  1.0000
  H   H497      1.0  0.44803  0.40677  0.64353  1.0000
  H   H498      1.0  0.47261  0.35560  0.65137  1.0000
  H   H499      1.0  0.45356  0.36226  0.74846  1.0000
  H   H500      1.0  0.42857  0.41368  0.74046  1.0000
  C   C644      1.0  0.57545  0.10757  0.70733  1.0000
  C   C645      1.0  0.54891  0.12509  0.70012  1.0000
  C   C646      1.0  0.55158  0.15519  0.68774  1.0000
  C   C647      1.0  0.58091  0.16812  0.68245  1.0000
  C   C648      1.0  0.60743  0.15051  0.68943  1.0000
  C   C649      1.0  0.60475  0.12042  0.70181  1.0000
  H   H501      1.0  0.52613  0.11536  0.70429  1.0000
  H   H502      1.0  0.53099  0.16848  0.68263  1.0000
  H   H503      1.0  0.63019  0.16024  0.68528  1.0000
  H   H504      1.0  0.62530  0.10709  0.70696  1.0000
  H   H505      1.0  0.38042  0.46236  0.87514  1.0000
  C   C650      1.0  0.38315  0.45190  0.95786  1.0000
  C   C651      1.0  0.56327  0.08847  0.80503  1.0000
  H   H506      1.0  0.36866  0.06444  0.99384  1.0000
  C   C652      1.0  0.64859  0.29721  0.66660  1.0000
  H   H507      1.0  0.48150  0.01740  0.62910  1.0000
  H   H508      1.0  0.63034  0.30363  0.51408  1.0000
  C   C653      1.0  0.47462  0.50372  0.93519  1.0000
  H   H509      1.0  0.41404  0.28507  0.56465  1.0000
  C   C654      1.0  0.66021  0.07392  0.86882  1.0000
  C   C655      1.0  0.54871  0.49612  0.72314  1.0000
  H   H510      1.0  0.63045  0.11566  0.99147  1.0000
  H   H511      1.0  0.44839  0.14692  0.58364  1.0000
  H   H512      1.0  0.35668  0.12636  0.55667  1.0000
  C   C656      1.0  0.64214  0.44728  0.69001  1.0000
  H   H513      1.0  0.45211  0.09808  0.54466  1.0000
  H   H514      1.0  0.45269  0.06635  0.63284  1.0000
  H   H515      1.0  0.39465  0.39037  0.63463  1.0000
  H   H516      1.0  0.57477  0.09298  0.88238  1.0000
  C   C657      1.0  0.60450  0.26206  0.52233  1.0000
  H   H517      1.0  0.43095  0.41774  0.80213  1.0000
  H   H518      1.0  0.35982  0.20624  0.63720  1.0000
  H   H519      1.0  0.63041  0.27988  0.66494  1.0000
  C   C658      1.0  0.36026  0.47035  0.97156  1.0000
  H   H520      1.0  0.57341  0.49676  0.71839  1.0000
  H   H521      1.0  0.54921  0.05983  0.84330  1.0000
  C   C659      1.0  0.60982  0.44405  0.69028  1.0000
  C   C660      1.0  0.59395  0.43635  0.71773  1.0000
  C   C661      1.0  0.61087  0.43298  0.74506  1.0000
  P   P21       1.0  0.55220  0.43152  0.71747  1.0000
  C   C662      1.0  0.53243  0.46796  0.72317  1.0000
  C   C663      1.0  0.54275  0.41452  0.68064  1.0000
  C   C664      1.0  0.55976  0.38884  0.67002  1.0000
  C   C665      1.0  0.55421  0.37646  0.64084  1.0000
  C   C666      1.0  0.53186  0.38975  0.62185  1.0000
  C   C667      1.0  0.51513  0.41558  0.63201  1.0000
  C   C668      1.0  0.52039  0.42788  0.66137  1.0000
  H   H522      1.0  0.67326  0.30275  0.59643  1.0000
  H   H523      1.0  0.35716  0.35286  0.66102  1.0000
  C   C669      1.0  0.37727  0.12351  0.54254  1.0000
  H   H524      1.0  0.38491  0.42766  0.96412  1.0000
  C   C670      1.0  0.50037  0.46798  0.72932  1.0000
  C   C671      1.0  0.53983  0.40671  0.74891  1.0000
  C   C672      1.0  0.53616  0.41926  0.77866  1.0000
  C   C673      1.0  0.52549  0.40081  0.80306  1.0000
  C   C674      1.0  0.51847  0.36967  0.79799  1.0000
  C   C675      1.0  0.52213  0.35700  0.76855  1.0000
  C   C676      1.0  0.53261  0.37541  0.74406  1.0000
  C   C677      1.0  0.42530  0.48264  0.86433  1.0000
  C   C678      1.0  0.38984  0.32161  0.63869  1.0000
  H   H525      1.0  0.59727  0.44730  0.66896  1.0000
  H   H526      1.0  0.59929  0.42739  0.76658  1.0000
  H   H527      1.0  0.57735  0.37837  0.68431  1.0000
  H   H528      1.0  0.56728  0.35656  0.63285  1.0000
  H   H529      1.0  0.52752  0.37990  0.59931  1.0000
  H   H530      1.0  0.49767  0.42581  0.61735  1.0000
  H   H531      1.0  0.50683  0.44767  0.66875  1.0000
  C   C679      1.0  0.35408  0.19657  0.58880  1.0000
  H   H532      1.0  0.49722  0.33104  0.53509  1.0000
  C   C680      1.0  0.38184  0.32590  0.69413  1.0000
  H   H533      1.0  0.35889  0.13621  0.62144  1.0000
  H   H534      1.0  0.48727  0.44655  0.72914  1.0000
  H   H535      1.0  0.54120  0.44344  0.78292  1.0000
  C   C681      1.0  0.45320  0.45761  0.82210  1.0000
  H   H536      1.0  0.50983  0.35539  0.81674  1.0000
  H   H537      1.0  0.51605  0.33301  0.76438  1.0000
  H   H538      1.0  0.53410  0.36509  0.72139  1.0000
  C   C682      1.0  0.64089  0.32836  0.67079  1.0000
  C   C683      1.0  0.40324  0.43778  0.83860  1.0000
  H   H539      1.0  0.46938  0.49811  0.84534  1.0000
  C   C684      1.0  0.64317  0.43663  0.74477  1.0000
  C   C685      1.0  0.36515  0.08872  0.60654  1.0000
  H   H540      1.0  0.43193  0.13438  0.69636  1.0000
  H   H541      1.0  0.40349  0.10067  0.66032  1.0000
  C   C686      1.0  0.35449  0.30597  0.58372  1.0000
  C   C687      1.0  0.67971  0.28843  0.66388  1.0000
  C   C688      1.0  0.65913  0.09285  0.89536  1.0000
  H   H542      1.0  0.40338  0.04320  0.54960  1.0000
  H   H543      1.0  0.36252  0.04035  0.59330  1.0000
  H   H544      1.0  0.59910  0.26803  0.54609  1.0000
  C   C689      1.0  0.37458  0.33513  0.66413  1.0000
  H   H545      1.0  0.42026  0.44960  0.92464  1.0000
  P   P22       1.0  0.38135  0.33369  0.59976  1.0000
  H   H546      1.0  0.65903  0.24942  0.87155  1.0000
  C   C690      1.0  0.48486  0.49570  0.73558  1.0000
  H   H547      1.0  0.37084  0.33715  0.71369  1.0000
  C   C691      1.0  0.65435  0.12842  0.76976  1.0000
  H   H548      1.0  0.46010  0.49553  0.74013  1.0000
  H   H549      1.0  0.47149  0.02303  0.80665  1.0000
  H   H550      1.0  0.43476  0.26988  0.67747  1.0000
  C   C692      1.0  0.57606  0.09914  0.85817  1.0000
  H   H551      1.0  0.47283  0.45684  0.80634  1.0000
  H   H552      1.0  0.46386  0.28420  0.53679  1.0000
  C   C693      1.0  0.46479  0.35913  0.56093  1.0000
  C   C694      1.0  0.43630  0.35988  0.57669  1.0000
  H   H553      1.0  0.47703  0.17951  0.61995  1.0000
  H   H554      1.0  0.46040  0.48807  0.94868  1.0000
  H   H555      1.0  0.52233  0.41070  0.82584  1.0000
  C   C695      1.0  0.65395  0.18257  0.75513  1.0000
  H   H556      1.0  0.55197  0.07412  0.78795  1.0000
  C   C696      1.0  0.47460  0.33200  0.54624  1.0000
  C   C697      1.0  0.67593  0.17652  0.73200  1.0000
  H   H557      1.0  0.35554  0.19055  0.53967  1.0000
  H   H558      1.0  0.47963  0.37934  0.56074  1.0000
  H   H559      1.0  0.42961  0.38092  0.58846  1.0000
  C   C698      1.0  0.45105  0.48111  0.84425  1.0000
  H   H560      1.0  0.61671  0.33509  0.67225  1.0000
  C   C699      1.0  0.43087  0.10789  0.53570  1.0000
  H   H561      1.0  0.51364  0.49896  0.96564  1.0000
  C   C700      1.0  0.46433  0.02302  0.61182  1.0000
  H   H562      1.0  0.56791  0.49812  0.84487  1.0000
  H   H563      1.0  0.64567  0.20604  0.75830  1.0000
  C   C701      1.0  0.64240  0.15843  0.77366  1.0000
  H   H564      1.0  0.66114  0.13779  0.84465  1.0000
  P   P23       1.0  0.61579  0.16713  0.80481  1.0000
  C   C702      1.0  0.59519  0.13300  0.81743  1.0000
  C   C703      1.0  0.63999  0.18222  0.83500  1.0000
  C   C704      1.0  0.66021  0.16218  0.85051  1.0000
  H   H565      1.0  0.65956  0.37629  0.53132  1.0000
  C   C705      1.0  0.61055  0.11418  0.00692  1.0000
  C   C706      1.0  0.65923  0.22504  0.86571  1.0000
  C   C707      1.0  0.64022  0.21391  0.84217  1.0000
  C   C708      1.0  0.58006  0.11454  0.79563  1.0000
  H   H566      1.0  0.40982  0.29574  0.72211  1.0000
  C   C709      1.0  0.39999  0.49551  0.92638  1.0000
  C   C710      1.0  0.36368  0.42525  0.61814  1.0000
  C   C711      1.0  0.66431  0.35075  0.67239  1.0000
  C   C712      1.0  0.58566  0.19352  0.79279  1.0000
  C   C713      1.0  0.57859  0.19700  0.76143  1.0000
  C   C714      1.0  0.55470  0.21679  0.75227  1.0000
  C   C715      1.0  0.53722  0.23279  0.77438  1.0000
  C   C716      1.0  0.54342  0.22870  0.80573  1.0000
  C   C717      1.0  0.56738  0.20892  0.81494  1.0000
  C   C718      1.0  0.58168  0.12526  0.99754  1.0000
  C   C719      1.0  0.37611  0.39537  0.61876  1.0000
  S   S96       1.0  0.65908  0.03822  0.74250  1.0000
  C   C720      1.0  0.45585  0.30563  0.54720  1.0000
  H   H567      1.0  0.64662  0.10952  0.78437  1.0000
  C   C721      1.0  0.67657  0.12255  0.74675  1.0000
  C   C722      1.0  0.65882  0.44359  0.71724  1.0000
  H   H568      1.0  0.65427  0.45274  0.66864  1.0000
  C   C723      1.0  0.40360  0.30245  0.69890  1.0000
  H   H569      1.0  0.62592  0.23008  0.82959  1.0000
  H   H570      1.0  0.58126  0.12026  0.77132  1.0000
  H   H571      1.0  0.41055  0.20703  0.53434  1.0000
  S   S97       1.0  0.60320  0.02065  0.79157  1.0000
  C   C724      1.0  0.40105  0.46122  0.86075  1.0000
  H   H572      1.0  0.60292  0.13990  0.86638  1.0000
  H   H573      1.0  0.59112  0.18415  0.74393  1.0000
  H   H574      1.0  0.54958  0.21940  0.72793  1.0000
  H   H575      1.0  0.51860  0.24798  0.76713  1.0000
  H   H576      1.0  0.52940  0.24058  0.82289  1.0000
  H   H577      1.0  0.57148  0.20541  0.83931  1.0000
  C   C725      1.0  0.43547  0.13691  0.67172  1.0000
  C   C726      1.0  0.45637  0.15898  0.66046  1.0000
  C   C727      1.0  0.46097  0.16224  0.62871  1.0000
  C   C728      1.0  0.44467  0.14352  0.60810  1.0000
  C   C729      1.0  0.42377  0.12112  0.61922  1.0000
  C   C730      1.0  0.41930  0.11797  0.65122  1.0000
  P   P24       1.0  0.40466  0.09466  0.59326  1.0000
  C   C731      1.0  0.41731  0.33345  0.57782  1.0000
  C   C732      1.0  0.42560  0.05840  0.59159  1.0000
  C   C733      1.0  0.40305  0.46442  0.93547  1.0000
  H   H578      1.0  0.42239  0.28593  0.62453  1.0000
  C   C734      1.0  0.44781  0.05084  0.61391  1.0000
  H   H579      1.0  0.36627  0.31631  0.53615  1.0000
  H   H580      1.0  0.65795  0.37485  0.67528  1.0000
  C   C735      1.0  0.36447  0.37213  0.59934  1.0000
  C   C736      1.0  0.42747  0.30624  0.56309  1.0000
  H   H581      1.0  0.65612  0.43409  0.76593  1.0000
  C   C737      1.0  0.67840  0.20469  0.88187  1.0000
  C   C738      1.0  0.67901  0.17331  0.87412  1.0000
  H   H582      1.0  0.57927  0.13551  0.97488  1.0000
  C   C739      1.0  0.41105  0.29749  0.64370  1.0000
  C   C740      1.0  0.35761  0.50149  0.96333  1.0000
  C   C741      1.0  0.50489  0.50986  0.94493  1.0000
  C   C742      1.0  0.35046  0.05986  0.60331  1.0000
  P   P25       1.0  0.42403  0.51067  0.89543  1.0000
  C   C743      1.0  0.67028  0.33991  0.56345  1.0000
  H   H583      1.0  0.53376  0.13227  0.01038  1.0000
  H   H584      1.0  0.37273  0.44289  0.63348  1.0000
  H   H585      1.0  0.38423  0.42157  0.83584  1.0000
  H   H586      1.0  0.53157  0.51356  0.80332  1.0000
  H   H587      1.0  0.42238  0.90660  0.38509  1.0000
  C   C744      1.0  0.36071  0.86750  0.12853  1.0000
  H   H588      1.0  0.60342  0.72650  0.27742  1.0000
  Fe  Fe47      1.0  0.58766  0.53904  0.29638  1.0000
  S   S98       1.0  0.56504  0.56721  0.33531  1.0000
  S   S99       1.0  0.63841  0.54417  0.28562  1.0000
  H   H589      1.0  0.36393  0.64288  0.35540  1.0000
  H   H590      1.0  0.56091  0.96910  0.45971  1.0000
  S   S100      1.0  0.37213  0.93868  0.30352  1.0000
  H   H591      1.0  0.55170  0.98743  0.04656  1.0000
  H   H592      1.0  0.58813  0.64156  0.25137  1.0000
  S   S101      1.0  0.37311  0.99766  0.23037  1.0000
  Fe  Fe48      1.0  0.45432  0.76253  0.40981  1.0000
  S   S102      1.0  0.45406  0.76715  0.35796  1.0000
  S   S103      1.0  0.41424  0.75903  0.44441  1.0000
  Fe  Fe49      1.0  0.52477  0.77364  0.41377  1.0000
  S   S104      1.0  0.52987  0.77899  0.36256  1.0000
  S   S105      1.0  0.56130  0.77749  0.45129  1.0000
  Fe  Fe50      1.0  0.48610  0.80761  0.36496  1.0000
  S   S106      1.0  0.48713  0.85388  0.33970  1.0000
  Fe  Fe51      1.0  0.49776  0.73800  0.35929  1.0000
  S   S107      1.0  0.50702  0.70252  0.32131  1.0000
  S   S108      1.0  0.48349  0.80522  0.41657  1.0000
  S   S109      1.0  0.49556  0.73043  0.41060  1.0000
  H   H593      1.0  0.66786  0.52141  0.16906  1.0000
  C   C745      1.0  0.40450  0.91577  0.31382  1.0000
  C   C746      1.0  0.43496  0.92631  0.31051  1.0000
  C   C747      1.0  0.45997  0.90710  0.31869  1.0000
  C   C748      1.0  0.45478  0.87725  0.33053  1.0000
  C   C749      1.0  0.42427  0.86672  0.33417  1.0000
  C   C750      1.0  0.39928  0.88595  0.32586  1.0000
  H   H594      1.0  0.43921  0.94929  0.30174  1.0000
  H   H595      1.0  0.48349  0.91544  0.31581  1.0000
  H   H596      1.0  0.41995  0.84375  0.34317  1.0000
  H   H597      1.0  0.37574  0.87765  0.32869  1.0000
  C   C751      1.0  0.54877  0.60473  0.33084  1.0000
  C   C752      1.0  0.54436  0.61805  0.30184  1.0000
  C   C753      1.0  0.53170  0.64805  0.29940  1.0000
  C   C754      1.0  0.52344  0.66511  0.32587  1.0000
  C   C755      1.0  0.52780  0.65175  0.35491  1.0000
  C   C756      1.0  0.54009  0.62159  0.35727  1.0000
  H   H598      1.0  0.55044  0.60516  0.28126  1.0000
  H   H599      1.0  0.52820  0.65808  0.27683  1.0000
  H   H600      1.0  0.52147  0.66452  0.37548  1.0000
  H   H601      1.0  0.54290  0.61120  0.37967  1.0000
  C   C757      1.0  0.50474  0.90256  0.44349  1.0000
  C   C758      1.0  0.64971  0.80344  0.47032  1.0000
  C   C759      1.0  0.61880  0.79314  0.47272  1.0000
  C   C760      1.0  0.60027  0.78986  0.44643  1.0000
  C   C761      1.0  0.61331  0.79602  0.41740  1.0000
  C   C762      1.0  0.64459  0.80542  0.41489  1.0000
  C   C763      1.0  0.40346  0.92617  0.42716  1.0000
  H   H602      1.0  0.60913  0.78760  0.49511  1.0000
  H   H603      1.0  0.59941  0.79326  0.39693  1.0000
  H   H604      1.0  0.56596  0.73264  0.32052  1.0000
  C   C764      1.0  0.59499  0.66879  0.41807  1.0000
  H   H605      1.0  0.51341  0.52381  0.42994  1.0000
  C   C765      1.0  0.37450  0.71756  0.41585  1.0000
  C   C766      1.0  0.38230  0.73313  0.44294  1.0000
  H   H606      1.0  0.46443  0.61808  0.50428  1.0000
  C   C767      1.0  0.63317  0.65395  0.23322  1.0000
  C   C768      1.0  0.59299  0.70601  0.35260  1.0000
  H   H607      1.0  0.38834  0.72092  0.39519  1.0000
  C   C769      1.0  0.36736  0.88898  0.23043  1.0000
  C   C770      1.0  0.60091  0.87956  0.49803  1.0000
  C   C771      1.0  0.50799  0.89041  0.41378  1.0000
  C   C772      1.0  0.56099  0.90428  0.44852  1.0000
  C   C773      1.0  0.40126  0.89079  0.47071  1.0000
  H   H608      1.0  0.41418  0.99500  0.08432  1.0000
  C   C774      1.0  0.65704  0.62090  0.28309  1.0000
  C   C775      1.0  0.48229  0.97203  0.37149  1.0000
  P   P26       1.0  0.43046  0.62575  0.44631  1.0000
  C   C776      1.0  0.49578  0.56603  0.41041  1.0000
  H   H609      1.0  0.48767  0.88469  0.40035  1.0000
  H   H610      1.0  0.44451  0.97792  0.24945  1.0000
  H   H611      1.0  0.60936  0.61264  0.29584  1.0000
  H   H612      1.0  0.43165  0.85493  0.40738  1.0000
  C   C777      1.0  0.55339  0.63776  0.44041  1.0000
  H   H613      1.0  0.59272  0.71779  0.42890  1.0000
  C   C778      1.0  0.66941  0.94858  0.42502  1.0000
  P   P27       1.0  0.59487  0.91158  0.47192  1.0000
  C   C779      1.0  0.44820  0.68492  0.46598  1.0000
  H   H614      1.0  0.35347  0.99960  0.08713  1.0000
  H   H615      1.0  0.47479  0.60844  0.39643  1.0000
  C   C780      1.0  0.38272  0.58436  0.46173  1.0000
  H   H616      1.0  0.38570  0.65993  0.48437  1.0000
  H   H617      1.0  0.60153  0.97476  0.13108  1.0000
  C   C781      1.0  0.44948  0.65296  0.47166  1.0000
  C   C782      1.0  0.39047  0.99340  0.43849  1.0000
  C   C783      1.0  0.45639  0.59309  0.44077  1.0000
  H   H618      1.0  0.66630  0.62019  0.15852  1.0000
  H   H619      1.0  0.54518  0.71339  0.46056  1.0000
  H   H620      1.0  0.65203  0.69675  0.28516  1.0000
  C   C784      1.0  0.66531  0.65141  0.23687  1.0000
  H   H621      1.0  0.35781  0.92552  0.19765  1.0000
  C   C785      1.0  0.36385  0.72868  0.46953  1.0000
  H   H622      1.0  0.36959  0.85507  0.26726  1.0000
  C   C786      1.0  0.64146  0.68556  0.33249  1.0000
  H   H623      1.0  0.54205  0.61556  0.44336  1.0000
  C   C787      1.0  0.48123  0.94805  0.23311  1.0000
  C   C788      1.0  0.38365  0.87636  0.10739  1.0000
  H   H624      1.0  0.48009  0.52704  0.47687  1.0000
  C   C789      1.0  0.66951  0.89341  0.41570  1.0000
  C   C790      1.0  0.53112  0.90941  0.46085  1.0000
  C   C791      1.0  0.62030  0.68890  0.35709  1.0000
  C   C792      1.0  0.55511  0.69285  0.45002  1.0000
  C   C793      1.0  0.42229  0.99289  0.35875  1.0000
  C   C794      1.0  0.42037  0.78507  0.22350  1.0000
  C   C795      1.0  0.43631  0.78436  0.25148  1.0000
  C   C796      1.0  0.44216  0.81190  0.26729  1.0000
  C   C797      1.0  0.43225  0.84012  0.25508  1.0000
  C   C798      1.0  0.41657  0.84108  0.22681  1.0000
  C   C799      1.0  0.41038  0.81333  0.21121  1.0000
  P   P28       1.0  0.40345  0.87782  0.21197  1.0000
  C   C800      1.0  0.57638  0.85972  0.50631  1.0000
  C   C801      1.0  0.43375  0.90563  0.21984  1.0000
  C   C802      1.0  0.42668  0.93451  0.23283  1.0000
  C   C803      1.0  0.45028  0.95576  0.23911  1.0000
  C   C804      1.0  0.62496  0.62366  0.27950  1.0000
  C   C805      1.0  0.48859  0.91905  0.22079  1.0000
  C   C806      1.0  0.46498  0.89788  0.21422  1.0000
  C   C807      1.0  0.57595  0.97751  0.08868  1.0000
  C   C808      1.0  0.63272  0.61414  0.36716  1.0000
  C   C809      1.0  0.66511  0.57108  0.16731  1.0000
  H   H625      1.0  0.34890  0.86019  0.17607  1.0000
  C   C810      1.0  0.56436  0.99706  0.06581  1.0000
  C   C811      1.0  0.39652  0.87585  0.17086  1.0000
  C   C812      1.0  0.67195  0.72125  0.39893  1.0000
  C   C813      1.0  0.58948  0.94673  0.49404  1.0000
  H   H626      1.0  0.41573  0.76365  0.21137  1.0000
  C   C814      1.0  0.41315  0.88451  0.11776  1.0000
  C   C815      1.0  0.41959  0.88438  0.14936  1.0000
  C   C816      1.0  0.37776  0.63621  0.48251  1.0000
  H   H627      1.0  0.44408  0.76250  0.26103  1.0000
  H   H628      1.0  0.45438  0.81145  0.28909  1.0000
  H   H629      1.0  0.43677  0.86122  0.26779  1.0000
  H   H630      1.0  0.39929  0.00091  0.35318  1.0000
  H   H631      1.0  0.40310  0.94034  0.23909  1.0000
  H   H632      1.0  0.66867  0.72530  0.37457  1.0000
  C   C817      1.0  0.56847  0.99884  0.49858  1.0000
  H   H633      1.0  0.51264  0.91275  0.21682  1.0000
  H   H634      1.0  0.47109  0.87528  0.20518  1.0000
  C   C818      1.0  0.67175  0.57543  0.37829  1.0000
  C   C819      1.0  0.42869  0.00137  0.17214  1.0000
  P   P29       1.0  0.62943  0.67245  0.39423  1.0000
  H   H635      1.0  0.63331  0.86736  0.43803  1.0000
  C   C820      1.0  0.49753  0.54304  0.43297  1.0000
  H   H636      1.0  0.37834  0.87725  0.08298  1.0000
  C   C821      1.0  0.59245  0.98991  0.11339  1.0000
  H   H637      1.0  0.36970  0.74068  0.49059  1.0000
  H   H638      1.0  0.43090  0.89124  0.10124  1.0000
  H   H639      1.0  0.44242  0.89124  0.15676  1.0000
  C   C822      1.0  0.53754  0.88488  0.40150  1.0000
  C   C823      1.0  0.67302  0.59757  0.15007  1.0000
  C   C824      1.0  0.54058  0.66423  0.45388  1.0000
  C   C825      1.0  0.35480  0.57604  0.47629  1.0000
  H   H640      1.0  0.51933  0.66268  0.46717  1.0000
  C   C826      1.0  0.56395  0.89163  0.41878  1.0000
  C   C827      1.0  0.58211  0.69522  0.43207  1.0000
  C   C828      1.0  0.62914  0.91622  0.44795  1.0000
  H   H641      1.0  0.39500  0.88603  0.49450  1.0000
  H   H642      1.0  0.57601  0.70892  0.37089  1.0000
  H   H643      1.0  0.45002  0.95649  0.16788  1.0000
  C   C829      1.0  0.45753  0.96378  0.39089  1.0000
  H   H644      1.0  0.62384  0.66623  0.21360  1.0000
  H   H645      1.0  0.46141  0.73043  0.48137  1.0000
  C   C830      1.0  0.66282  0.80952  0.44137  1.0000
  H   H646      1.0  0.66590  0.60797  0.30249  1.0000
  H   H647      1.0  0.53991  0.87476  0.37869  1.0000
  C   C831      1.0  0.58061  0.63995  0.42271  1.0000
  H   H648      1.0  0.49949  0.96434  0.23858  1.0000
  C   C832      1.0  0.57176  0.97119  0.48206  1.0000
  H   H649      1.0  0.58645  0.88653  0.40884  1.0000
  C   C833      1.0  0.46240  0.70579  0.48608  1.0000
  H   H650      1.0  0.66362  0.80597  0.49079  1.0000
  H   H651      1.0  0.68041  0.66264  0.22028  1.0000
  H   H652      1.0  0.64753  0.67601  0.45888  1.0000
  C   C834      1.0  0.46407  0.64240  0.49857  1.0000
  C   C835      1.0  0.63558  0.69936  0.30398  1.0000
  Fe  Fe52      1.0  0.36440  0.98530  0.28015  1.0000
  C   C836      1.0  0.42121  0.64245  0.40925  1.0000
  H   H653      1.0  0.58993  0.61911  0.41244  1.0000
  C   C837      1.0  0.58714  0.71961  0.32395  1.0000
  C   C838      1.0  0.44286  0.66122  0.39367  1.0000
  C   C839      1.0  0.43591  0.67349  0.36472  1.0000
  C   C840      1.0  0.40761  0.66677  0.35082  1.0000
  C   C841      1.0  0.38609  0.64780  0.36595  1.0000
  C   C842      1.0  0.39274  0.63581  0.39513  1.0000
  H   H654      1.0  0.55391  0.86165  0.49561  1.0000
  Fe  Fe53      1.0  0.62560  0.53889  0.23564  1.0000
  H   H655      1.0  0.43353  0.00371  0.19649  1.0000
  H   H656      1.0  0.65465  0.80977  0.39236  1.0000
  C   C843      1.0  0.47877  0.54490  0.45938  1.0000
  C   C844      1.0  0.60831  0.71620  0.29964  1.0000
  C   C845      1.0  0.66003  0.69386  0.44637  1.0000
  C   C846      1.0  0.64674  0.63482  0.38777  1.0000
  H   H657      1.0  0.46518  0.66628  0.40378  1.0000
  H   H658      1.0  0.45250  0.68825  0.35301  1.0000
  H   H659      1.0  0.40234  0.67642  0.32841  1.0000
  H   H660      1.0  0.39455  0.56755  0.44734  1.0000
  H   H661      1.0  0.37540  0.62168  0.40659  1.0000
  C   C847      1.0  0.36714  0.86695  0.16008  1.0000
  H   H662      1.0  0.46212  0.94947  0.41080  1.0000
  S   S110      1.0  0.57433  0.53723  0.24656  1.0000
  C   C848      1.0  0.47543  0.59100  0.41429  1.0000
  H   H663      1.0  0.63328  0.56829  0.34776  1.0000
  C   C849      1.0  0.64257  0.94552  0.44319  1.0000
  C   C850      1.0  0.64496  0.58448  0.36280  1.0000
  H   H664      1.0  0.44391  0.57073  0.48388  1.0000
  H   H665      1.0  0.51023  0.56454  0.38979  1.0000
  H   H666      1.0  0.43583  0.69400  0.44636  1.0000
  H   H667      1.0  0.48176  0.90608  0.45322  1.0000
  C   C851      1.0  0.64301  0.89018  0.43428  1.0000
  C   C852      1.0  0.41424  0.86730  0.45248  1.0000
  C   C853      1.0  0.61301  0.63998  0.25446  1.0000
  C   C854      1.0  0.43253  0.97276  0.12434  1.0000
  C   C855      1.0  0.65602  0.69745  0.41444  1.0000
  H   H668      1.0  0.44006  0.95247  0.11167  1.0000
  C   C856      1.0  0.39578  0.92015  0.45811  1.0000
  H   H669      1.0  0.43813  0.00938  0.43613  1.0000
  C   C857      1.0  0.34977  0.62787  0.49682  1.0000
  C   C858      1.0  0.41665  0.90250  0.40911  1.0000
  H   H670      1.0  0.41801  0.84436  0.46201  1.0000
  H   H671      1.0  0.63279  0.96603  0.45373  1.0000
  C   C859      1.0  0.43816  0.97500  0.15595  1.0000
  S   S111      1.0  0.64506  0.57582  0.20297  1.0000
  C   C860      1.0  0.39487  0.61429  0.46552  1.0000
  H   H672      1.0  0.57227  0.95273  0.08716  1.0000
  H   H673      1.0  0.52824  0.91814  0.48411  1.0000
  H   H674      1.0  0.61177  0.62063  0.35507  1.0000
  C   C861      1.0  0.42193  0.87321  0.42168  1.0000
  H   H675      1.0  0.39793  0.81343  0.18963  1.0000
  C   C862      1.0  0.47712  0.99098  0.34593  1.0000
  H   H676      1.0  0.35922  0.94132  0.11992  1.0000
  H   H677      1.0  0.35252  0.01058  0.38642  1.0000
  P   P30       1.0  0.39530  0.96330  0.40980  1.0000
  C   C863      1.0  0.42721  0.97381  0.38444  1.0000
  C   C864      1.0  0.45828  0.56976  0.46327  1.0000
  C   C865      1.0  0.34977  0.91330  0.21800  1.0000
  C   C866      1.0  0.67365  0.62556  0.40340  1.0000
  H   H678      1.0  0.50545  0.96353  0.37618  1.0000
  C   C867      1.0  0.35642  0.87360  0.25690  1.0000
  C   C868      1.0  0.41540  0.01273  0.44639  1.0000
  H   H679      1.0  0.66259  0.67246  0.33540  1.0000
  C   C869      1.0  0.44718  0.00160  0.33971  1.0000
  H   H680      1.0  0.38521  0.93787  0.47238  1.0000
  C   C870      1.0  0.41741  0.99685  0.10896  1.0000
  C   C871      1.0  0.36131  0.99836  0.45244  1.0000
  H   H681      1.0  0.51159  0.52241  0.32765  1.0000
  C   C872      1.0  0.67377  0.54197  0.15604  1.0000
  C   C873      1.0  0.35976  0.96091  0.38790  1.0000
  H   H682      1.0  0.68013  0.87320  0.40523  1.0000
  H   H683      1.0  0.35943  0.91077  0.38435  1.0000
  C   C874      1.0  0.67975  0.71372  0.46248  1.0000
  C   C875      1.0  0.67745  0.63422  0.26150  1.0000
  H   H684      1.0  0.64950  0.89000  0.50531  1.0000
  H   H685      1.0  0.49625  0.99728  0.33081  1.0000
  H   H686      1.0  0.68105  0.55229  0.37490  1.0000
  H   H687      1.0  0.68010  0.97108  0.42192  1.0000
  C   C876      1.0  0.63007  0.87527  0.51157  1.0000
  Fe  Fe54      1.0  0.48476  0.72314  0.85820  1.0000
  S   S112      1.0  0.48240  0.72264  0.90994  1.0000
  S   S113      1.0  0.44849  0.69745  0.82972  1.0000
  Fe  Fe55      1.0  0.53799  0.77052  0.85750  1.0000
  S   S114      1.0  0.53923  0.77306  0.90926  1.0000
  S   S115      1.0  0.57557  0.79601  0.83005  1.0000
  Fe  Fe56      1.0  0.53474  0.72152  0.90826  1.0000
  S   S116      1.0  0.55890  0.68938  0.94206  1.0000
  Fe  Fe57      1.0  0.48706  0.77429  0.90693  1.0000
  S   S117      1.0  0.46260  0.80730  0.94000  1.0000
  S   S118      1.0  0.53672  0.71813  0.85644  1.0000
  S   S119      1.0  0.48608  0.77548  0.85510  1.0000
  H   H688      1.0  0.66941  0.90440  0.73665  1.0000
  S   S120      1.0  0.60571  0.98723  0.72321  1.0000
  C   C877      1.0  0.44020  0.70590  0.97377  1.0000
  Fe  Fe58      1.0  0.60532  0.97194  0.77298  1.0000
  S   S121      1.0  0.56803  0.93845  0.79070  1.0000
  H   H689      1.0  0.47166  0.98102  0.58600  1.0000
  Fe  Fe59      1.0  0.40461  0.53302  0.76738  1.0000
  C   C878      1.0  0.41178  0.69900  0.96000  1.0000
  S   S122      1.0  0.44314  0.55342  0.79710  1.0000
  H   H690      1.0  0.43823  0.84742  0.88044  1.0000
  H   H691      1.0  0.64628  0.56090  0.85229  1.0000
  C   C879      1.0  0.44862  0.91611  0.93375  1.0000
  C   C880      1.0  0.59925  0.68936  0.94967  1.0000
  C   C881      1.0  0.61971  0.70925  0.93421  1.0000
  C   C882      1.0  0.65176  0.70793  0.94024  1.0000
  H   H692      1.0  0.36188  0.57781  0.82682  1.0000
  C   C883      1.0  0.64324  0.66702  0.97741  1.0000
  C   C884      1.0  0.61116  0.66826  0.97128  1.0000
  H   H693      1.0  0.61083  0.72569  0.91766  1.0000
  S   S123      1.0  0.40678  0.53415  0.71561  1.0000
  C   C885      1.0  0.49613  0.98171  0.81943  1.0000
  C   C886      1.0  0.49490  0.95384  0.83574  1.0000
  C   C887      1.0  0.44770  0.65736  0.82078  1.0000
  C   C888      1.0  0.46958  0.63668  0.83252  1.0000
  C   C889      1.0  0.46797  0.60495  0.82508  1.0000
  C   C890      1.0  0.44448  0.59356  0.80579  1.0000
  C   C891      1.0  0.42264  0.61428  0.79395  1.0000
  C   C892      1.0  0.42422  0.64598  0.80150  1.0000
  H   H694      1.0  0.48772  0.64527  0.84721  1.0000
  H   H695      1.0  0.48504  0.58924  0.83427  1.0000
  H   H696      1.0  0.40458  0.60587  0.77893  1.0000
  H   H697      1.0  0.40735  0.66186  0.79210  1.0000
  C   C893      1.0  0.57115  0.89871  0.80099  1.0000
  C   C894      1.0  0.54383  0.88213  0.80769  1.0000
  C   C895      1.0  0.54486  0.85087  0.81683  1.0000
  C   C896      1.0  0.57335  0.83562  0.81917  1.0000
  C   C897      1.0  0.60073  0.85192  0.81174  1.0000
  C   C898      1.0  0.59969  0.88337  0.80287  1.0000
  H   H698      1.0  0.52168  0.89349  0.80567  1.0000
  H   H699      1.0  0.52357  0.83853  0.82187  1.0000
  H   H700      1.0  0.62289  0.84031  0.81326  1.0000
  H   H701      1.0  0.62093  0.89577  0.79775  1.0000
  C   C899      1.0  0.42237  0.81516  0.93896  1.0000
  C   C900      1.0  0.40380  0.80432  0.91504  1.0000
  H   H702      1.0  0.35375  0.60443  0.98245  1.0000
  H   H703      1.0  0.51647  0.94579  0.89768  1.0000
  C   C901      1.0  0.37700  0.84059  0.96191  1.0000
  C   C902      1.0  0.40882  0.83317  0.96248  1.0000
  H   H704      1.0  0.41402  0.79017  0.89710  1.0000
  H   H705      1.0  0.66739  0.72346  0.92820  1.0000
  H   H706      1.0  0.42306  0.84155  0.98113  1.0000
  C   C903      1.0  0.51461  0.86778  0.88587  1.0000
  H   H707      1.0  0.39836  0.90179  0.87507  1.0000
  H   H708      1.0  0.64424  0.96753  0.65080  1.0000
  H   H709      1.0  0.58873  0.87871  0.91003  1.0000
  P   P31       1.0  0.59738  0.60588  0.86976  1.0000
  C   C904      1.0  0.56790  0.61334  0.89862  1.0000
  C   C905      1.0  0.60563  0.64021  0.84761  1.0000
  C   C906      1.0  0.60378  0.66944  0.86158  1.0000
  C   C907      1.0  0.61188  0.69603  0.84498  1.0000
  C   C908      1.0  0.62178  0.69360  0.81432  1.0000
  C   C909      1.0  0.62408  0.66451  0.80034  1.0000
  C   C910      1.0  0.61631  0.63783  0.81702  1.0000
  C   C911      1.0  0.57021  0.60102  0.92850  1.0000
  H   H710      1.0  0.54830  0.59658  0.97318  1.0000
  H   H711      1.0  0.48807  0.71139  0.52802  1.0000
  C   C912      1.0  0.54076  0.62909  0.89020  1.0000
  C   C913      1.0  0.57970  0.57624  0.84636  1.0000
  C   C914      1.0  0.66248  0.94361  0.61057  1.0000
  H   H712      1.0  0.42649  0.81558  0.78755  1.0000
  C   C915      1.0  0.43858  0.91048  0.90354  1.0000
  H   H713      1.0  0.59612  0.67175  0.88532  1.0000
  H   H714      1.0  0.61017  0.71860  0.85588  1.0000
  H   H715      1.0  0.62768  0.71431  0.80147  1.0000
  C   C916      1.0  0.58267  0.54485  0.85427  1.0000
  H   H716      1.0  0.61876  0.61541  0.80610  1.0000
  H   H717      1.0  0.59061  0.58836  0.93555  1.0000
  C   C917      1.0  0.37652  0.57680  0.84694  1.0000
  H   H718      1.0  0.55898  0.93787  0.67961  1.0000
  C   C918      1.0  0.40670  0.90650  0.89809  1.0000
  C   C919      1.0  0.66705  0.83392  0.65700  1.0000
  C   C920      1.0  0.54180  0.56210  0.80749  1.0000
  C   C921      1.0  0.51631  0.63257  0.91135  1.0000
  C   C922      1.0  0.64899  0.82566  0.72306  1.0000
  H   H719      1.0  0.64111  0.94553  0.59783  1.0000
  C   C923      1.0  0.58317  0.00246  0.52696  1.0000
  C   C924      1.0  0.56576  0.52226  0.83846  1.0000
  P   P32       1.0  0.65956  0.85312  0.69332  1.0000
  H   H720      1.0  0.52673  0.56055  0.88877  1.0000
  C   C925      1.0  0.62818  0.88067  0.68890  1.0000
  C   C926      1.0  0.62110  0.89313  0.65983  1.0000
  C   C927      1.0  0.59625  0.91365  0.65650  1.0000
  C   C928      1.0  0.57804  0.92170  0.68204  1.0000
  C   C929      1.0  0.58478  0.90936  0.71096  1.0000
  C   C930      1.0  0.60993  0.88928  0.71453  1.0000
  C   C931      1.0  0.60954  0.83343  0.54280  1.0000
  H   H721      1.0  0.59718  0.53790  0.87334  1.0000
  H   H722      1.0  0.40455  0.74437  0.84696  1.0000
  H   H723      1.0  0.57006  0.93301  0.91271  1.0000
  H   H724      1.0  0.42362  0.00862  0.83563  1.0000
  H   H725      1.0  0.38291  0.52761  0.84401  1.0000
  C   C932      1.0  0.50413  0.89856  0.88623  1.0000
  H   H726      1.0  0.63147  0.63096  0.92171  1.0000
  C   C933      1.0  0.56500  0.88424  0.90403  1.0000
  C   C934      1.0  0.35876  0.83092  0.93723  1.0000
  C   C935      1.0  0.38526  0.90827  0.92242  1.0000
  C   C936      1.0  0.67380  0.60510  0.92495  1.0000
  H   H727      1.0  0.65210  0.65083  0.99421  1.0000
  C   C937      1.0  0.45326  0.87932  0.84488  1.0000
  H   H728      1.0  0.46630  0.90496  0.80375  1.0000
  C   C938      1.0  0.37749  0.51413  0.94094  1.0000
  H   H729      1.0  0.63472  0.88751  0.63960  1.0000
  H   H730      1.0  0.59139  0.92359  0.63412  1.0000
  H   H731      1.0  0.52511  0.56890  0.79014  1.0000
  H   H732      1.0  0.57068  0.91570  0.73075  1.0000
  H   H733      1.0  0.36679  0.85446  0.98013  1.0000
  C   C939      1.0  0.40421  0.60306  0.88755  1.0000
  C   C940      1.0  0.51899  0.62074  0.94120  1.0000
  H   H734      1.0  0.50061  0.62459  0.95795  1.0000
  C   C941      1.0  0.44026  0.85160  0.85587  1.0000
  C   C942      1.0  0.44668  0.86095  0.79234  1.0000
  C   C943      1.0  0.39541  0.91414  0.95236  1.0000
  C   C944      1.0  0.55884  0.58470  0.82306  1.0000
  H   H735      1.0  0.47303  0.91875  0.93872  1.0000
  H   H736      1.0  0.51699  0.98764  0.80646  1.0000
  C   C945      1.0  0.43023  0.82893  0.83522  1.0000
  P   P33       1.0  0.46608  0.90845  0.87183  1.0000
  C   C946      1.0  0.41990  0.75536  0.99049  1.0000
  H   H737      1.0  0.42352  0.77771  0.00123  1.0000
  C   C947      1.0  0.54503  0.86077  0.89446  1.0000
  H   H738      1.0  0.41085  0.62435  0.89894  1.0000
  C   C948      1.0  0.35234  0.65117  0.96509  1.0000
  H   H739      1.0  0.64512  0.79052  0.66962  1.0000
  C   C949      1.0  0.45627  0.88390  0.81292  1.0000
  H   H740      1.0  0.36077  0.90435  0.91822  1.0000
  H   H741      1.0  0.55339  0.83718  0.89288  1.0000
  C   C950      1.0  0.38695  0.72009  0.96187  1.0000
  H   H742      1.0  0.61495  0.88047  0.73733  1.0000
  C   C951      1.0  0.65725  0.80338  0.65180  1.0000
  H   H743      1.0  0.36165  0.66093  0.98611  1.0000
  C   C952      1.0  0.60960  0.79551  0.75001  1.0000
  H   H744      1.0  0.63199  0.66268  0.77664  1.0000
  H   H745      1.0  0.44958  0.86441  0.76774  1.0000
  Fe  Fe60      1.0  0.65774  0.98836  0.72715  1.0000
  C   C953      1.0  0.66369  0.68691  0.96188  1.0000
  H   H746      1.0  0.62478  0.77103  0.79036  1.0000
  C   C954      1.0  0.55446  0.91479  0.90549  1.0000
  C   C955      1.0  0.63397  0.59521  0.88677  1.0000
  H   H747      1.0  0.37667  0.62625  0.85349  1.0000
  H   H748      1.0  0.65663  0.85003  0.54486  1.0000
  C   C956      1.0  0.52409  0.92193  0.89682  1.0000
  C   C957      1.0  0.65326  0.57276  0.87307  1.0000
  C   C958      1.0  0.66410  0.95591  0.64067  1.0000
  C   C959      1.0  0.61819  0.81526  0.72586  1.0000
  H   H749      1.0  0.58552  0.78878  0.75317  1.0000
  C   C960      1.0  0.67132  0.81478  0.74386  1.0000
  H   H750      1.0  0.51495  0.93875  0.83504  1.0000
  C   C961      1.0  0.64503  0.61213  0.91204  1.0000
  C   C962      1.0  0.43366  0.83347  0.80348  1.0000
  H   H751      1.0  0.54552  0.54564  0.72914  1.0000
  H   H752      1.0  0.53865  0.63900  0.86740  1.0000
  H   H753      1.0  0.55483  0.60886  0.81761  1.0000
  H   H754      1.0  0.49978  0.84912  0.87833  1.0000
  H   H755      1.0  0.54713  0.53508  0.93585  1.0000
  C   C963      1.0  0.46809  0.94555  0.85250  1.0000
  C   C964      1.0  0.38099  0.72998  0.88856  1.0000
  C   C965      1.0  0.66266  0.79481  0.76783  1.0000
  H   H756      1.0  0.61920  0.93287  0.53191  1.0000
  C   C966      1.0  0.47052  0.00153  0.81950  1.0000
  C   C967      1.0  0.54596  0.60509  0.94981  1.0000
  H   H757      1.0  0.61291  0.81570  0.56010  1.0000
  C   C968      1.0  0.54529  0.53089  0.81511  1.0000
  S   S124      1.0  0.65729  0.96957  0.77574  1.0000
  H   H758      1.0  0.42035  0.80756  0.84389  1.0000
  H   H759      1.0  0.49583  0.64557  0.90498  1.0000
  H   H760      1.0  0.61326  0.98146  0.56048  1.0000
  C   C969      1.0  0.38476  0.60414  0.86201  1.0000
  H   H761      1.0  0.40237  0.72240  0.89913  1.0000
  H   H762      1.0  0.48882  0.54508  0.74045  1.0000
  C   C970      1.0  0.63179  0.78542  0.77105  1.0000
  C   C971      1.0  0.47797  0.66337  0.51882  1.0000
  H   H763      1.0  0.37875  0.91498  0.97123  1.0000
  C   C972      1.0  0.38236  0.74246  0.85882  1.0000
  C   C973      1.0  0.37223  0.81258  0.91392  1.0000
  C   C974      1.0  0.44229  0.96544  0.85216  1.0000
  H   H764      1.0  0.59548  0.65282  0.98337  1.0000
  H   H765      1.0  0.35663  0.76277  0.82164  1.0000
  C   C975      1.0  0.41563  0.57465  0.89791  1.0000
  C   C976      1.0  0.63421  0.85256  0.53411  1.0000
  H   H766      1.0  0.45951  0.68990  0.97184  1.0000
  H   H767      1.0  0.43495  0.92177  0.98137  1.0000
  H   H768      1.0  0.48908  0.65508  0.53956  1.0000
  H   H769      1.0  0.56180  0.82131  0.53457  1.0000
  H   H770      1.0  0.43067  0.57425  0.91779  1.0000
  H   H771      1.0  0.42109  0.95941  0.86427  1.0000
  H   H772      1.0  0.46677  0.74011  0.99827  1.0000
  C   C977      1.0  0.48227  0.53827  0.89176  1.0000
  C   C978      1.0  0.44434  0.73418  0.98878  1.0000
  H   H773      1.0  0.40960  0.67762  0.94723  1.0000
  C   C979      1.0  0.44360  0.99339  0.83584  1.0000
  C   C980      1.0  0.43684  0.00994  0.56515  1.0000
  H   H774      1.0  0.65539  0.76565  0.61926  1.0000
  H   H775      1.0  0.37321  0.76576  0.97784  1.0000
  C   C981      1.0  0.60126  0.97847  0.53880  1.0000
  C   C982      1.0  0.66299  0.78920  0.62325  1.0000
  S   S125      1.0  0.35357  0.54396  0.76972  1.0000
  C   C983      1.0  0.42707  0.91793  0.95804  1.0000
  C   C984      1.0  0.58071  0.83678  0.52864  1.0000
  C   C985      1.0  0.45884  0.00257  0.58750  1.0000
  H   H776      1.0  0.60058  0.82318  0.71001  1.0000
  Fe  Fe61      1.0  0.35509  0.54161  0.71760  1.0000
  C   C986      1.0  0.60448  0.95074  0.52244  1.0000
  C   C987      1.0  0.39134  0.74845  0.97707  1.0000
  C   C988      1.0  0.38843  0.54836  0.85682  1.0000
  H   H777      1.0  0.67970  0.78724  0.78444  1.0000
  H   H778      1.0  0.35821  0.80484  0.89485  1.0000
  C   C989      1.0  0.52378  0.53020  0.92815  1.0000
  H   H779      1.0  0.47384  0.54946  0.87107  1.0000
  C   C990      1.0  0.40822  0.54710  0.88231  1.0000
  C   C991      1.0  0.50113  0.52365  0.73565  1.0000
  C   C992      1.0  0.51240  0.54446  0.90163  1.0000
  H   H780      1.0  0.43255  0.99411  0.54628  1.0000
  C   C993      1.0  0.46309  0.51790  0.90847  1.0000
  C   C994      1.0  0.35245  0.72785  0.90434  1.0000
  C   C995      1.0  0.35534  0.75276  0.84453  1.0000
  C   C996      1.0  0.67838  0.80546  0.59977  1.0000
  P   P34       1.0  0.35066  0.71188  0.94288  1.0000
  H   H781      1.0  0.37450  0.53809  0.93447  1.0000
  C   C997      1.0  0.53303  0.52388  0.72933  1.0000
  C   C998      1.0  0.47735  0.69506  0.51243  1.0000
  Fe  Fe62      1.0  0.75301  0.10953  0.04475  1.0000
  S   S126      1.0  0.75649  0.15805  0.06269  1.0000
  S   S127      1.0  0.77565  0.06802  0.06854  1.0000
  Fe  Fe63      1.0  0.70571  0.16208  0.05112  1.0000
  H   H782      1.0  0.97759  0.07352  0.25503  1.0000
  S   S128      1.0  0.70145  0.11246  0.03628  1.0000
  H   H783      1.0  0.76275  0.31201  0.42540  1.0000
  H   H784      1.0  0.98976  0.04551  0.20650  1.0000
  S   S129      1.0  0.82330  0.06594  0.20797  1.0000
  Fe  Fe64      1.0  0.90603  0.03104  0.28219  1.0000
  S   S130      1.0  0.94194  0.05782  0.31022  1.0000
  H   H785      1.0  0.77054  0.01837  0.20078  1.0000
  Fe  Fe65      1.0  0.98399  0.22810  0.36581  1.0000
  S   S131      1.0  0.98314  0.22126  0.41716  1.0000
  S   S132      1.0  0.94868  0.20339  0.33527  1.0000
  Fe  Fe66      1.0  0.98486  0.27319  0.42017  1.0000
  S   S133      1.0  0.95777  0.29984  0.45739  1.0000
  S   S134      1.0  0.98311  0.28053  0.36880  1.0000
  Fe  Fe67      1.0  0.73598  0.42944  0.48010  1.0000
  S   S135      1.0  0.73833  0.37760  0.47714  1.0000
  C   C999      1.0  0.69366  0.10142  0.12514  1.0000
  Fe  Fe68      1.0  0.79018  0.38319  0.48304  1.0000
  S   S136      1.0  0.81950  0.35385  0.44977  1.0000
  S   S137      1.0  0.78774  0.43549  0.48278  1.0000
  C   C1000     1.0  0.91929  0.31472  0.45479  1.0000
  C   C1001     1.0  0.90673  0.33152  0.47982  1.0000
  C   C1002     1.0  0.87633  0.34374  0.47875  1.0000
  C   C1003     1.0  0.85805  0.33920  0.45259  1.0000
  C   C1004     1.0  0.87059  0.32227  0.42766  1.0000
  C   C1005     1.0  0.90100  0.31015  0.42869  1.0000
  H   H786      1.0  0.00142  0.24794  0.22801  1.0000
  H   H787      1.0  0.83053  0.33251  0.03298  1.0000
  H   H788      1.0  0.85672  0.31865  0.40730  1.0000
  H   H789      1.0  0.91032  0.29739  0.40923  1.0000
  C   C1006     1.0  0.94688  0.16274  0.32935  1.0000
  C   C1007     1.0  0.91950  0.14954  0.31774  1.0000
  C   C1008     1.0  0.91755  0.11750  0.31178  1.0000
  C   C1009     1.0  0.94321  0.09838  0.31681  1.0000
  C   C1010     1.0  0.97049  0.11155  0.32856  1.0000
  C   C1011     1.0  0.97233  0.14352  0.33489  1.0000
  H   H790      1.0  0.89963  0.16418  0.31347  1.0000
  H   H791      1.0  0.89626  0.10753  0.30337  1.0000
  H   H792      1.0  0.99042  0.09695  0.33257  1.0000
  H   H793      1.0  0.99361  0.15340  0.34350  1.0000
  C   C1012     1.0  0.78960  0.06816  0.10710  1.0000
  C   C1013     1.0  0.80630  0.04243  0.11808  1.0000
  C   C1014     1.0  0.81735  0.04150  0.14866  1.0000
  C   C1015     1.0  0.81129  0.06613  0.16881  1.0000
  C   C1016     1.0  0.79460  0.09182  0.15782  1.0000
  C   C1017     1.0  0.78411  0.09300  0.12710  1.0000
  C   C1018     1.0  0.97897  0.22024  0.19327  1.0000
  C   C1019     1.0  0.96365  0.07690  0.17799  1.0000
  H   H794      1.0  0.78999  0.11110  0.17312  1.0000
  H   H795      1.0  0.77179  0.11315  0.11893  1.0000
  C   C1020     1.0  0.69692  0.46207  0.41367  1.0000
  H   H796      1.0  0.95379  0.18900  0.16416  1.0000
  C   C1021     1.0  0.97544  0.06613  0.20594  1.0000
  H   H797      1.0  0.75268  0.29687  0.09292  1.0000
  H   H798      1.0  0.74715  0.25589  0.05313  1.0000
  C   C1022     1.0  0.71638  0.44611  0.39316  1.0000
  H   H799      1.0  0.70623  0.32067  0.11659  1.0000
  C   C1023     1.0  0.86017  0.04968  0.42675  1.0000
  H   H800      1.0  0.73544  0.43249  0.40197  1.0000
  C   C1024     1.0  0.74543  0.30648  0.44287  1.0000
  H   H801      1.0  0.84255  0.16341  0.09484  1.0000
  C   C1025     1.0  0.88294  0.05870  0.37638  1.0000
  C   C1026     1.0  0.86065  0.04425  0.39498  1.0000
  C   C1027     1.0  0.90442  0.08438  0.42137  1.0000
  C   C1028     1.0  0.90461  0.07872  0.38949  1.0000
  P   P35       1.0  0.93249  0.11090  0.43760  1.0000
  C   C1029     1.0  0.93729  0.10351  0.47838  1.0000
  C   C1030     1.0  0.96417  0.08888  0.48938  1.0000
  C   C1031     1.0  0.73273  0.29457  0.49598  1.0000
  H   H802      1.0  0.98364  0.15322  0.42174  1.0000
  C   C1032     1.0  0.91967  0.15035  0.43145  1.0000
  C   C1033     1.0  0.92432  0.17322  0.45405  1.0000
  C   C1034     1.0  0.91464  0.20372  0.44894  1.0000
  C   C1035     1.0  0.90117  0.21187  0.42091  1.0000
  C   C1036     1.0  0.89719  0.18949  0.39804  1.0000
  C   C1037     1.0  0.90633  0.15887  0.40325  1.0000
  H   H803      1.0  0.88365  0.05429  0.35174  1.0000
  C   C1038     1.0  0.71381  0.30718  0.43580  1.0000
  H   H804      1.0  0.92173  0.08960  0.37472  1.0000
  H   H805      1.0  0.98229  0.08127  0.47372  1.0000
  H   H806      1.0  0.00931  0.39444  0.47121  1.0000
  H   H807      1.0  0.93612  0.16790  0.47531  1.0000
  H   H808      1.0  0.91878  0.22147  0.46612  1.0000
  H   H809      1.0  0.89478  0.23575  0.41654  1.0000
  H   H810      1.0  0.88799  0.19608  0.37579  1.0000
  H   H811      1.0  0.90367  0.14224  0.38484  1.0000
  H   H812      1.0  0.71740  0.10625  0.13157  1.0000
  H   H813      1.0  0.79119  0.29179  0.02293  1.0000
  H   H814      1.0  0.74653  0.50661  0.30116  1.0000
  C   C1039     1.0  0.94908  0.10775  0.23288  1.0000
  C   C1040     1.0  0.93643  0.11821  0.20508  1.0000
  C   C1041     1.0  0.94460  0.10314  0.17745  1.0000
  P   P36       1.0  0.91301  0.15284  0.20507  1.0000
  C   C1042     1.0  0.88347  0.15101  0.23471  1.0000
  C   C1043     1.0  0.94007  0.18392  0.21204  1.0000
  C   C1044     1.0  0.95711  0.19700  0.18757  1.0000
  C   C1045     1.0  0.94648  0.19319  0.24240  1.0000
  C   C1046     1.0  0.87014  0.12252  0.24284  1.0000
  C   C1047     1.0  0.84577  0.12133  0.26432  1.0000
  C   C1048     1.0  0.83476  0.14848  0.27806  1.0000
  C   C1049     1.0  0.84770  0.17700  0.26984  1.0000
  C   C1050     1.0  0.87167  0.17833  0.24791  1.0000
  C   C1051     1.0  0.89131  0.15646  0.16977  1.0000
  C   C1052     1.0  0.87588  0.13052  0.15775  1.0000
  C   C1053     1.0  0.85885  0.13299  0.13056  1.0000
  C   C1054     1.0  0.85609  0.16155  0.11575  1.0000
  C   C1055     1.0  0.87030  0.18775  0.12823  1.0000
  C   C1056     1.0  0.88765  0.18531  0.15530  1.0000
  C   C1057     1.0  0.72676  0.26732  0.06262  1.0000
  C   C1058     1.0  0.96846  0.08180  0.23332  1.0000
  H   H815      1.0  0.94478  0.49805  0.10235  1.0000
  H   H816      1.0  0.94404  0.11974  0.25422  1.0000
  H   H817      1.0  0.93636  0.11148  0.15548  1.0000
  H   H818      1.0  0.69479  0.23940  0.03682  1.0000
  H   H819      1.0  0.93500  0.18234  0.26190  1.0000
  H   H820      1.0  0.87812  0.10121  0.23222  1.0000
  H   H821      1.0  0.83522  0.09928  0.27000  1.0000
  H   H822      1.0  0.81601  0.14738  0.29482  1.0000
  H   H823      1.0  0.83905  0.19810  0.28033  1.0000
  H   H824      1.0  0.88090  0.20068  0.24125  1.0000
  H   H825      1.0  0.87684  0.10833  0.16945  1.0000
  H   H826      1.0  0.84746  0.11275  0.12115  1.0000
  H   H827      1.0  0.70710  0.31323  0.41258  1.0000
  H   H828      1.0  0.86762  0.20999  0.11702  1.0000
  H   H829      1.0  0.89773  0.20600  0.16506  1.0000
  H   H830      1.0  0.77940  0.30062  0.47849  1.0000
  S   S138      1.0  0.90583  0.03140  0.23030  1.0000
  C   C1059     1.0  0.72981  0.29033  0.08505  1.0000
  S   S139      1.0  0.85408  0.03478  0.28656  1.0000
  C   C1060     1.0  0.71157  0.44829  0.36110  1.0000
  H   H831      1.0  0.81081  0.02320  0.10278  1.0000
  H   H832      1.0  0.96915  0.06477  0.15677  1.0000
  H   H833      1.0  0.96310  0.05594  0.41134  1.0000
  H   H834      1.0  0.68210  0.41623  0.10687  1.0000
  C   C1061     1.0  0.98987  0.13019  0.41411  1.0000
  H   H835      1.0  0.89342  0.12431  0.49157  1.0000
  H   H836      1.0  0.01358  0.04843  0.38530  1.0000
  S   S140      1.0  0.70257  0.46107  0.45418  1.0000
  C   C1062     1.0  0.88187  0.06975  0.43995  1.0000
  H   H837      1.0  0.96481  0.49434  0.15560  1.0000
  H   H838      1.0  0.86705  0.35670  0.49807  1.0000
  C   C1063     1.0  0.96942  0.10525  0.41833  1.0000
  C   C1064     1.0  0.91432  0.11297  0.49956  1.0000
  H   H839      1.0  0.97291  0.22341  0.27162  1.0000
  Fe  Fe69      1.0  0.76602  0.17139  0.01334  1.0000
  H   H840      1.0  0.72700  0.43618  0.34541  1.0000
  H   H841      1.0  0.83033  0.02167  0.15670  1.0000
  H   H842      1.0  0.00064  0.34955  0.43678  1.0000
  C   C1065     1.0  0.75489  0.30010  0.47292  1.0000
  Fe  Fe70      1.0  0.85383  0.03174  0.23441  1.0000
  H   H843      1.0  0.84297  0.03817  0.44110  1.0000
  C   C1066     1.0  0.70335  0.30401  0.09819  1.0000
  C   C1067     1.0  0.94980  0.51338  0.14928  1.0000
  H   H844      1.0  0.88097  0.07347  0.46454  1.0000
  C   C1068     1.0  0.68699  0.46599  0.34923  1.0000
  H   H845      1.0  0.84380  0.02878  0.38476  1.0000
  C   C1069     1.0  0.97841  0.07561  0.40829  1.0000
  C   C1070     1.0  0.70109  0.29508  0.48898  1.0000
  C   C1071     1.0  0.96832  0.21636  0.24804  1.0000
  H   H846      1.0  0.01481  0.14860  0.48168  1.0000
  H   H847      1.0  0.70536  0.05927  0.10138  1.0000
  C   C1072     1.0  0.69726  0.25815  0.05322  1.0000
  C   C1073     1.0  0.98442  0.23005  0.22349  1.0000
  H   H848      1.0  0.88755  0.50088  0.50986  1.0000
  H   H849      1.0  0.99193  0.23043  0.17431  1.0000
  C   C1074     1.0  0.69131  0.30084  0.45868  1.0000
  C   C1075     1.0  0.68675  0.07484  0.10823  1.0000
  C   C1076     1.0  0.00719  0.07117  0.39378  1.0000
  H   H850      1.0  0.92068  0.33519  0.50011  1.0000
  H   H851      1.0  0.01436  0.38655  0.29250  1.0000
  H   H852      1.0  0.68457  0.29153  0.50753  1.0000
  H   H853      1.0  0.83150  0.51075  0.50219  1.0000
  Fe  Fe71      1.0  0.85545  0.47459  0.74035  1.0000
  S   S141      1.0  0.90715  0.47811  0.74527  1.0000
  S   S142      1.0  0.83550  0.43941  0.70687  1.0000
  Fe  Fe72      1.0  0.89864  0.47443  0.79614  1.0000
  S   S143      1.0  0.93126  0.44850  0.82793  1.0000
  S   S144      1.0  0.84733  0.46697  0.79129  1.0000
  Fe  Fe73      1.0  0.71422  0.12954  0.98857  1.0000
  S   S145      1.0  0.71549  0.17962  0.00344  1.0000
  C   C1077     1.0  0.73142  0.43173  0.64764  1.0000
  H   H854      1.0  0.95015  0.50636  0.68841  1.0000
  S   S146      1.0  0.80099  0.20971  0.00265  1.0000
  S   S147      1.0  0.76562  0.12246  0.99545  1.0000
  Fe  Fe74      1.0  0.96764  0.27311  0.85887  1.0000
  S   S148      1.0  0.96037  0.27108  0.91012  1.0000
  S   S149      1.0  0.93760  0.30178  0.82696  1.0000
  Fe  Fe75      1.0  0.95912  0.21952  0.90402  1.0000
  S   S150      1.0  0.92349  0.18493  0.92247  1.0000
  S   S151      1.0  0.96346  0.22171  0.85230  1.0000
  Fe  Fe76      1.0  0.78125  0.43129  0.53441  1.0000
  S   S152      1.0  0.78789  0.37964  0.53482  1.0000
  S   S153      1.0  0.80136  0.46716  0.56718  1.0000
  C   C1078     1.0  0.72497  0.45565  0.62693  1.0000
  S   S154      1.0  0.71103  0.34249  0.55943  1.0000
  C   C1079     1.0  0.97999  0.43042  0.69359  1.0000
  C   C1080     1.0  0.83554  0.20224  0.98129  1.0000
  C   C1081     1.0  0.84149  0.17318  0.96831  1.0000
  C   C1082     1.0  0.86859  0.16826  0.95057  1.0000
  C   C1083     1.0  0.89003  0.19231  0.94552  1.0000
  C   C1084     1.0  0.88440  0.22122  0.95897  1.0000
  C   C1085     1.0  0.85718  0.22622  0.97659  1.0000
  H   H855      1.0  0.82515  0.15452  0.97183  1.0000
  H   H856      1.0  0.87299  0.14561  0.94083  1.0000
  H   H857      1.0  0.90137  0.23943  0.95635  1.0000
  H   H858      1.0  0.85307  0.24863  0.98694  1.0000
  C   C1086     1.0  0.82478  0.44784  0.66851  1.0000
  C   C1087     1.0  0.81774  0.42324  0.64855  1.0000
  C   C1088     1.0  0.80970  0.42886  0.61766  1.0000
  C   C1089     1.0  0.80881  0.45917  0.60642  1.0000
  C   C1090     1.0  0.81521  0.48382  0.62657  1.0000
  C   C1091     1.0  0.82318  0.47820  0.65751  1.0000
  H   H859      1.0  0.81897  0.39969  0.65687  1.0000
  H   H860      1.0  0.80477  0.40975  0.60235  1.0000
  H   H861      1.0  0.81296  0.16164  0.80579  1.0000
  H   H862      1.0  0.82848  0.49731  0.67269  1.0000
  C   C1092     1.0  0.93166  0.40768  0.82902  1.0000
  C   C1093     1.0  0.95331  0.39233  0.84763  1.0000
  C   C1094     1.0  0.95475  0.35976  0.84812  1.0000
  C   C1095     1.0  0.93478  0.34243  0.82963  1.0000
  C   C1096     1.0  0.91255  0.35779  0.81175  1.0000
  C   C1097     1.0  0.91086  0.39031  0.81157  1.0000
  H   H863      1.0  0.96917  0.40570  0.86154  1.0000
  H   H864      1.0  0.97150  0.34807  0.86245  1.0000
  H   H865      1.0  0.89680  0.34447  0.79776  1.0000
  H   H866      1.0  0.89390  0.40199  0.79751  1.0000
  H   H867      1.0  0.69609  0.38698  0.78041  1.0000
  S   S155      1.0  0.72939  0.42884  0.53174  1.0000
  C   C1098     1.0  0.71198  0.07915  0.90754  1.0000
  C   C1099     1.0  0.94602  0.31642  0.97242  1.0000
  C   C1100     1.0  0.70320  0.31075  0.66531  1.0000
  C   C1101     1.0  0.83522  0.16465  0.81673  1.0000
  C   C1102     1.0  0.86301  0.06640  0.90092  1.0000
  H   H868      1.0  0.73206  0.08102  0.92224  1.0000
  H   H869      1.0  0.79508  0.11595  0.93302  1.0000
  H   H870      1.0  0.72399  0.17615  0.93612  1.0000
  H   H871      1.0  0.82871  0.19855  0.89317  1.0000
  C   C1103     1.0  0.71608  0.40312  0.64528  1.0000
  H   H872      1.0  0.90047  0.11557  0.54737  1.0000
  C   C1104     1.0  0.80036  0.29051  0.97410  1.0000
  C   C1105     1.0  0.84540  0.33556  0.98545  1.0000
  C   C1106     1.0  0.84167  0.32411  0.95538  1.0000
  C   C1107     1.0  0.81857  0.30193  0.94976  1.0000
  P   P37       1.0  0.86693  0.33744  0.92458  1.0000
  C   C1108     1.0  0.85566  0.37574  0.91171  1.0000
  C   C1109     1.0  0.90637  0.33784  0.93886  1.0000
  C   C1110     1.0  0.91545  0.31676  0.96183  1.0000
  C   C1111     1.0  0.69570  0.34213  0.66959  1.0000
  H   H873      1.0  0.99181  0.33570  0.96748  1.0000
  C   C1112     1.0  0.95923  0.35773  0.93704  1.0000
  C   C1113     1.0  0.92860  0.35836  0.92660  1.0000
  C   C1114     1.0  0.82753  0.42401  0.91981  1.0000
  H   H874      1.0  0.98907  0.07320  0.52931  1.0000
  C   C1115     1.0  0.83994  0.43586  0.89237  1.0000
  C   C1116     1.0  0.85999  0.41774  0.87448  1.0000
  C   C1117     1.0  0.86780  0.38783  0.88405  1.0000
  C   C1118     1.0  0.86570  0.30937  0.89359  1.0000
  C   C1119     1.0  0.84942  0.31525  0.86626  1.0000
  C   C1120     1.0  0.84846  0.29288  0.84290  1.0000
  C   C1121     1.0  0.86307  0.26427  0.84696  1.0000
  C   C1122     1.0  0.87850  0.25793  0.87442  1.0000
  C   C1123     1.0  0.87981  0.28039  0.89755  1.0000
  H   H875      1.0  0.83424  0.45921  0.88505  1.0000
  H   H876      1.0  0.86290  0.35288  0.99024  1.0000
  C   C1124     1.0  0.94518  0.09378  0.54193  1.0000
  C   C1125     1.0  0.71328  0.39150  0.76259  1.0000
  H   H877      1.0  0.81500  0.29287  0.92680  1.0000
  H   H878      1.0  0.81455  0.50734  0.61804  1.0000
  H   H879      1.0  0.92342  0.45631  0.67917  1.0000
  C   C1126     1.0  0.68792  0.42288  0.60103  1.0000
  H   H880      1.0  0.97637  0.37316  0.92701  1.0000
  H   H881      1.0  0.92272  0.37459  0.90867  1.0000
  C   C1127     1.0  0.83530  0.39408  0.92947  1.0000
  H   H882      1.0  0.88224  0.05266  0.89224  1.0000
  C   C1128     1.0  0.93444  0.50392  0.66916  1.0000
  H   H883      1.0  0.86985  0.42711  0.85337  1.0000
  H   H884      1.0  0.88362  0.37422  0.87004  1.0000
  H   H885      1.0  0.83749  0.33697  0.86282  1.0000
  H   H886      1.0  0.83667  0.29784  0.82154  1.0000
  H   H887      1.0  0.86277  0.24709  0.82878  1.0000
  H   H888      1.0  0.88995  0.23580  0.87771  1.0000
  H   H889      1.0  0.89196  0.27509  0.91851  1.0000
  H   H890      1.0  0.69371  0.15739  0.88666  1.0000
  C   C1129     1.0  0.71308  0.06026  0.88098  1.0000
  H   H891      1.0  0.75559  0.16527  0.83835  1.0000
  C   C1130     1.0  0.80545  0.19373  0.90146  1.0000
  H   H892      1.0  0.90788  0.19172  0.80025  1.0000
  C   C1131     1.0  0.79105  0.21514  0.92104  1.0000
  H   H893      1.0  0.97432  0.27539  0.77251  1.0000
  C   C1132     1.0  0.84954  0.08898  0.88217  1.0000
  C   C1133     1.0  0.77975  0.12168  0.84436  1.0000
  H   H894      1.0  0.74921  0.43553  0.66459  1.0000
  C   C1134     1.0  0.00379  0.47915  0.85670  1.0000
  H   H895      1.0  0.94829  0.09013  0.56644  1.0000
  C   C1135     1.0  0.76166  0.20893  0.93347  1.0000
  H   H896      1.0  0.87315  0.15264  0.88444  1.0000
  H   H897      1.0  0.73783  0.47718  0.62812  1.0000
  H   H898      1.0  0.01454  0.25886  0.73464  1.0000
  C   C1136     1.0  0.88879  0.18170  0.81331  1.0000
  C   C1137     1.0  0.79033  0.16600  0.89396  1.0000
  H   H899      1.0  0.81885  0.07630  0.96565  1.0000
  P   P38       1.0  0.80886  0.13757  0.86954  1.0000
  C   C1138     1.0  0.86902  0.15944  0.86078  1.0000
  H   H900      1.0  0.85851  0.09231  0.85899  1.0000
  C   C1139     1.0  0.81388  0.10232  0.92359  1.0000
  C   C1140     1.0  0.76066  0.16006  0.90628  1.0000
  H   H901      1.0  0.80344  0.23577  0.92784  1.0000
  H   H902      1.0  0.74881  0.13850  0.90137  1.0000
  H   H903      1.0  0.68554  0.26432  0.66002  1.0000
  H   H904      1.0  0.73410  0.04761  0.87556  1.0000
  C   C1141     1.0  0.85966  0.17791  0.79980  1.0000
  C   C1142     1.0  0.96793  0.33677  0.95992  1.0000
  C   C1143     1.0  0.98315  0.44009  0.72419  1.0000
  C   C1144     1.0  0.89886  0.47277  0.63961  1.0000
  H   H905      1.0  0.88687  0.45109  0.63586  1.0000
  C   C1145     1.0  0.82503  0.10735  0.89346  1.0000
  C   C1146     1.0  0.75759  0.07823  0.81672  1.0000
  C   C1147     1.0  0.80479  0.30138  0.00407  1.0000
  H   H906      1.0  0.69275  0.21322  0.90042  1.0000
  C   C1148     1.0  0.97486  0.28542  0.74954  1.0000
  S   S156      1.0  0.01074  0.21375  0.91062  1.0000
  C   C1149     1.0  0.68495  0.09559  0.91489  1.0000
  C   C1150     1.0  0.97718  0.31275  0.69108  1.0000
  C   C1151     1.0  0.95335  0.32103  0.71182  1.0000
  C   C1152     1.0  0.95307  0.30795  0.74152  1.0000
  P   P39       1.0  0.92693  0.35208  0.70252  1.0000
  C   C1153     1.0  0.91311  0.35212  0.66329  1.0000
  C   C1154     1.0  0.89199  0.34978  0.72572  1.0000
  C   C1155     1.0  0.87718  0.37680  0.73610  1.0000
  C   C1156     1.0  0.84947  0.37494  0.75306  1.0000
  C   C1157     1.0  0.83622  0.34615  0.75956  1.0000
  C   C1158     1.0  0.85058  0.31912  0.74890  1.0000
  C   C1159     1.0  0.87820  0.32092  0.73175  1.0000
  C   C1160     1.0  0.89660  0.37793  0.65240  1.0000
  C   C1161     1.0  0.88559  0.37850  0.62213  1.0000
  C   C1162     1.0  0.89079  0.35329  0.60258  1.0000
  C   C1163     1.0  0.90634  0.32714  0.61353  1.0000
  C   C1164     1.0  0.91709  0.32634  0.64391  1.0000
  C   C1165     1.0  0.94847  0.38688  0.71058  1.0000
  C   C1166     1.0  0.95303  0.39593  0.74124  1.0000
  C   C1167     1.0  0.96983  0.42269  0.74803  1.0000
  Fe  Fe77      1.0  0.73596  0.37753  0.52889  1.0000
  H   H907      1.0  0.69878  0.46955  0.58717  1.0000
  C   C1168     1.0  0.96268  0.40389  0.68674  1.0000
  C   C1169     1.0  0.83981  0.15519  0.84735  1.0000
  C   C1170     1.0  0.74647  0.18141  0.92601  1.0000
  C   C1171     1.0  0.82709  0.32412  0.00971  1.0000
  H   H908      1.0  0.97924  0.32404  0.66886  1.0000
  H   H909      1.0  0.93645  0.31543  0.75886  1.0000
  H   H910      1.0  0.88678  0.39942  0.73097  1.0000
  H   H911      1.0  0.83827  0.39601  0.76095  1.0000
  H   H912      1.0  0.81479  0.34488  0.77275  1.0000
  H   H913      1.0  0.84033  0.29676  0.75387  1.0000
  H   H914      1.0  0.88884  0.29981  0.72328  1.0000
  H   H915      1.0  0.89204  0.39758  0.66737  1.0000
  H   H916      1.0  0.87286  0.39844  0.61380  1.0000
  H   H917      1.0  0.88240  0.35388  0.57905  1.0000
  H   H918      1.0  0.90993  0.30744  0.59841  1.0000
  H   H919      1.0  0.92826  0.30552  0.65210  1.0000
  H   H920      1.0  0.94365  0.38216  0.75989  1.0000
  C   C1172     1.0  0.85199  0.06184  0.93099  1.0000
  C   C1173     1.0  0.70878  0.38031  0.73264  1.0000
  H   H921      1.0  0.74002  0.29086  0.51955  1.0000
  H   H922      1.0  0.96052  0.39673  0.66292  1.0000
  C   C1174     1.0  0.79584  0.33996  0.61425  1.0000
  C   C1175     1.0  0.81725  0.32784  0.63502  1.0000
  C   C1176     1.0  0.81111  0.32900  0.66668  1.0000
  C   C1177     1.0  0.78344  0.34214  0.67760  1.0000
  C   C1178     1.0  0.76212  0.35509  0.65687  1.0000
  C   C1179     1.0  0.76838  0.35354  0.62508  1.0000
  P   P40       1.0  0.72589  0.37131  0.67061  1.0000
  C   C1180     1.0  0.89340  0.17235  0.84375  1.0000
  C   C1181     1.0  0.73108  0.38588  0.70944  1.0000
  C   C1182     1.0  0.73407  0.09734  0.80555  1.0000
  H   H923      1.0  0.87473  0.49563  0.60346  1.0000
  C   C1183     1.0  0.73995  0.40844  0.76958  1.0000
  C   C1184     1.0  0.76234  0.41384  0.74675  1.0000
  C   C1185     1.0  0.75806  0.40242  0.71694  1.0000
  S   S157      1.0  0.68240  0.12093  0.94721  1.0000
  H   H924      1.0  0.89920  0.29999  0.97115  1.0000
  H   H925      1.0  0.91594  0.17486  0.85434  1.0000
  H   H926      1.0  0.95306  0.29962  0.98958  1.0000
  H   H927      1.0  0.68387  0.44629  0.71701  1.0000
  H   H928      1.0  0.68799  0.36723  0.72789  1.0000
  H   H929      1.0  0.78337  0.27250  0.97003  1.0000
  C   C1186     1.0  0.82736  0.07971  0.94226  1.0000
  H   H930      1.0  0.75736  0.05374  0.81122  1.0000
  C   C1187     1.0  0.69465  0.39879  0.62140  1.0000
  H   H931      1.0  0.72708  0.30342  0.66254  1.0000
  H   H932      1.0  0.80039  0.33879  0.58965  1.0000
  H   H933      1.0  0.83850  0.31737  0.62652  1.0000
  H   H934      1.0  0.82777  0.31966  0.68274  1.0000
  H   H935      1.0  0.77885  0.34228  0.70218  1.0000
  H   H936      1.0  0.75207  0.36275  0.60855  1.0000
  H   H937      1.0  0.81210  0.43820  0.93374  1.0000
  H   H938      1.0  0.97230  0.42997  0.77183  1.0000
  H   H939      1.0  0.74341  0.41730  0.79270  1.0000
  H   H940      1.0  0.78315  0.42691  0.75204  1.0000
  H   H941      1.0  0.77607  0.40637  0.69981  1.0000
  H   H942      1.0  0.75119  0.22485  0.94983  1.0000
  C   C1188     1.0  0.73352  0.12872  0.81328  1.0000
  C   C1189     1.0  0.75639  0.14093  0.83246  1.0000
  H   H943      1.0  0.79801  0.07489  0.84484  1.0000
  H   H944      1.0  0.86262  0.04458  0.94564  1.0000
  C   C1190     1.0  0.91964  0.47568  0.66388  1.0000
  H   H945      1.0  0.71589  0.08747  0.79152  1.0000
  C   C1191     1.0  0.99761  0.27628  0.72827  1.0000
  C   C1192     1.0  0.96811  0.08418  0.52103  1.0000
  H   H946      1.0  0.70384  0.14163  0.70951  1.0000
  H   H947      1.0  0.85616  0.18495  0.77611  1.0000
  H   H948      1.0  0.71513  0.14342  0.80473  1.0000
  C   C1193     1.0  0.78041  0.09029  0.83603  1.0000
  C   C1194     1.0  0.70307  0.45132  0.60379  1.0000
  H   H949      1.0  0.82550  0.38558  0.95088  1.0000
  C   C1195     1.0  0.99891  0.29010  0.69913  1.0000
  C   C1196     1.0  0.89205  0.49833  0.62118  1.0000
  H   H950      1.0  0.99060  0.44375  0.67513  1.0000
  H   H951      1.0  0.99590  0.46103  0.72946  1.0000
  C   C1197     1.0  0.68713  0.14647  0.72771  1.0000
  S   S158      1.0  0.69041  0.03388  0.82786  1.0000
  H   H952      1.0  0.00789  0.46230  0.81024  1.0000
  C   C1198     1.0  0.68726  0.05751  0.86143  1.0000
  H   H953      1.0  0.98353  0.49320  0.85178  1.0000
  Fe  Fe78      1.0  0.01485  0.21954  0.85929  1.0000
  H   H954      1.0  0.01087  0.08735  0.84287  1.0000
  H   H955      1.0  0.00476  0.49144  0.90475  1.0000
  Fe  Fe79      1.0  0.01254  0.26582  0.91216  1.0000
  C   C1199     1.0  0.91826  0.10810  0.53119  1.0000
  H   H956      1.0  0.68540  0.09933  0.74340  1.0000
  H   H957      1.0  0.00886  0.14431  0.85090  1.0000
  H   H958      1.0  0.68393  0.19505  0.71709  1.0000
  H   H959      1.0  0.68388  0.37651  0.61759  1.0000
  Fe  Fe80      1.0  0.77610  0.89804  0.48248  1.0000
  S   S159      1.0  0.78057  0.84662  0.47534  1.0000
  S   S160      1.0  0.80916  0.93264  0.45959  1.0000
  Fe  Fe81      1.0  0.72814  0.84661  0.47490  1.0000
  H   H960      1.0  0.75953  0.56116  0.14975  1.0000
  S   S161      1.0  0.72407  0.89837  0.47876  1.0000
  H   H961      1.0  0.73741  0.73539  0.30968  1.0000
  C   C1200     1.0  0.71168  0.56696  0.26483  1.0000
  S   S162      1.0  0.81230  0.68061  0.08183  1.0000
  Fe  Fe82      1.0  0.73802  0.60029  0.04493  1.0000
  H   H962      1.0  0.82828  0.97152  0.07911  1.0000
  S   S163      1.0  0.73251  0.65169  0.05131  1.0000
  Fe  Fe83      1.0  0.85439  0.98266  0.28618  1.0000
  S   S164      1.0  0.90654  0.97867  0.28520  1.0000
  S   S165      1.0  0.82097  0.95162  0.31346  1.0000
  Fe  Fe84      1.0  0.90242  0.97933  0.23350  1.0000
  S   S166      1.0  0.92918  0.95128  0.19719  1.0000
  S   S167      1.0  0.85027  0.98005  0.23427  1.0000
  Fe  Fe85      1.0  0.98519  0.74482  0.10174  1.0000
  S   S168      1.0  0.98986  0.73319  0.15209  1.0000
  S   S169      1.0  0.95388  0.72118  0.06662  1.0000
  Fe  Fe86      1.0  0.99574  0.78496  0.15864  1.0000
  S   S170      1.0  0.97196  0.80952  0.19900  1.0000
  S   S171      1.0  0.98752  0.79638  0.10891  1.0000
  C   C1201     1.0  0.94102  0.91188  0.19846  1.0000
  C   C1202     1.0  0.95576  0.89891  0.17240  1.0000
  C   C1203     1.0  0.96566  0.86778  0.17231  1.0000
  C   C1204     1.0  0.96086  0.84920  0.19836  1.0000
  C   C1205     1.0  0.94595  0.86211  0.22436  1.0000
  C   C1206     1.0  0.93615  0.89330  0.22447  1.0000
  H   H963      1.0  0.95968  0.91307  0.15217  1.0000
  H   H964      1.0  0.97687  0.85813  0.15207  1.0000
  H   H965      1.0  0.94209  0.84796  0.24462  1.0000
  H   H966      1.0  0.92515  0.90309  0.24475  1.0000
  H   H967      1.0  0.92622  0.64140  0.02654  1.0000
  P   P41       1.0  0.89346  0.82778  0.05746  1.0000
  C   C1207     1.0  0.87484  0.71491  0.46953  1.0000
  C   C1208     1.0  0.84807  0.78146  0.06022  1.0000
  C   C1209     1.0  0.99747  0.63678  0.09414  1.0000
  H   H968      1.0  0.70928  0.61321  0.20306  1.0000
  H   H969      1.0  0.94661  0.86954  0.06097  1.0000
  Fe  Fe87      1.0  0.78466  0.65373  0.04597  1.0000
  C   C1210     1.0  0.74197  0.53031  0.29424  1.0000
  C   C1211     1.0  0.97587  0.79246  0.02530  1.0000
  C   C1212     1.0  0.85164  0.69179  0.07711  1.0000
  C   C1213     1.0  0.86721  0.68899  0.04884  1.0000
  C   C1214     1.0  0.89826  0.69894  0.04594  1.0000
  C   C1215     1.0  0.91432  0.71080  0.07140  1.0000
  C   C1216     1.0  0.89874  0.71359  0.09966  1.0000
  C   C1217     1.0  0.86736  0.70471  0.10228  1.0000
  C   C1218     1.0  0.92517  0.65226  0.48527  1.0000
  H   H970      1.0  0.76045  0.85132  0.08784  1.0000
  H   H971      1.0  0.91086  0.72260  0.11946  1.0000
  H   H972      1.0  0.85521  0.70761  0.12400  1.0000
  C   C1219     1.0  0.81242  0.93739  0.41888  1.0000
  C   C1220     1.0  0.79240  0.92229  0.39856  1.0000
  C   C1221     1.0  0.79540  0.92694  0.36644  1.0000
  C   C1222     1.0  0.81848  0.94656  0.35418  1.0000
  C   C1223     1.0  0.83868  0.96145  0.37446  1.0000
  C   C1224     1.0  0.83553  0.95703  0.40663  1.0000
  H   H973      1.0  0.77455  0.90711  0.40759  1.0000
  H   H974      1.0  0.77973  0.91520  0.35099  1.0000
  H   H975      1.0  0.85682  0.97622  0.36533  1.0000
  H   H976      1.0  0.85125  0.96869  0.42208  1.0000
  C   C1225     1.0  0.88958  0.88331  0.02411  1.0000
  C   C1226     1.0  0.73021  0.62711  0.20410  1.0000
  C   C1227     1.0  0.72508  0.86414  0.12086  1.0000
  H   H977      1.0  0.75814  0.00529  0.25516  1.0000
  C   C1228     1.0  0.72595  0.65809  0.29802  1.0000
  H   H978      1.0  0.80691  0.67398  0.20669  1.0000
  C   C1229     1.0  0.68934  0.59509  0.12184  1.0000
  H   H979      1.0  0.81257  0.74630  0.06195  1.0000
  C   C1230     1.0  0.72795  0.67023  0.35277  1.0000
  H   H980      1.0  0.88907  0.86651  0.16519  1.0000
  C   C1231     1.0  0.95428  0.84835  0.04993  1.0000
  H   H981      1.0  0.91074  0.77685  0.09699  1.0000
  H   H982      1.0  0.70328  0.75993  0.40334  1.0000
  C   C1232     1.0  0.76880  0.65509  0.23331  1.0000
  P   P42       1.0  0.71875  0.63091  0.26725  1.0000
  C   C1233     1.0  0.73402  0.71110  0.31504  1.0000
  C   C1234     1.0  0.92180  0.56004  0.16314  1.0000
  H   H983      1.0  0.85726  0.57071  0.01488  1.0000
  H   H984      1.0  0.76710  0.60379  0.30671  1.0000
  C   C1235     1.0  0.91035  0.62458  0.03640  1.0000
  H   H985      1.0  0.73010  0.69765  0.26757  1.0000
  H   H986      1.0  0.77811  0.66299  0.25503  1.0000
  S   S172      1.0  0.79006  0.60229  0.04243  1.0000
  C   C1236     1.0  0.90469  0.79619  0.11174  1.0000
  C   C1237     1.0  0.74062  0.63877  0.23239  1.0000
  H   H987      1.0  0.79320  0.94543  0.11605  1.0000
  H   H988      1.0  0.83420  0.93946  0.02029  1.0000
  H   H989      1.0  0.84739  0.91593  0.22554  1.0000
  C   C1238     1.0  0.93321  0.82420  0.04441  1.0000
  C   C1239     1.0  0.72396  0.64869  0.32902  1.0000
  H   H990      1.0  0.85687  0.54976  0.16695  1.0000
  H   H991      1.0  0.88414  0.87244  0.10885  1.0000
  C   C1240     1.0  0.90093  0.81829  0.16286  1.0000
  C   C1241     1.0  0.69783  0.56598  0.11046  1.0000
  C   C1242     1.0  0.75954  0.55467  0.30617  1.0000
  C   C1243     1.0  0.88264  0.72454  0.49948  1.0000
  H   H992      1.0  0.01017  0.52558  0.33495  1.0000
  C   C1244     1.0  0.71862  0.87949  0.14858  1.0000
  C   C1245     1.0  0.86922  0.58144  0.06183  1.0000
  H   H993      1.0  0.73614  0.71809  0.36418  1.0000
  C   C1246     1.0  0.87271  0.75383  0.50967  1.0000
  H   H994      1.0  0.86790  0.82102  0.24478  1.0000
  H   H995      1.0  0.71018  0.75330  0.45939  1.0000
  C   C1247     1.0  0.88967  0.84991  0.11820  1.0000
  C   C1248     1.0  0.99646  0.81698  0.02984  1.0000
  C   C1249     1.0  0.93006  0.63400  0.14585  1.0000
  H   H996      1.0  0.69336  0.57122  0.24840  1.0000
  C   C1250     1.0  0.84578  0.87098  0.05733  1.0000
  H   H997      1.0  0.92930  0.77604  0.03062  1.0000
  C   C1251     1.0  0.89527  0.82439  0.09881  1.0000
  H   H998      1.0  0.91547  0.77158  0.15356  1.0000
  C   C1252     1.0  0.85722  0.73406  0.45040  1.0000
  H   H999      1.0  0.83345  0.80454  0.20217  1.0000
  C   C1253     1.0  0.98571  0.84484  0.04231  1.0000
  C   C1254     1.0  0.90734  0.79311  0.14368  1.0000
  C   C1255     1.0  0.78533  0.66116  0.20600  1.0000
  C   C1256     1.0  0.69560  0.73724  0.44685  1.0000
  H   H1000     1.0  0.80825  0.90404  0.05741  1.0000
  C   C1257     1.0  0.68615  0.59600  0.39851  1.0000
  H   H1001     1.0  0.88511  0.97191  0.08792  1.0000
  H   H1002     1.0  0.85523  0.67938  0.02922  1.0000
  C   C1258     1.0  0.73019  0.68960  0.29124  1.0000
  H   H1003     1.0  0.90397  0.81612  0.18754  1.0000
  H   H1004     1.0  0.80586  0.84334  0.17129  1.0000
  C   C1259     1.0  0.89239  0.84673  0.15016  1.0000
  C   C1260     1.0  0.77401  0.65071  0.17772  1.0000
  H   H1005     1.0  0.90417  0.57686  0.47590  1.0000
  C   C1261     1.0  0.89214  0.60628  0.01709  1.0000
  H   H1006     1.0  0.69501  0.61565  0.10871  1.0000
  S   S173      1.0  0.71802  0.56150  0.07483  1.0000
  H   H1007     1.0  0.71869  0.62489  0.33496  1.0000
  H   H1008     1.0  0.84632  0.78595  0.08472  1.0000
  H   H1009     1.0  0.85131  0.72653  0.42735  1.0000
  C   C1262     1.0  0.91056  0.56254  0.13290  1.0000
  P   P43       1.0  0.88502  0.59411  0.12275  1.0000
  C   C1263     1.0  0.94052  0.66005  0.16180  1.0000
  H   H1010     1.0  0.87431  0.87680  0.25642  1.0000
  C   C1264     1.0  0.74653  0.63357  0.17685  1.0000
  C   C1265     1.0  0.83103  0.89831  0.04827  1.0000
  C   C1266     1.0  0.85478  0.77272  0.49059  1.0000
  H   H1011     1.0  0.73785  0.62518  0.15502  1.0000
  H   H1012     1.0  0.94694  0.61822  0.13599  1.0000
  H   H1013     1.0  0.70394  0.92481  0.39756  1.0000
  H   H1014     1.0  0.94111  0.61588  0.45501  1.0000
  H   H1015     1.0  0.00853  0.55957  0.08338  1.0000
  H   H1016     1.0  0.85325  0.56440  0.07116  1.0000
  C   C1267     1.0  0.86931  0.79768  0.04151  1.0000
  H   H1017     1.0  0.96521  0.66434  0.16388  1.0000
  H   H1018     1.0  0.84660  0.79499  0.49880  1.0000
  C   C1268     1.0  0.84533  0.58483  0.13314  1.0000
  C   C1269     1.0  0.82081  0.59994  0.11822  1.0000
  C   C1270     1.0  0.79006  0.59126  0.12411  1.0000
  C   C1271     1.0  0.78345  0.56802  0.14555  1.0000
  C   C1272     1.0  0.80764  0.55349  0.16123  1.0000
  C   C1273     1.0  0.83851  0.56175  0.15500  1.0000
  C   C1274     1.0  0.90755  0.62183  0.06848  1.0000
  H   H1019     1.0  0.88215  0.69265  0.46074  1.0000
  C   C1275     1.0  0.89810  0.62837  0.14275  1.0000
  C   C1276     1.0  0.91918  0.68059  0.17501  1.0000
  C   C1277     1.0  0.88734  0.67508  0.17221  1.0000
  C   C1278     1.0  0.87678  0.64916  0.15598  1.0000
  H   H1020     1.0  0.82549  0.61796  0.10144  1.0000
  H   H1021     1.0  0.77128  0.60225  0.11167  1.0000
  C   C1279     1.0  0.90437  0.60016  0.48520  1.0000
  H   H1022     1.0  0.83414  0.85549  0.07330  1.0000
  C   C1280     1.0  0.90467  0.66052  0.50928  1.0000
  H   H1023     1.0  0.92115  0.63700  0.08287  1.0000
  C   C1281     1.0  0.87160  0.58474  0.02984  1.0000
  H   H1024     1.0  0.92736  0.70091  0.18716  1.0000
  H   H1025     1.0  0.87082  0.69126  0.18208  1.0000
  H   H1026     1.0  0.85205  0.64570  0.15350  1.0000
  C   C1282     1.0  0.75297  0.58524  0.29767  1.0000
  H   H1027     1.0  0.91538  0.57696  0.18052  1.0000
  H   H1028     1.0  0.70669  0.58874  0.41082  1.0000
  H   H1029     1.0  0.72661  0.66286  0.37663  1.0000
  H   H1030     1.0  0.78656  0.65565  0.15645  1.0000
  C   C1283     1.0  0.88719  0.59995  0.08146  1.0000
  C   C1284     1.0  0.75542  0.86349  0.10917  1.0000
  C   C1285     1.0  0.82867  0.75906  0.04737  1.0000
  C   C1286     1.0  0.77271  0.99465  0.20871  1.0000
  C   C1287     1.0  0.74244  0.89430  0.16461  1.0000
  C   C1288     1.0  0.77288  0.89407  0.15280  1.0000
  C   C1289     1.0  0.77926  0.87829  0.12514  1.0000
  P   P44       1.0  0.80413  0.91192  0.17380  1.0000
  C   C1290     1.0  0.83004  0.93036  0.14633  1.0000
  C   C1291     1.0  0.78827  0.94132  0.19918  1.0000
  C   C1292     1.0  0.78386  0.97178  0.18864  1.0000
  H   H1031     1.0  0.77818  0.54975  0.32205  1.0000
  C   C1293     1.0  0.72808  0.59164  0.27794  1.0000
  C   C1294     1.0  0.76919  0.95694  0.24981  1.0000
  C   C1295     1.0  0.78028  0.93397  0.22983  1.0000
  C   C1296     1.0  0.86219  0.93106  0.15126  1.0000
  C   C1297     1.0  0.88194  0.94561  0.12999  1.0000
  C   C1298     1.0  0.86977  0.95998  0.10391  1.0000
  C   C1299     1.0  0.83779  0.95969  0.09895  1.0000
  C   C1300     1.0  0.81799  0.94487  0.11998  1.0000
  C   C1301     1.0  0.82442  0.88283  0.19601  1.0000
  C   C1302     1.0  0.82068  0.85113  0.18969  1.0000
  C   C1303     1.0  0.83622  0.82892  0.20728  1.0000
  C   C1304     1.0  0.85561  0.83814  0.23127  1.0000
  C   C1305     1.0  0.85938  0.86954  0.23774  1.0000
  C   C1306     1.0  0.84399  0.89177  0.22016  1.0000
  C   C1307     1.0  0.87539  0.86356  0.04576  1.0000
  H   H1032     1.0  0.68493  0.64086  0.41951  1.0000
  C   C1308     1.0  0.71843  0.53645  0.27318  1.0000
  H   H1033     1.0  0.73701  0.90582  0.18618  1.0000
  H   H1034     1.0  0.80277  0.87722  0.11617  1.0000
  H   H1035     1.0  0.78968  0.97834  0.16527  1.0000
  C   C1309     1.0  0.84708  0.76290  0.46098  1.0000
  C   C1310     1.0  0.73316  0.70138  0.34578  1.0000
  H   H1036     1.0  0.76442  0.95143  0.27380  1.0000
  H   H1037     1.0  0.78331  0.91075  0.23869  1.0000
  H   H1038     1.0  0.87223  0.92107  0.17174  1.0000
  H   H1039     1.0  0.90669  0.94647  0.13432  1.0000
  S   S174      1.0  0.70229  0.82050  0.43733  1.0000
  C   C1311     1.0  0.92514  0.62213  0.47345  1.0000
  H   H1040     1.0  0.94113  0.66917  0.47564  1.0000
  H   H1041     1.0  0.83323  0.77773  0.44632  1.0000
  H   H1042     1.0  0.91014  0.69704  0.02399  1.0000
  C   C1312     1.0  0.94153  0.53568  0.17119  1.0000
  C   C1313     1.0  0.94441  0.79593  0.03276  1.0000
  C   C1314     1.0  0.76566  0.98731  0.23935  1.0000
  H   H1043     1.0  0.00211  0.86317  0.04731  1.0000
  C   C1315     1.0  0.69176  0.74093  0.41511  1.0000
  H   H1044     1.0  0.95036  0.53403  0.19448  1.0000
  C   C1316     1.0  0.91883  0.53986  0.11109  1.0000
  H   H1045     1.0  0.80241  0.53546  0.17785  1.0000
  H   H1046     1.0  0.70661  0.85257  0.10854  1.0000
  C   C1317     1.0  0.83039  0.75251  0.01585  1.0000
  H   H1047     1.0  0.91021  0.54081  0.08776  1.0000
  H   H1048     1.0  0.70506  0.51750  0.26363  1.0000
  H   H1049     1.0  0.69514  0.87979  0.15776  1.0000
  H   H1050     1.0  0.91180  0.87758  0.01382  1.0000
  C   C1318     1.0  0.84562  0.91826  0.02732  1.0000
  H   H1051     1.0  0.98445  0.77025  0.01734  1.0000
  C   C1319     1.0  0.88355  0.60836  0.50870  1.0000
  C   C1320     1.0  0.68999  0.53947  0.12773  1.0000
  H   H1052     1.0  0.69643  0.51685  0.11909  1.0000
  C   C1321     1.0  0.87482  0.91070  0.01517  1.0000
  H   H1053     1.0  0.98035  0.65484  0.09040  1.0000
  H   H1054     1.0  0.96942  0.60038  0.07497  1.0000
  C   C1322     1.0  0.99137  0.60623  0.08541  1.0000
  C   C1323     1.0  0.01368  0.58318  0.09003  1.0000
  H   H1055     1.0  0.68229  0.71134  0.48720  1.0000
  C   C1324     1.0  0.93847  0.51547  0.11926  1.0000
  C   C1325     1.0  0.68286  0.92254  0.41125  1.0000
  C   C1326     1.0  0.71848  0.91192  0.73824  1.0000
  C   C1327     1.0  0.87522  0.51639  0.52534  1.0000
  H   H1056     1.0  0.00306  0.84971  0.59627  1.0000
  Fe  Fe88      1.0  0.01297  0.77644  0.67251  1.0000
  S   S175      1.0  0.80143  0.80936  0.55813  1.0000
  C   C1328     1.0  0.80216  0.95673  0.65483  1.0000
  Fe  Fe89      1.0  0.96961  0.77710  0.61746  1.0000
  S   S176      1.0  0.96112  0.78080  0.66850  1.0000
  S   S177      1.0  0.94695  0.80931  0.58276  1.0000
  Fe  Fe90      1.0  0.96056  0.72855  0.66786  1.0000
  S   S178      1.0  0.92151  0.70272  0.69269  1.0000
  S   S179      1.0  0.96575  0.72535  0.61635  1.0000
  H   H1057     1.0  0.84761  0.90852  0.52222  1.0000
  S   S180      1.0  0.73304  0.60175  0.99295  1.0000
  H   H1058     1.0  0.71638  0.93082  0.75456  1.0000
  Fe  Fe91      1.0  0.78476  0.60815  0.99123  1.0000
  S   S181      1.0  0.82031  0.58336  0.96085  1.0000
  S   S182      1.0  0.78318  0.66003  0.99463  1.0000
  H   H1059     1.0  0.89537  0.95034  0.66672  1.0000
  C   C1329     1.0  0.87420  0.54843  0.57156  1.0000
  S   S183      1.0  0.80440  0.54250  0.82064  1.0000
  C   C1330     1.0  0.96878  0.69187  0.53226  1.0000
  S   S184      1.0  0.93474  0.56027  0.72775  1.0000
  H   H1060     1.0  0.99645  0.64147  0.58540  1.0000
  C   C1331     1.0  0.80861  0.55294  0.85990  1.0000
  C   C1332     1.0  0.83579  0.54627  0.87598  1.0000
  C   C1333     1.0  0.83888  0.55570  0.90688  1.0000
  C   C1334     1.0  0.81490  0.57188  0.92204  1.0000
  C   C1335     1.0  0.78774  0.57871  0.90594  1.0000
  C   C1336     1.0  0.78455  0.56908  0.87505  1.0000
  S   S185      1.0  0.77492  0.89474  0.53466  1.0000
  C   C1337     1.0  0.84913  0.96268  0.59366  1.0000
  H   H1061     1.0  0.76936  0.59158  0.91724  1.0000
  H   H1062     1.0  0.76350  0.57442  0.86275  1.0000
  C   C1338     1.0  0.92517  0.66301  0.70198  1.0000
  C   C1339     1.0  0.95358  0.64767  0.69896  1.0000
  C   C1340     1.0  0.95596  0.61615  0.70675  1.0000
  C   C1341     1.0  0.93005  0.59971  0.71786  1.0000
  C   C1342     1.0  0.90150  0.61494  0.72065  1.0000
  C   C1343     1.0  0.89911  0.64651  0.71277  1.0000
  H   H1063     1.0  0.97384  0.66019  0.69094  1.0000
  H   H1064     1.0  0.97811  0.60453  0.70447  1.0000
  H   H1065     1.0  0.88136  0.60246  0.72903  1.0000
  H   H1066     1.0  0.87702  0.65822  0.71516  1.0000
  C   C1344     1.0  0.84925  0.97520  0.56386  1.0000
  H   H1067     1.0  0.99388  0.84330  0.54044  1.0000
  H   H1068     1.0  0.90918  0.84468  0.54156  1.0000
  C   C1345     1.0  0.71716  0.93822  0.64390  1.0000
  C   C1346     1.0  0.71572  0.92641  0.61364  1.0000
  H   H1069     1.0  0.73817  0.93541  0.65697  1.0000
  H   H1070     1.0  0.73560  0.91499  0.60343  1.0000
  C   C1347     1.0  0.84165  0.81139  0.56614  1.0000
  C   C1348     1.0  0.85402  0.79203  0.58900  1.0000
  C   C1349     1.0  0.88620  0.79125  0.59453  1.0000
  C   C1350     1.0  0.90628  0.81008  0.57732  1.0000
  C   C1351     1.0  0.89384  0.82995  0.55492  1.0000
  C   C1352     1.0  0.86169  0.83057  0.54930  1.0000
  H   H1071     1.0  0.83864  0.77738  0.60232  1.0000
  H   H1072     1.0  0.89548  0.77589  0.61190  1.0000
  S   S186      1.0  0.69567  0.97009  0.69463  1.0000
  H   H1073     1.0  0.88603  0.80434  0.99477  1.0000
  C   C1353     1.0  0.89112  0.65367  0.80077  1.0000
  C   C1354     1.0  0.88879  0.62140  0.80151  1.0000
  C   C1355     1.0  0.86666  0.60729  0.82060  1.0000
  C   C1356     1.0  0.84669  0.62531  0.83868  1.0000
  C   C1357     1.0  0.84802  0.65768  0.83720  1.0000
  C   C1358     1.0  0.87113  0.67180  0.81894  1.0000
  P   P45       1.0  0.82218  0.68038  0.86115  1.0000
  C   C1359     1.0  0.78432  0.66264  0.86377  1.0000
  C   C1360     1.0  0.84079  0.68329  0.89813  1.0000
  C   C1361     1.0  0.83600  0.66043  0.92067  1.0000
  C   C1362     1.0  0.85132  0.66223  0.94892  1.0000
  C   C1363     1.0  0.87168  0.68663  0.95476  1.0000
  C   C1364     1.0  0.87716  0.70908  0.93216  1.0000
  C   C1365     1.0  0.86198  0.70730  0.90381  1.0000
  C   C1366     1.0  0.76503  0.66819  0.88948  1.0000
  C   C1367     1.0  0.73470  0.65668  0.89021  1.0000
  C   C1368     1.0  0.72329  0.63984  0.86527  1.0000
  C   C1369     1.0  0.74230  0.63423  0.83961  1.0000
  C   C1370     1.0  0.77261  0.64576  0.83872  1.0000
  C   C1371     1.0  0.81436  0.71802  0.84495  1.0000
  C   C1372     1.0  0.81384  0.72227  0.81284  1.0000
  C   C1373     1.0  0.80680  0.75130  0.80042  1.0000
  C   C1374     1.0  0.69219  0.58166  0.91218  1.0000
  C   C1375     1.0  0.79891  0.77172  0.85189  1.0000
  C   C1376     1.0  0.80611  0.74277  0.86437  1.0000
  H   H1074     1.0  0.90848  0.66456  0.78608  1.0000
  H   H1075     1.0  0.90429  0.60729  0.78752  1.0000
  H   H1076     1.0  0.86482  0.58234  0.82150  1.0000
  H   H1077     1.0  0.83013  0.61393  0.85377  1.0000
  H   H1078     1.0  0.87376  0.69671  0.81861  1.0000
  H   H1079     1.0  0.82067  0.64103  0.91644  1.0000
  H   H1080     1.0  0.84744  0.64453  0.96626  1.0000
  C   C1377     1.0  0.99915  0.70225  0.53666  1.0000
  H   H1081     1.0  0.89345  0.72763  0.93651  1.0000
  H   H1082     1.0  0.86700  0.72445  0.88625  1.0000
  H   H1083     1.0  0.77313  0.68177  0.90883  1.0000
  Fe  Fe92      1.0  0.77604  0.84329  0.52694  1.0000
  C   C1378     1.0  0.92769  0.52963  0.65078  1.0000
  H   H1084     1.0  0.69000  0.87358  0.63682  1.0000
  H   H1085     1.0  0.78676  0.64166  0.81836  1.0000
  H   H1086     1.0  0.81861  0.70315  0.79734  1.0000
  C   C1379     1.0  0.75019  0.87988  0.70480  1.0000
  C   C1380     1.0  0.88368  0.63838  0.52077  1.0000
  H   H1087     1.0  0.71988  0.66113  0.91005  1.0000
  H   H1088     1.0  0.80482  0.73959  0.88915  1.0000
  H   H1089     1.0  0.78189  0.98767  0.72432  1.0000
  C   C1381     1.0  0.69176  0.89702  0.72776  1.0000
  C   C1382     1.0  0.83662  0.93861  0.69483  1.0000
  C   C1383     1.0  0.84781  0.91105  0.57197  1.0000
  H   H1090     1.0  0.84512  0.72024  0.55361  1.0000
  H   H1091     1.0  0.69965  0.63133  0.86580  1.0000
  C   C1384     1.0  0.82332  0.87933  0.63655  1.0000
  C   C1385     1.0  0.79592  0.87838  0.61933  1.0000
  C   C1386     1.0  0.77716  0.85203  0.61982  1.0000
  C   C1387     1.0  0.78555  0.82643  0.63759  1.0000
  C   C1388     1.0  0.81238  0.82748  0.65547  1.0000
  C   C1389     1.0  0.83104  0.85399  0.65528  1.0000
  C   C1390     1.0  0.90097  0.87828  0.63501  1.0000
  H   H1092     1.0  0.85249  0.84548  0.53152  1.0000
  Fe  Fe93      1.0  0.73130  0.65353  0.99928  1.0000
  H   H1093     1.0  0.82723  0.72056  0.60755  1.0000
  H   H1094     1.0  0.78927  0.89785  0.60512  1.0000
  H   H1095     1.0  0.75674  0.85103  0.60546  1.0000
  H   H1096     1.0  0.77156  0.80562  0.63693  1.0000
  H   H1097     1.0  0.81904  0.80755  0.66905  1.0000
  H   H1098     1.0  0.85157  0.85449  0.66948  1.0000
  H   H1099     1.0  0.88801  0.86143  0.62179  1.0000
  H   H1100     1.0  0.93826  0.55161  0.65639  1.0000
  C   C1391     1.0  0.97648  0.62652  0.58902  1.0000
  C   C1392     1.0  0.96548  0.60802  0.56506  1.0000
  C   C1393     1.0  0.93988  0.58861  0.56992  1.0000
  C   C1394     1.0  0.92515  0.58737  0.59897  1.0000
  C   C1395     1.0  0.93198  0.87206  0.64201  1.0000
  P   P46       1.0  0.89305  0.56123  0.60652  1.0000
  C   C1396     1.0  0.74761  0.90362  0.72652  1.0000
  H   H1101     1.0  0.94247  0.85041  0.63475  1.0000
  H   H1102     1.0  0.93191  0.57479  0.55089  1.0000
  H   H1103     1.0  0.86034  0.69810  0.64876  1.0000
  S   S187      1.0  0.70425  0.68641  0.96844  1.0000
  C   C1397     1.0  0.86574  0.58189  0.63078  1.0000
  H   H1104     1.0  0.86002  0.55046  0.91911  1.0000
  H   H1105     1.0  0.89366  0.60887  0.99224  1.0000
  C   C1398     1.0  0.83423  0.58571  0.67741  1.0000
  H   H1106     1.0  0.79384  0.79850  0.81029  1.0000
  H   H1107     1.0  0.79389  0.95614  0.63130  1.0000
  H   H1108     1.0  0.69698  0.54833  0.87559  1.0000
  C   C1399     1.0  0.88699  0.90598  0.64495  1.0000
  C   C1400     1.0  0.82818  0.93930  0.66361  1.0000
  C   C1401     1.0  0.82334  0.61461  0.66797  1.0000
  H   H1109     1.0  0.82650  0.57606  0.69922  1.0000
  S   S188      1.0  0.68492  0.91367  0.55905  1.0000
  H   H1110     1.0  0.72626  0.84573  0.67842  1.0000
  C   C1402     1.0  0.85488  0.61108  0.62156  1.0000
  H   H1111     1.0  0.77276  0.87358  0.69558  1.0000
  H   H1112     1.0  0.79257  0.79074  0.86700  1.0000
  H   H1113     1.0  0.85452  0.53395  0.86461  1.0000
  H   H1114     1.0  0.98627  0.77979  0.53445  1.0000
  C   C1403     1.0  0.90614  0.52713  0.62680  1.0000
  H   H1115     1.0  0.97699  0.60857  0.54274  1.0000
  H   H1116     1.0  0.88594  0.92600  0.99863  1.0000
  C   C1404     1.0  0.79502  0.97438  0.70745  1.0000
  S   S189      1.0  0.89453  0.52593  0.80262  1.0000
  C   C1405     1.0  0.90512  0.92816  0.66020  1.0000
  H   H1117     1.0  0.88344  0.68789  0.97668  1.0000
  H   H1118     1.0  0.84720  0.88618  0.57474  1.0000
  H   H1119     1.0  0.87840  0.76198  0.53254  1.0000
  H   H1120     1.0  0.95007  0.93887  0.67914  1.0000
  C   C1406     1.0  0.84853  0.95565  0.53816  1.0000
  P   P47       1.0  0.84684  0.91386  0.63608  1.0000
  H   H1121     1.0  0.97358  0.88879  0.66365  1.0000
  H   H1122     1.0  0.82477  0.64944  0.63256  1.0000
  C   C1407     1.0  0.82040  0.95650  0.71656  1.0000
  C   C1408     1.0  0.83346  0.62716  0.63995  1.0000
  C   C1409     1.0  0.84237  0.55380  0.56697  1.0000
  H   H1123     1.0  0.84998  0.97812  0.61330  1.0000
  H   H1124     1.0  0.96434  0.66730  0.53316  1.0000
  P   P48       1.0  0.90479  0.69945  0.52466  1.0000
  C   C1410     1.0  0.93620  0.92189  0.66704  1.0000
  C   C1411     1.0  0.84822  0.92360  0.54223  1.0000
  Fe  Fe94      1.0  0.72319  0.89065  0.53025  1.0000
  H   H1125     1.0  0.92521  0.60618  0.64541  1.0000
  H   H1126     1.0  0.82868  0.56685  0.58343  1.0000
  H   H1127     1.0  0.80713  0.62729  0.68245  1.0000
  C   C1412     1.0  0.72359  0.86448  0.69473  1.0000
  C   C1413     1.0  0.88923  0.69805  0.56348  1.0000
  H   H1128     1.0  0.84970  0.00005  0.56061  1.0000
  H   H1129     1.0  0.82713  0.95607  0.74058  1.0000
  H   H1130     1.0  0.86723  0.64429  0.53886  1.0000
  H   H1131     1.0  0.86337  0.54699  0.66686  1.0000
  C   C1414     1.0  0.85527  0.56930  0.65890  1.0000
  H   H1132     1.0  0.85541  0.92395  0.70253  1.0000
  C   C1415     1.0  0.90672  0.68380  0.58663  1.0000
  C   C1416     1.0  0.89604  0.68346  0.61711  1.0000
  C   C1417     1.0  0.86780  0.69735  0.62481  1.0000
  C   C1418     1.0  0.84938  0.71013  0.60168  1.0000
  C   C1419     1.0  0.85986  0.71023  0.57103  1.0000
  C   C1420     1.0  0.79946  0.77606  0.81994  1.0000
  S   S190      1.0  0.72388  0.83873  0.52582  1.0000
  C   C1421     1.0  0.78586  0.97439  0.67665  1.0000
  H   H1133     1.0  0.86711  0.59147  0.51739  1.0000
  C   C1422     1.0  0.84364  0.52200  0.52093  1.0000
  H   H1134     1.0  0.91439  0.52320  0.55472  1.0000
  C   C1423     1.0  0.84763  0.93048  0.59788  1.0000
  H   H1135     1.0  0.71453  0.57630  0.92223  1.0000
  H   H1136     1.0  0.86288  0.62130  0.60010  1.0000
  H   H1137     1.0  0.92905  0.67360  0.58135  1.0000
  H   H1138     1.0  0.91015  0.67318  0.63496  1.0000
  C   C1424     1.0  0.96170  0.62585  0.61777  1.0000
  H   H1139     1.0  0.80683  0.75454  0.77563  1.0000
  C   C1425     1.0  0.94954  0.89373  0.65820  1.0000
  C   C1426     1.0  0.93619  0.60641  0.62280  1.0000
  H   H1140     1.0  0.97019  0.64042  0.63621  1.0000
  H   H1141     1.0  0.76809  0.91583  0.73410  1.0000
  Fe  Fe95      1.0  0.89896  0.52929  0.75106  1.0000
  H   H1142     1.0  0.69955  0.84891  0.58676  1.0000
  H   H1143     1.0  0.81564  0.73467  0.00619  1.0000
  H   H1144     1.0  0.85219  0.76392  0.97252  1.0000
  S   S191      1.0  0.84763  0.52599  0.74249  1.0000
  C   C1427     1.0  0.69404  0.87337  0.70567  1.0000
  Fe  Fe96      1.0  0.84365  0.51888  0.79410  1.0000
  S   S192      1.0  0.01170  0.72436  0.67632  1.0000
  C   C1428     1.0  0.95111  0.74490  0.52851  1.0000
  C   C1429     1.0  0.94447  0.71307  0.52764  1.0000
  H   H1145     1.0  0.84804  0.96518  0.51499  1.0000
  H   H1146     1.0  0.73358  0.62094  0.82036  1.0000
  H   H1147     1.0  0.76543  0.98738  0.66987  1.0000
  C   C1430     1.0  0.00551  0.73391  0.53727  1.0000
  H   H1148     1.0  0.93297  0.76202  0.52646  1.0000
  C   C1431     1.0  0.98152  0.75520  0.53314  1.0000
  C   C1432     1.0  0.89038  0.52931  0.55066  1.0000
  C   C1433     1.0  0.69157  0.95345  0.65743  1.0000
  C   C1434     1.0  0.68832  0.92904  0.59682  1.0000
  C   C1435     1.0  0.82727  0.54071  0.54169  1.0000
  C   C1436     1.0  0.68803  0.83588  0.60487  1.0000
  C   C1437     1.0  0.85111  0.76886  0.99698  1.0000
  H   H1149     1.0  0.80246  0.54372  0.53899  1.0000
  H   H1150     1.0  0.69525  0.82221  0.74211  1.0000
  C   C1438     1.0  0.87031  0.79159  0.00969  1.0000
  C   C1439     1.0  0.68252  0.84994  0.63333  1.0000
  H   H1151     1.0  0.68275  0.79463  0.57758  1.0000
  H   H1152     1.0  0.68201  0.61818  0.94464  1.0000
  C   C1440     1.0  0.68213  0.56578  0.88600  1.0000
