data_image0
_chemical_formula_structural       H2C4FeS2HCFeS3H2C2HFeS2FeSCFeHFeS3HCHFeS2FeS2Fe2S3CHCH2CH2CHCHCH2CFeHC2HCH3C7H3C6H5CHFeC2H2CHC6H5C4HC2HC4H2CHCH5C2HSCHSHCHCHC3HC6HC4SHC4HC3S2C4HC2H2CH2C3H4CHCHCH2C3HC6HCFeC2H2SCH5CHCH5FeC3PC2H2C9HSH3C2H7C6PC18H10C4H2C4HCH2CH3CPH5PCHC2H2C3HC5HCHC2HC2HSC3SHPC2HCH3FeCHCH6CPCPHCH2C3SC2HSCH2C2SCHC3HC3H3SCHC3HC2H2PCHCH2C2HC2HC2H2CH2C2HCSHC2H2C3H2C2HCHCH3CH2CH2CH2C2FeS2FeS2HSFeSFeSCHCHCHSH2SFeSH5C2SC3HC6H4C6HCH2C2H7C2HC5H4PH2C2HCHSHCHSHC2HCH4C2HC3HC6HC3H3CHC2HC6H4CH2C3HCHC3SC2HC5FeHCH7CFeHCH4C2HC4H5C3HC4PC7H3CHCH3C2HCFeH2PHC4HCHC2H2CH5CHC7HCH2SPC2HC2SH2C6H3SHC3HCHCHC2HFeCH2CHCH2CH2C2HCH2CH2CSCH2C5H3CH3SHCH2CH2CH2C3HCH2CHCHCHCH3CHCHC2H2CHC2HC2HCH2C3HC2HPHC5HC2HC2SHC3H2FeSFeS2FeHS2CFeCFeSHFeS2H2SH2FeSCFe3SCSC2HSHC6H2SHC6H5CFeH3C2FeCH2C8H4C6HC2H2CHC2H2CHCH2CHC4HFeC4H2CHC5HC8H4S2C2H2CHCH6C2HPHPC3FeC6SC2H2SH2CHCH4CSCHC4SC2HC4PC12H7C2H4CHCHSHCS2HSHC3HC2HC3SCH4CH3CH2C2H4CHC4S2H2CHC6PC9PC2HCHCHCH6FeH4C3HSH2CSHC3HCHFeCH4C2HC2HCSHCH3CHFeHCFeH2C2HCH4PHCHCH3PCSCFeCH3CSCH3C2HC2SH3CSCHC2H3C2HCHCHC5SH2C2H2C2H2C2HC2H2C6H2CFeS2FeHCFeSHCSCFeS2FeS2FeSFeS3C4PC2FeS2FeHSFeS2FeS2FeSFeS3C6H7C2H2SFeHC2PFeCH2C3H3C6H4FeC2HCH3CH2C2PCH2CH3C9H8CH2CH2SCH4C6HC2H2CH3CSH2CH2SH2CH3CHCHC3SC2SCH3C2HC4H2C2H2C3HC2HPSC3HC3PC18H3CH12C2H3CH2CHFeHFeC2HCHC2H2C4PCHC2HCHC2HC2H3C2H7CH2CHC3HCH2C2H2FeCSHC6H3C2H2SH4C2H2C2H3CSCHCHC4H3FeC2H2CHC3H2CHC3HPC12H2CH6CH3CHSCHCHC3HC3H2CHCHCHC3HC3HC3PC11FeC6H3CH8C2H4CHC3FeCSC2HCSCH3CHCH2C3HPCHC2FeC3HC3H2CHCH5C2H3C4HC2SHC2H2C2SCSC3HC3HCHC3H2C2H2SHS2HCH4C2HCPCFeS2FeS2FeSFeS3CSCFeS2FeSFeS3FeS2FeS2FeSFeS3FeS2FeSHFeSFeS3FeSCFeS2FeSFeCS2C2H2C7H4C6H4C6PH2C6H4C6H4C6H4C6H5C4H5C6H5C6H10C2H3C2HPCH4C3H2C3FeS2C2HCHCHC2H2C4HPC15HC3HSH12CHCH2C3HFeH2C2SH2CHC6PC18H6CH14C2H3CHC3FeC2HC2HCHC2H3CH5C3H2C2HC4PC18H11CHSHCH3C2HCPS2CHC2H2CH3C2FeC3HC2H3C2HC2H2C3HC4HCHC4HC2HC2HC4PH2C2HC2H2C2H3CHCH2CHC3HCH3PC4HC2H2CFeHCHSC3HC2HC6HCHC2H4C2H6C2H2CH7C2H2C2HC3H2CH2PCHCHCHC4HCHC3H3C3HCH2SHPC6HC5HC4PH4CHC3H2C2HPC2HCPHC2HCH2CSHCH2C4H3C4HC4HC4H2CH2C2H2C2H2CHC2H2CH2CHSHCH2CSHC2HCHCHC2HCHC2HC2H3CHCHC2HSC2HC4HCH2C2HC2HC2HPCH2C3H2CHC2HCHCH2C2HCHC3H2C3FeCHC2H2C4HC2H2C4H3C4H2SH2FeC2HC2HC6HC2HCH2FeHCSHCH2CH2C2HC3H2CH4S2PCHFeCHCHCHC2HC4HCFeSCSFeSFeS2FeS2CFeSHCHC6SH2C2H2C2SH2C2FeS2FeC3S4HCHC2HSHC9H3C3FeH2FeCHCHFeC2HSH4C6SHC7HCH2C6H4C3SHCH2C3HCHCHCFeC2SCHC2PHCH2CH2CH2PC14H2C3H3CH12CH3CHC2H2CHCHC2H3CHCH3CH2CH4C2HCHC2HC2SH2CHC2H2CHCS2C3H2C2HCHSC2H2PCFePC7H2C10H3CH5FeCSH2C3H3C3FeC3H3CHCHCH3C5HC3HSPHCHCH4FeCH2CPHCH2C2HCH2CH2C3FeC2H2CHSCH3CH3C4SCH2C2HCHCHCHSCH2SHCHCHC5HC3H3CHC2HCSC2H3C2PCSC3HCHC3HCHFeHC3SHC4H2C5SC2H5CH2S2C8H2C3HCHCHC2H4C2HPC4H4C2PC2H4CH3C2H2C2H3C3FeCHCH4CHC2H2CHC3H2CH2PC3H2CFeS2FeSH2SHSFeSFeSCFeSCFeSFeS3FeS2FeS2FeSFeS3FeS2FeS2FeSFeS3FeS2FeS2FeSFeS3CH2CHFeS2FeS2FeSFeS3HC3H2C6H4C6H3C7H4C6H4C6H5C3SC3HC7H4C5H3C6H4C6H4C7H7C4HCHC2HSCH3C3HSHCHCH3C6PC18H19C3PHCHC3HC2HC4PC15HC2HC2HCH10CPCH5CH2C2H2CHCHC11HCHCH2C2H2CH4CH3C7PC12H12C6PC15H17C2HC2H4CHCHC2H2CH2CPC3H5C7PC18H26C2HCH3SFeC6HC2HC5H2CHCHC3HC2H4CHCH2C2HC4HC5H3CHC2H2CHC4SHC2SCHSHCH2C3SHCHCHC2HFeH2CHCHCHCH3CHCH3C2HCHCHC3HCHC3HC2H2PC2H4CHCHPC2HC3H2CHC2H3C7HC2HC7FeC3PCHCHC5H5C2H2C3H3CFeCPC4PH4C4FeCH2CHCH2C4H2CHCHCSCHCHC3H2C3HC2HC2H2CSC3H3CH3CH3CH2CH2C2HSHPHCHC3HCHC2HCH4C2HCH2C2H2C2FeC3H5CH2SH3C2FeH2C3PHC2HC2HSC2H2CHC2SHC2SCH4CSHFeS2FeS2FeSFeHS2FeH2FeS2FeSFeHS2HSFeSCFeS2FeS2FeCFeS3C4H3C2HC4H5C6H4C6H4C3H3C4FeCHC6H4CSC2HC4SC2HSC2H3C2H2CHPSHPC2HCH3CHC6H2S2HCHFeH3C2H2CH2CHC2HC7PC2HSH2C2HC9H5C4HCH7CHPC3HCHCHC2PCHCHC4HC2HCHC6H3CH2CH2C2HCH3C2H2CHCHCHC3H4PHCH2C2H2PC2H3C6HCSH2SHCHC3H5C9H5C2HC3PCHFeHC2HC6H3C2H2CH3CSHCH5C3H6C2HC3H2C5HCHC5HC3H3C2H2C2SH2CHCHFeC2HCFeC2FeS2CSC4H2C3H3CH3C4H2C5SPFeCFeC2HC3PCH2C3HC2HC2H2CH3CFeH2C2HCH2CSC3H2CH2CPH2SC8FeC2HSC2H4CHC2HCHC7SHCHCHCHCH2CHCH2CH2C2HC2H5CHC2HC2FeH2C6H2CHCHC3HCH6C2H2C2HC9H2C2SH2C2HCH2C2HC6H4CPCHCH2SC3H3CHCHC2HCH2SC2S2C2FeCSCH2CHCFeSHFeS2HSFeSFeS3CHCHCHC6H4C6H6PCHSCHCH3CHFe2C5HCHC3H5CH2C4HCHCHSHC2H2C3H2CH3CPSCH3C6H3CH3CH2CS2HC2HC2HC7H3CH2C2HC4FeHC4H3C2HC7HC3HC2H4C3PC2HCHCH3CHC2H2CHCH3CHC2HC2FeS2FeS2Fe2S3CHS2CFeS2FeS2FeSFeS3FeS2FeSCFeSFeS3C3HCH5C6H4C6H4SC5H2C3H2C2HC2HCHPHCH3SC6H2PCHCH2CHCH3CH2C13PC16H17C7PC13HCH8C2H7CH3CH2C2H2C2HC3HC2SHCH2CH3CHCHCSH4CH2CHC6H2C2HFeH2PC3SCHCHC2HC2HCHCH2C3H2CHC7H2C3HC2HC2H4CH3CH2C4HCHC2SCH3C2H2C2SC9HCHC2PC3H3C2H3CHCH4C3HCH2SCH2CH3C2HC2H3C4PCHC2HCHCH2SC2HPHCH3C5H3SH2CH6C5HCH3SC4FeH2C2H2CFeHCHCSC3HC2PCHC5H2CHFeC2HC2H4C6HCH2C2HCHCH3C2H4CHC3HSC3HCH3C5HC2H3C3H2C2HSCPCFeCH3C2SPHC6H4C2HC4H2C3SH2CH2CH2CH4C6HC4SFeH2SCSC2H2CH2C2H3C2HC2SCSC3H2SHC3H3C2HC2HC2H3CH4C5H2CHCH3C2H2C2H2CH3C2HC2HCHC6H2C
_chemical_formula_sum              "H2304 C2880 Fe192 S384 P96"
_cell_length_a       78.0253
_cell_length_b       78.3967
_cell_length_c       79.3682
_cell_angle_alpha    76.0472
_cell_angle_beta     76.0461
_cell_angle_gamma    76.1178

_space_group_name_H-M_alt    "P 1"
_space_group_IT_number       1

loop_
  _space_group_symop_operation_xyz
  'x, y, z'

loop_
  _atom_site_type_symbol
  _atom_site_label
  _atom_site_symmetry_multiplicity
  _atom_site_fract_x
  _atom_site_fract_y
  _atom_site_fract_z
  _atom_site_occupancy
  H   H1        1.0  0.02339  0.16614  0.10320  1.0000
  H   H2        1.0  0.10283  0.00055  0.36523  1.0000
  C   C1        1.0  0.10523  0.02464  0.20445  1.0000
  C   C2        1.0  0.25517  0.99378  0.08480  1.0000
  C   C3        1.0  0.14483  0.99435  0.22263  1.0000
  C   C4        1.0  0.16153  0.00412  0.23932  1.0000
  Fe  Fe1       1.0  0.02380  0.16776  0.14396  1.0000
  S   S1        1.0  0.01042  0.14422  0.14936  1.0000
  S   S2        1.0  0.04976  0.16774  0.12390  1.0000
  H   H3        1.0  0.25046  0.08126  0.01332  1.0000
  C   C5        1.0  0.37583  0.08772  0.00369  1.0000
  Fe  Fe2       1.0  0.00989  0.14345  0.17792  1.0000
  S   S3        1.0  0.02025  0.11781  0.19556  1.0000
  S   S4        1.0  0.99779  0.18788  0.14506  1.0000
  S   S5        1.0  0.02502  0.16569  0.17219  1.0000
  H   H4        1.0  0.15338  0.04528  0.07111  1.0000
  H   H5        1.0  0.19266  0.02391  0.15677  1.0000
  C   C6        1.0  0.36378  0.03439  0.01343  1.0000
  C   C7        1.0  0.46608  0.11768  0.97882  1.0000
  H   H6        1.0  0.23198  0.00629  0.10139  1.0000
  Fe  Fe3       1.0  0.11406  0.07560  0.12244  1.0000
  S   S6        1.0  0.13914  0.08067  0.12773  1.0000
  S   S7        1.0  0.08691  0.08620  0.13721  1.0000
  Fe  Fe4       1.0  0.13390  0.04356  0.10540  1.0000
  S   S8        1.0  0.16051  0.04568  0.10982  1.0000
  C   C8        1.0  0.47342  0.07319  0.98846  1.0000
  Fe  Fe5       1.0  0.14570  0.05100  0.13653  1.0000
  H   H7        1.0  0.01624  0.09530  0.29581  1.0000
  Fe  Fe6       1.0  0.15154  0.07507  0.10051  1.0000
  S   S9        1.0  0.17157  0.08969  0.08058  1.0000
  S   S10       1.0  0.11993  0.04619  0.13294  1.0000
  S   S11       1.0  0.12560  0.07273  0.09419  1.0000
  H   H8        1.0  0.11030  0.16790  0.09078  1.0000
  C   C9        1.0  0.47922  0.16818  0.02286  1.0000
  H   H9        1.0  0.07802  0.01304  0.34871  1.0000
  Fe  Fe7       1.0  0.39266  0.18520  0.00176  1.0000
  S   S12       1.0  0.41927  0.16698  0.00426  1.0000
  S   S13       1.0  0.39076  0.21075  0.98155  1.0000
  Fe  Fe8       1.0  0.37167  0.16274  0.03283  1.0000
  S   S14       1.0  0.39658  0.14303  0.03854  1.0000
  S   S15       1.0  0.34305  0.16054  0.04645  1.0000
  Fe  Fe9       1.0  0.40980  0.16679  0.03316  1.0000
  Fe  Fe10      1.0  0.40403  0.14479  0.00921  1.0000
  S   S16       1.0  0.41506  0.11891  0.99946  1.0000
  S   S17       1.0  0.38397  0.18655  0.03047  1.0000
  S   S18       1.0  0.37833  0.16306  0.00367  1.0000
  C   C10       1.0  0.20216  0.02242  0.21453  1.0000
  H   H10       1.0  0.17916  0.04161  0.04625  1.0000
  C   C11       1.0  0.28533  0.99907  0.12396  1.0000
  H   H11       1.0  0.26612  0.03224  0.99708  1.0000
  H   H12       1.0  0.35337  0.05065  0.05157  1.0000
  C   C12       1.0  0.15682  0.00112  0.07130  1.0000
  H   H13       1.0  0.03456  0.00422  0.38255  1.0000
  H   H14       1.0  0.42534  0.08167  0.04475  1.0000
  C   C13       1.0  0.03600  0.99087  0.39063  1.0000
  H   H15       1.0  0.00668  0.02416  0.30174  1.0000
  C   C14       1.0  0.11530  0.05266  0.19109  1.0000
  H   H16       1.0  0.12313  0.06241  0.19095  1.0000
  C   C15       1.0  0.21280  0.01064  0.18238  1.0000
  H   H17       1.0  0.33376  0.07419  0.03422  1.0000
  H   H18       1.0  0.00999  0.04305  0.34689  1.0000
  C   C16       1.0  0.06542  0.99832  0.28554  1.0000
  Fe  Fe11      1.0  0.99796  0.18362  0.17401  1.0000
  H   H19       1.0  0.01511  0.12751  0.28290  1.0000
  C   C17       1.0  0.24442  0.06586  0.99705  1.0000
  C   C18       1.0  0.27874  0.03235  0.03474  1.0000
  H   H20       1.0  0.29049  0.00577  0.99821  1.0000
  C   C19       1.0  0.29482  0.02019  0.03679  1.0000
  H   H21       1.0  0.01300  0.03143  0.22476  1.0000
  H   H22       1.0  0.00154  0.11919  0.31923  1.0000
  H   H23       1.0  0.10663  0.06661  0.16671  1.0000
  C   C20       1.0  0.35224  0.04749  0.00365  1.0000
  C   C21       1.0  0.33515  0.10247  0.06441  1.0000
  C   C22       1.0  0.35188  0.10674  0.06316  1.0000
  C   C23       1.0  0.35415  0.12457  0.05813  1.0000
  C   C24       1.0  0.33978  0.13829  0.05407  1.0000
  C   C25       1.0  0.32285  0.13413  0.05574  1.0000
  C   C26       1.0  0.32053  0.11619  0.06082  1.0000
  H   H24       1.0  0.36703  0.12767  0.05751  1.0000
  H   H25       1.0  0.31158  0.14474  0.05301  1.0000
  H   H26       1.0  0.30752  0.11300  0.06196  1.0000
  C   C27       1.0  0.22284  0.08735  0.09991  1.0000
  C   C28       1.0  0.20657  0.08652  0.11204  1.0000
  C   C29       1.0  0.19090  0.08647  0.10631  1.0000
  C   C30       1.0  0.19133  0.08803  0.08828  1.0000
  C   C31       1.0  0.20757  0.08902  0.07613  1.0000
  C   C32       1.0  0.22339  0.08830  0.08197  1.0000
  H   H27       1.0  0.20616  0.08585  0.12587  1.0000
  H   H28       1.0  0.17843  0.08576  0.11576  1.0000
  H   H29       1.0  0.20789  0.09029  0.06220  1.0000
  H   H30       1.0  0.23593  0.08893  0.07255  1.0000
  H   H31       1.0  0.20031  0.10415  0.17860  1.0000
  C   C33       1.0  0.07050  0.03429  0.29578  1.0000
  H   H32       1.0  0.12481  0.17193  0.13923  1.0000
  Fe  Fe12      1.0  0.26720  0.07293  0.09195  1.0000
  C   C34       1.0  0.00348  0.19001  0.28092  1.0000
  C   C35       1.0  0.30137  0.10036  0.98304  1.0000
  H   H33       1.0  0.14501  0.11590  0.09820  1.0000
  H   H34       1.0  0.12174  0.20451  0.13606  1.0000
  C   C36       1.0  0.45610  0.10564  0.01762  1.0000
  H   H35       1.0  0.13479  0.10834  0.07436  1.0000
  C   C37       1.0  0.06166  0.14553  0.12765  1.0000
  C   C38       1.0  0.07620  0.13909  0.11503  1.0000
  C   C39       1.0  0.08471  0.12091  0.11796  1.0000
  C   C40       1.0  0.07833  0.10925  0.13337  1.0000
  C   C41       1.0  0.06416  0.11585  0.14607  1.0000
  C   C42       1.0  0.05610  0.13393  0.14334  1.0000
  H   H36       1.0  0.08050  0.14802  0.10288  1.0000
  H   H37       1.0  0.09571  0.11580  0.10811  1.0000
  H   H38       1.0  0.05929  0.10694  0.15808  1.0000
  H   H39       1.0  0.04555  0.13876  0.15354  1.0000
  H   H40       1.0  0.48655  0.16827  0.00941  1.0000
  C   C43       1.0  0.27775  0.04509  0.15122  1.0000
  C   C44       1.0  0.35361  0.11542  0.00109  1.0000
  C   C45       1.0  0.26470  0.00793  0.03469  1.0000
  C   C46       1.0  0.27136  0.02967  0.16081  1.0000
  H   H41       1.0  0.03082  0.19619  0.09766  1.0000
  C   C47       1.0  0.48306  0.08185  0.99551  1.0000
  C   C48       1.0  0.31505  0.04949  0.99042  1.0000
  H   H42       1.0  0.14545  0.01695  0.14345  1.0000
  C   C49       1.0  0.44636  0.09173  0.02440  1.0000
  C   C50       1.0  0.24258  0.99467  0.10051  1.0000
  C   C51       1.0  0.00700  0.08777  0.21251  1.0000
  C   C52       1.0  0.00139  0.10892  0.33115  1.0000
  H   H43       1.0  0.15043  0.98990  0.07820  1.0000
  H   H44       1.0  0.00669  0.22316  0.09706  1.0000
  C   C53       1.0  0.43909  0.12042  0.04188  1.0000
  H   H45       1.0  0.02011  0.08053  0.20731  1.0000
  C   C54       1.0  0.17314  0.99217  0.10974  1.0000
  H   H46       1.0  0.28516  0.08323  0.00248  1.0000
  H   H47       1.0  0.12975  0.22340  0.10647  1.0000
  H   H48       1.0  0.08985  0.04407  0.16613  1.0000
  H   H49       1.0  0.99717  0.22356  0.22766  1.0000
  H   H50       1.0  0.03254  0.00454  0.23881  1.0000
  C   C55       1.0  0.21395  0.03820  0.14273  1.0000
  C   C56       1.0  0.00320  0.21018  0.09903  1.0000
  H   H51       1.0  0.15444  0.01922  0.21460  1.0000
  S   S19       1.0  0.13203  0.02056  0.09402  1.0000
  C   C57       1.0  0.29803  0.05118  0.98670  1.0000
  H   H52       1.0  0.33315  0.07248  0.00360  1.0000
  S   S20       1.0  0.42740  0.16946  0.05076  1.0000
  H   H53       1.0  0.48842  0.10301  0.02992  1.0000
  C   C58       1.0  0.28247  0.99484  0.97955  1.0000
  H   H54       1.0  0.11213  0.13017  0.05890  1.0000
  C   C59       1.0  0.00718  0.12018  0.27885  1.0000
  H   H55       1.0  0.23816  0.07244  0.14431  1.0000
  C   C60       1.0  0.99602  0.18439  0.29871  1.0000
  C   C61       1.0  0.16678  0.00469  0.17833  1.0000
  C   C62       1.0  0.36037  0.12093  0.01332  1.0000
  H   H56       1.0  0.44332  0.20935  0.02012  1.0000
  C   C63       1.0  0.22368  0.04443  0.12591  1.0000
  C   C64       1.0  0.20568  0.03466  0.19866  1.0000
  C   C65       1.0  0.26564  0.06059  0.14572  1.0000
  C   C66       1.0  0.21104  0.02885  0.18242  1.0000
  C   C67       1.0  0.45090  0.16846  0.04442  1.0000
  C   C68       1.0  0.15844  0.03234  0.06736  1.0000
  H   H57       1.0  0.48584  0.16581  0.06424  1.0000
  C   C69       1.0  0.48346  0.21555  0.00497  1.0000
  C   C70       1.0  0.03307  0.22893  0.25128  1.0000
  C   C71       1.0  0.01277  0.17796  0.10245  1.0000
  C   C72       1.0  0.19665  0.02552  0.12890  1.0000
  S   S21       1.0  0.30897  0.04546  0.06682  1.0000
  H   H58       1.0  0.22029  0.07489  0.17606  1.0000
  C   C73       1.0  0.11463  0.03764  0.20477  1.0000
  C   C74       1.0  0.32522  0.14842  0.00179  1.0000
  C   C75       1.0  0.25496  0.00048  0.14115  1.0000
  C   C76       1.0  0.49188  0.21564  0.01861  1.0000
  H   H59       1.0  0.14096  0.20944  0.07994  1.0000
  C   C77       1.0  0.32811  0.17695  0.00671  1.0000
  C   C78       1.0  0.10447  0.00702  0.13744  1.0000
  C   C79       1.0  0.20774  0.07821  0.17135  1.0000
  S   S22       1.0  0.05375  0.99722  0.33889  1.0000
  S   S23       1.0  0.33340  0.07978  0.07022  1.0000
  C   C80       1.0  0.17494  0.08702  0.15991  1.0000
  C   C81       1.0  0.36366  0.99318  0.98245  1.0000
  C   C82       1.0  0.43306  0.09223  0.03977  1.0000
  C   C83       1.0  0.19555  0.01917  0.98419  1.0000
  H   H60       1.0  0.12159  0.03600  0.21548  1.0000
  C   C84       1.0  0.26369  0.02620  0.03376  1.0000
  C   C85       1.0  0.00340  0.10650  0.20889  1.0000
  H   H61       1.0  0.47289  0.04916  0.98015  1.0000
  H   H62       1.0  0.35637  0.09423  0.98700  1.0000
  C   C86       1.0  0.01172  0.10851  0.34343  1.0000
  H   H63       1.0  0.14393  0.17682  0.08285  1.0000
  H   H64       1.0  0.00053  0.18219  0.22711  1.0000
  C   C87       1.0  0.48846  0.16713  0.03637  1.0000
  C   C88       1.0  0.00798  0.10192  0.28607  1.0000
  C   C89       1.0  0.00703  0.01988  0.26750  1.0000
  H   H65       1.0  0.25114  0.03546  0.03258  1.0000
  H   H66       1.0  0.05654  0.00228  0.29736  1.0000
  H   H67       1.0  0.09992  0.15997  0.06721  1.0000
  H   H68       1.0  0.34808  0.16121  0.98987  1.0000
  C   C90       1.0  0.35638  0.01014  0.98658  1.0000
  H   H69       1.0  0.16617  0.00591  0.10665  1.0000
  C   C91       1.0  0.01052  0.03301  0.32390  1.0000
  H   H70       1.0  0.23411  0.05191  0.12435  1.0000
  C   C92       1.0  0.17997  0.09918  0.16719  1.0000
  H   H71       1.0  0.31707  0.10776  0.02314  1.0000
  H   H72       1.0  0.31628  0.04712  0.00414  1.0000
  C   C93       1.0  0.03759  0.21733  0.23932  1.0000
  C   C94       1.0  0.01305  0.15537  0.23840  1.0000
  C   C95       1.0  0.28110  0.00772  0.98951  1.0000
  H   H73       1.0  0.29210  0.04489  0.14764  1.0000
  C   C96       1.0  0.00344  0.18024  0.26834  1.0000
  C   C97       1.0  0.02798  0.14142  0.23589  1.0000
  C   C98       1.0  0.04200  0.14369  0.22128  1.0000
  C   C99       1.0  0.04131  0.15993  0.20918  1.0000
  C   C100      1.0  0.02642  0.17380  0.21148  1.0000
  C   C101      1.0  0.01225  0.17150  0.22590  1.0000
  H   H74       1.0  0.38182  0.07484  0.00008  1.0000
  C   C102      1.0  0.35318  0.04976  0.03817  1.0000
  Fe  Fe13      1.0  0.28270  0.05830  0.05874  1.0000
  C   C103      1.0  0.10297  0.00799  0.15507  1.0000
  C   C104      1.0  0.08618  0.00915  0.16657  1.0000
  H   H75       1.0  0.18608  0.01824  0.13018  1.0000
  H   H76       1.0  0.44715  0.13729  0.99242  1.0000
  S   S24       1.0  0.00379  0.99358  0.34808  1.0000
  C   C105      1.0  0.21620  0.05840  0.02522  1.0000
  H   H77       1.0  0.00897  0.18505  0.25465  1.0000
  H   H78       1.0  0.02870  0.12861  0.24489  1.0000
  H   H79       1.0  0.05314  0.13267  0.21906  1.0000
  H   H80       1.0  0.05196  0.16153  0.19763  1.0000
  H   H81       1.0  0.02552  0.18611  0.20166  1.0000
  C   C106      1.0  0.00279  0.04365  0.33661  1.0000
  H   H82       1.0  0.21005  0.04277  0.00966  1.0000
  C   C107      1.0  0.31352  0.11178  0.98024  1.0000
  H   H83       1.0  0.00168  0.00781  0.26973  1.0000
  H   H84       1.0  0.48725  0.20396  0.99880  1.0000
  H   H85       1.0  0.41298  0.20865  0.03814  1.0000
  H   H86       1.0  0.03271  0.00565  0.27312  1.0000
  H   H87       1.0  0.10495  0.01303  0.21505  1.0000
  Fe  Fe14      1.0  0.29252  0.03685  0.09350  1.0000
  C   C108      1.0  0.02469  0.01875  0.26935  1.0000
  C   C109      1.0  0.03161  0.03441  0.26648  1.0000
  C   C110      1.0  0.02052  0.05113  0.26193  1.0000
  P   P1        1.0  0.05458  0.03335  0.26811  1.0000
  C   C111      1.0  0.05540  0.04092  0.28772  1.0000
  C   C112      1.0  0.06698  0.01053  0.26930  1.0000
  H   H88       1.0  0.02007  0.11841  0.34100  1.0000
  H   H89       1.0  0.43620  0.13161  0.04859  1.0000
  C   C113      1.0  0.43182  0.21788  0.01496  1.0000
  C   C114      1.0  0.07844  0.00485  0.25425  1.0000
  C   C115      1.0  0.04106  0.05325  0.29520  1.0000
  C   C116      1.0  0.06457  0.04760  0.24851  1.0000
  C   C117      1.0  0.05881  0.05007  0.23246  1.0000
  C   C118      1.0  0.06588  0.06170  0.21746  1.0000
  C   C119      1.0  0.07886  0.07084  0.21830  1.0000
  C   C120      1.0  0.08499  0.06816  0.23408  1.0000
  C   C121      1.0  0.07788  0.05658  0.24915  1.0000
  H   H90       1.0  0.02350  0.02418  0.32447  1.0000
  S   S25       1.0  0.27744  0.05527  0.03326  1.0000
  H   H91       1.0  0.01947  0.09482  0.36826  1.0000
  H   H92       1.0  0.19839  0.02694  0.22700  1.0000
  H   H93       1.0  0.02557  0.06343  0.25930  1.0000
  C   C122      1.0  0.20577  0.03255  0.11218  1.0000
  C   C123      1.0  0.09673  0.04202  0.17701  1.0000
  H   H94       1.0  0.07974  0.01393  0.24158  1.0000
  H   H95       1.0  0.02920  0.05856  0.28949  1.0000
  H   H96       1.0  0.04864  0.04328  0.23156  1.0000
  H   H97       1.0  0.06114  0.06382  0.20519  1.0000
  H   H98       1.0  0.08416  0.07997  0.20665  1.0000
  H   H99       1.0  0.09513  0.07521  0.23466  1.0000
  H   H100      1.0  0.08266  0.05483  0.26130  1.0000
  C   C124      1.0  0.09455  0.13803  0.15373  1.0000
  C   C125      1.0  0.10114  0.12087  0.16254  1.0000
  C   C126      1.0  0.11876  0.11230  0.15678  1.0000
  C   C127      1.0  0.12980  0.12091  0.14220  1.0000
  C   C128      1.0  0.12329  0.13816  0.13331  1.0000
  C   C129      1.0  0.10543  0.14649  0.13892  1.0000
  P   P2        1.0  0.13663  0.14822  0.11314  1.0000
  C   C130      1.0  0.13385  0.17209  0.11114  1.0000
  C   C131      1.0  0.16042  0.13997  0.11260  1.0000
  C   C132      1.0  0.17220  0.13641  0.09685  1.0000
  C   C133      1.0  0.19069  0.13085  0.09641  1.0000
  C   C134      1.0  0.19762  0.12897  0.11157  1.0000
  C   C135      1.0  0.18604  0.13272  0.12721  1.0000
  C   C136      1.0  0.16752  0.13832  0.12771  1.0000
  C   C137      1.0  0.13878  0.18279  0.09451  1.0000
  C   C138      1.0  0.13720  0.20125  0.09283  1.0000
  C   C139      1.0  0.13094  0.20910  0.10778  1.0000
  C   C140      1.0  0.12641  0.19846  0.12445  1.0000
  C   C141      1.0  0.12801  0.17999  0.12617  1.0000
  C   C142      1.0  0.12918  0.14283  0.09559  1.0000
  C   C143      1.0  0.11615  0.15507  0.08698  1.0000
  C   C144      1.0  0.11012  0.15057  0.07368  1.0000
  C   C145      1.0  0.11687  0.13377  0.06908  1.0000
  C   C146      1.0  0.12955  0.12141  0.07786  1.0000
  C   C147      1.0  0.13548  0.12581  0.09125  1.0000
  H   H101      1.0  0.08069  0.14442  0.15780  1.0000
  H   H102      1.0  0.09232  0.11397  0.17337  1.0000
  H   H103      1.0  0.12363  0.09871  0.16315  1.0000
  H   H104      1.0  0.14315  0.11382  0.13743  1.0000
  H   H105      1.0  0.09966  0.15926  0.13156  1.0000
  H   H106      1.0  0.16723  0.13782  0.08488  1.0000
  H   H107      1.0  0.19968  0.12754  0.08440  1.0000
  H   H108      1.0  0.21195  0.12426  0.11122  1.0000
  H   H109      1.0  0.19152  0.13121  0.13890  1.0000
  H   H110      1.0  0.15874  0.14142  0.13985  1.0000
  C   C148      1.0  0.19637  0.09477  0.17293  1.0000
  C   C149      1.0  0.01693  0.19495  0.09931  1.0000
  C   C150      1.0  0.28088  0.99580  0.03624  1.0000
  C   C151      1.0  0.21896  0.05122  0.01005  1.0000
  H   H111      1.0  0.20549  0.05519  0.03631  1.0000
  H   H112      1.0  0.18209  0.06135  0.15257  1.0000
  C   C152      1.0  0.09664  0.02651  0.19029  1.0000
  C   C153      1.0  0.09533  0.99170  0.36287  1.0000
  C   C154      1.0  0.21947  0.04175  0.11071  1.0000
  C   C155      1.0  0.04164  0.05846  0.31070  1.0000
  H   H113      1.0  0.03033  0.06758  0.31667  1.0000
  C   C156      1.0  0.24068  0.04512  0.15900  1.0000
  H   H114      1.0  0.38046  0.11445  0.02951  1.0000
  H   H115      1.0  0.33617  0.18698  0.00493  1.0000
  C   C157      1.0  0.07094  0.00874  0.16031  1.0000
  H   H116      1.0  0.00028  0.09260  0.17510  1.0000
  H   H117      1.0  0.44235  0.19528  0.99167  1.0000
  H   H118      1.0  0.20221  0.03097  0.10034  1.0000
  C   C158      1.0  0.18005  0.01348  0.04862  1.0000
  P   P3        1.0  0.45651  0.22864  0.98484  1.0000
  H   H119      1.0  0.16227  0.09026  0.15546  1.0000
  H   H120      1.0  0.25427  0.00470  0.07349  1.0000
  H   H121      1.0  0.32852  0.99129  0.07581  1.0000
  H   H122      1.0  0.06061  0.00829  0.13754  1.0000
  H   H123      1.0  0.08183  0.02489  0.29030  1.0000
  P   P4        1.0  0.47417  0.10465  0.99844  1.0000
  C   C159      1.0  0.03778  0.01215  0.22608  1.0000
  H   H124      1.0  0.02510  0.04904  0.19569  1.0000
  C   C160      1.0  0.99601  0.03658  0.26336  1.0000
  C   C161      1.0  0.24151  0.07313  0.01218  1.0000
  H   H125      1.0  0.20457  0.04856  0.19912  1.0000
  H   H126      1.0  0.34554  0.01151  0.99796  1.0000
  C   C162      1.0  0.23318  0.05479  0.99585  1.0000
  C   C163      1.0  0.30035  0.09471  0.01456  1.0000
  C   C164      1.0  0.02674  0.02724  0.21812  1.0000
  H   H127      1.0  0.28652  0.05039  0.99747  1.0000
  C   C165      1.0  0.08920  0.00737  0.13105  1.0000
  C   C166      1.0  0.31897  0.11492  0.99468  1.0000
  C   C167      1.0  0.22748  0.06931  0.02631  1.0000
  C   C168      1.0  0.48038  0.05569  0.98569  1.0000
  C   C169      1.0  0.05648  0.05136  0.31888  1.0000
  H   H128      1.0  0.46056  0.08008  0.98498  1.0000
  C   C170      1.0  0.45508  0.19399  0.98249  1.0000
  H   H129      1.0  0.17117  0.11198  0.16839  1.0000
  C   C171      1.0  0.20055  0.02856  0.14406  1.0000
  C   C172      1.0  0.03355  0.03711  0.20172  1.0000
  H   H130      1.0  0.09049  0.00707  0.11720  1.0000
  C   C173      1.0  0.07093  0.03936  0.31137  1.0000
  C   C174      1.0  0.41462  0.21747  0.02526  1.0000
  H   H131      1.0  0.45332  0.16923  0.01666  1.0000
  S   S26       1.0  0.26616  0.04736  0.08457  1.0000
  C   C175      1.0  0.46980  0.22993  0.00004  1.0000
  C   C176      1.0  0.45300  0.13330  0.97984  1.0000
  C   C177      1.0  0.05122  0.03162  0.19308  1.0000
  S   S27       1.0  0.24222  0.08768  0.10729  1.0000
  H   H132      1.0  0.00039  0.07235  0.37397  1.0000
  P   P5        1.0  0.21714  0.04440  0.16213  1.0000
  C   C178      1.0  0.15361  0.00711  0.22460  1.0000
  C   C179      1.0  0.42954  0.10649  0.04858  1.0000
  H   H133      1.0  0.22561  0.07444  0.03828  1.0000
  C   C180      1.0  0.08130  0.99876  0.35350  1.0000
  H   H134      1.0  0.30641  0.18932  0.02503  1.0000
  H   H135      1.0  0.05629  0.03945  0.18036  1.0000
  H   H136      1.0  0.36317  0.09619  0.06611  1.0000
  Fe  Fe15      1.0  0.30680  0.07111  0.07564  1.0000
  C   C181      1.0  0.31132  0.17826  0.01806  1.0000
  H   H137      1.0  0.29546  0.08781  0.02779  1.0000
  C   C182      1.0  0.06225  0.01619  0.20080  1.0000
  H   H138      1.0  0.11495  0.00795  0.15967  1.0000
  H   H139      1.0  0.41915  0.10698  0.06040  1.0000
  H   H140      1.0  0.39400  0.08515  0.02117  1.0000
  H   H141      1.0  0.21941  0.01527  0.99455  1.0000
  H   H142      1.0  0.05669  0.05495  0.33118  1.0000
  H   H143      1.0  0.44877  0.08061  0.01781  1.0000
  C   C183      1.0  0.26720  0.02277  0.98885  1.0000
  P   P6        1.0  0.08508  0.00947  0.18943  1.0000
  C   C184      1.0  0.18629  0.07052  0.15828  1.0000
  P   P7        1.0  0.33497  0.12922  0.99143  1.0000
  H   H144      1.0  0.17195  0.01041  0.18672  1.0000
  C   C185      1.0  0.36409  0.03547  0.03070  1.0000
  H   H145      1.0  0.21735  0.00570  0.17014  1.0000
  H   H146      1.0  0.08231  0.03363  0.31788  1.0000
  C   C186      1.0  0.46042  0.16868  0.02694  1.0000
  C   C187      1.0  0.00030  0.08264  0.36213  1.0000
  C   C188      1.0  0.10613  0.05498  0.17737  1.0000
  S   S28       1.0  0.15482  0.03919  0.16236  1.0000
  C   C189      1.0  0.25289  0.02970  0.16482  1.0000
  C   C190      1.0  0.38259  0.09338  0.01571  1.0000
  H   H147      1.0  0.45304  0.16737  0.07119  1.0000
  S   S29       1.0  0.19820  0.01157  0.03074  1.0000
  C   C191      1.0  0.15176  0.00848  0.15400  1.0000
  H   H148      1.0  0.27056  0.07245  0.13790  1.0000
  H   H149      1.0  0.00897  0.20214  0.27683  1.0000
  C   C192      1.0  0.33494  0.16219  0.99846  1.0000
  C   C193      1.0  0.31258  0.10600  0.01184  1.0000
  S   S30       1.0  0.28163  0.08490  0.06520  1.0000
  C   C194      1.0  0.24720  0.06058  0.14948  1.0000
  H   H150      1.0  0.28837  0.16584  0.03003  1.0000
  C   C195      1.0  0.30124  0.16495  0.02096  1.0000
  C   C196      1.0  0.34202  0.06305  0.02837  1.0000
  C   C197      1.0  0.26759  0.00834  0.12758  1.0000
  H   H151      1.0  0.25287  0.00327  0.03435  1.0000
  C   C198      1.0  0.29465  0.09200  0.00021  1.0000
  C   C199      1.0  0.46024  0.16757  0.05768  1.0000
  C   C200      1.0  0.17201  0.99883  0.05769  1.0000
  H   H152      1.0  0.11753  0.00618  0.12869  1.0000
  H   H153      1.0  0.37282  0.02529  0.03834  1.0000
  H   H154      1.0  0.22653  0.04725  0.09775  1.0000
  S   S31       1.0  0.29237  0.06149  0.10315  1.0000
  C   C201      1.0  0.17310  0.03023  0.05333  1.0000
  H   H155      1.0  0.10420  0.99240  0.30192  1.0000
  C   C202      1.0  0.39955  0.22799  0.01877  1.0000
  C   C203      1.0  0.30814  0.15004  0.01289  1.0000
  C   C204      1.0  0.20292  0.06609  0.16371  1.0000
  H   H156      1.0  0.28076  0.01745  0.16458  1.0000
  C   C205      1.0  0.29592  0.00192  0.03741  1.0000
  C   C206      1.0  0.15784  0.01591  0.16523  1.0000
  H   H157      1.0  0.37264  0.02342  0.00779  1.0000
  H   H158      1.0  0.16821  0.01408  0.24093  1.0000
  P   P8        1.0  0.35246  0.04710  0.98096  1.0000
  C   C207      1.0  0.00708  0.22553  0.23408  1.0000
  H   H159      1.0  0.19122  0.00751  0.99319  1.0000
  C   C208      1.0  0.20398  0.00430  0.21430  1.0000
  H   H160      1.0  0.30642  0.02488  0.03781  1.0000
  H   H161      1.0  0.35458  0.13358  0.01750  1.0000
  C   C209      1.0  0.37489  0.10997  0.02047  1.0000
  C   C210      1.0  0.36143  0.09872  0.99635  1.0000
  H   H162      1.0  0.12311  0.99374  0.18972  1.0000
  C   C211      1.0  0.45212  0.12015  0.02636  1.0000
  C   C212      1.0  0.00121  0.03318  0.31089  1.0000
  H   H163      1.0  0.30017  0.13983  0.01567  1.0000
  C   C213      1.0  0.15017  0.01785  0.07625  1.0000
  C   C214      1.0  0.34164  0.06198  0.01114  1.0000
  H   H164      1.0  0.24834  0.01740  0.17175  1.0000
  H   H165      1.0  0.13898  0.99663  0.21106  1.0000
  C   C215      1.0  0.05559  0.00690  0.21770  1.0000
  H   H166      1.0  0.05791  0.00900  0.16903  1.0000
  H   H167      1.0  0.02801  0.20653  0.22159  1.0000
  C   C216      1.0  0.07244  0.00811  0.14251  1.0000
  C   C217      1.0  0.99783  0.09228  0.28093  1.0000
  H   H168      1.0  0.05113  0.20958  0.23676  1.0000
  C   C218      1.0  0.47885  0.16672  0.05373  1.0000
  S   S32       1.0  0.30187  0.00899  0.10805  1.0000
  H   H169      1.0  0.26374  0.02175  0.12031  1.0000
  C   C219      1.0  0.01130  0.09527  0.35883  1.0000
  C   C220      1.0  0.00273  0.05215  0.26075  1.0000
  H   H170      1.0  0.45914  0.13126  0.02131  1.0000
  H   H171      1.0  0.45501  0.16690  0.98182  1.0000
  C   C221      1.0  0.15414  0.98992  0.15609  1.0000
  C   C222      1.0  0.02458  0.21561  0.23077  1.0000
  C   C223      1.0  0.99599  0.16469  0.27346  1.0000
  H   H172      1.0  0.99796  0.07829  0.28685  1.0000
  H   H173      1.0  0.25561  0.06868  0.98645  1.0000
  C   C224      1.0  0.99606  0.12894  0.26656  1.0000
  C   C225      1.0  0.48691  0.23009  0.02730  1.0000
  H   H174      1.0  0.19913  0.99921  0.10505  1.0000
  C   C226      1.0  0.21156  0.02363  0.98501  1.0000
  H   H175      1.0  0.38618  0.22730  0.02658  1.0000
  C   C227      1.0  0.43409  0.22875  0.99797  1.0000
  H   H176      1.0  0.99611  0.06395  0.22457  1.0000
  H   H177      1.0  0.99571  0.19218  0.30839  1.0000
  H   H178      1.0  0.24143  0.00788  0.14425  1.0000
  C   C228      1.0  0.49134  0.11457  0.00188  1.0000
  H   H179      1.0  0.06355  0.98952  0.39197  1.0000
  H   H180      1.0  0.04309  0.23012  0.25809  1.0000
  C   C229      1.0  0.25468  0.02520  0.97801  1.0000
  H   H181      1.0  0.49323  0.22986  0.03809  1.0000
  H   H182      1.0  0.30835  0.99251  0.03894  1.0000
  C   C230      1.0  0.20921  0.99846  0.19822  1.0000
  H   H183      1.0  0.06404  0.99568  0.22454  1.0000
  H   H184      1.0  0.20162  0.99468  0.22654  1.0000
  C   C231      1.0  0.00257  0.23765  0.24564  1.0000
  C   C232      1.0  0.19169  0.98845  0.10895  1.0000
  Fe  Fe16      1.0  0.47117  0.22676  0.85213  1.0000
  S   S33       1.0  0.47492  0.21545  0.82770  1.0000
  S   S34       1.0  0.48227  0.20875  0.87489  1.0000
  Fe  Fe17      1.0  0.46411  0.07965  0.88948  1.0000
  S   S35       1.0  0.44744  0.10547  0.87864  1.0000
  S   S36       1.0  0.45996  0.05366  0.88238  1.0000
  H   H185      1.0  0.40143  0.15071  0.94172  1.0000
  S   S37       1.0  0.46801  0.12729  0.89618  1.0000
  Fe  Fe18      1.0  0.44474  0.11285  0.90484  1.0000
  S   S38       1.0  0.41754  0.12593  0.91811  1.0000
  Fe  Fe19      1.0  0.47254  0.11687  0.87119  1.0000
  S   S39       1.0  0.48122  0.13114  0.84314  1.0000
  C   C233      1.0  0.45204  0.16730  0.77165  1.0000
  H   H186      1.0  0.48586  0.00036  0.84911  1.0000
  C   C234      1.0  0.42457  0.10793  0.95062  1.0000
  H   H187      1.0  0.37020  0.12471  0.96646  1.0000
  C   C235      1.0  0.39246  0.07574  0.95822  1.0000
  H   H188      1.0  0.22633  0.08400  0.96673  1.0000
  S   S40       1.0  0.44425  0.23624  0.86823  1.0000
  H   H189      1.0  0.39997  0.14785  0.97371  1.0000
  H   H190      1.0  0.46764  0.10879  0.78953  1.0000
  S   S41       1.0  0.44298  0.19769  0.91009  1.0000
  Fe  Fe20      1.0  0.40786  0.00452  0.83039  1.0000
  S   S42       1.0  0.41253  0.03082  0.83666  1.0000
  H   H191      1.0  0.38134  0.08820  0.80963  1.0000
  H   H192      1.0  0.39964  0.12072  0.87660  1.0000
  H   H193      1.0  0.42862  0.19835  0.86249  1.0000
  H   H194      1.0  0.41978  0.14194  0.78653  1.0000
  H   H195      1.0  0.47510  0.16422  0.78334  1.0000
  C   C236      1.0  0.43648  0.16094  0.77264  1.0000
  C   C237      1.0  0.38292  0.06239  0.96804  1.0000
  S   S43       1.0  0.41362  0.99555  0.80383  1.0000
  C   C238      1.0  0.25606  0.01209  0.96813  1.0000
  C   C239      1.0  0.34596  0.21022  0.92557  1.0000
  C   C240      1.0  0.25543  0.08669  0.92710  1.0000
  H   H196      1.0  0.43135  0.09675  0.94429  1.0000
  C   C241      1.0  0.44629  0.04765  0.86985  1.0000
  C   C242      1.0  0.44899  0.02967  0.86790  1.0000
  C   C243      1.0  0.43889  0.02426  0.85803  1.0000
  C   C244      1.0  0.42571  0.03671  0.84976  1.0000
  C   C245      1.0  0.42292  0.05468  0.85183  1.0000
  C   C246      1.0  0.43295  0.06006  0.86178  1.0000
  H   H197      1.0  0.45897  0.01976  0.87415  1.0000
  H   H198      1.0  0.44134  0.01040  0.85679  1.0000
  H   H199      1.0  0.41271  0.06454  0.84584  1.0000
  H   H200      1.0  0.43017  0.07382  0.86334  1.0000
  C   C247      1.0  0.47640  0.19202  0.83249  1.0000
  C   C248      1.0  0.48361  0.18237  0.81884  1.0000
  C   C249      1.0  0.25779  0.05589  0.94288  1.0000
  C   C250      1.0  0.47931  0.15454  0.83945  1.0000
  C   C251      1.0  0.47196  0.16413  0.85312  1.0000
  C   C252      1.0  0.47043  0.18286  0.84963  1.0000
  H   H201      1.0  0.48390  0.16293  0.96047  1.0000
  C   C253      1.0  0.46689  0.12299  0.94719  1.0000
  H   H202      1.0  0.46740  0.15719  0.86636  1.0000
  H   H203      1.0  0.46443  0.19018  0.86020  1.0000
  C   C254      1.0  0.44272  0.13865  0.79873  1.0000
  C   C255      1.0  0.43429  0.14332  0.83960  1.0000
  H   H204      1.0  0.44427  0.14968  0.82987  1.0000
  H   H205      1.0  0.35090  0.22373  0.85649  1.0000
  H   H206      1.0  0.32541  0.16738  0.93393  1.0000
  H   H207      1.0  0.47406  0.06701  0.84641  1.0000
  H   H208      1.0  0.43659  0.08428  0.81102  1.0000
  H   H209      1.0  0.47222  0.11898  0.93454  1.0000
  H   H210      1.0  0.41884  0.16250  0.91235  1.0000
  C   C256      1.0  0.34221  0.13824  0.96827  1.0000
  C   C257      1.0  0.42862  0.12860  0.83700  1.0000
  H   H211      1.0  0.35901  0.10487  0.93975  1.0000
  C   C258      1.0  0.40899  0.12727  0.86607  1.0000
  C   C259      1.0  0.41468  0.14198  0.86845  1.0000
  C   C260      1.0  0.42496  0.17879  0.88661  1.0000
  C   C261      1.0  0.36567  0.23288  0.88986  1.0000
  C   C262      1.0  0.41336  0.22149  0.95055  1.0000
  H   H212      1.0  0.40973  0.14682  0.88078  1.0000
  H   H213      1.0  0.43042  0.22965  0.92541  1.0000
  H   H214      1.0  0.42639  0.17422  0.93900  1.0000
  H   H215      1.0  0.24633  0.01339  0.95998  1.0000
  P   P9        1.0  0.37798  0.22182  0.90732  1.0000
  H   H216      1.0  0.21012  0.06206  0.95374  1.0000
  H   H217      1.0  0.44947  0.09333  0.84581  1.0000
  C   C263      1.0  0.45385  0.13854  0.94834  1.0000
  C   C264      1.0  0.38379  0.00623  0.95690  1.0000
  H   H218      1.0  0.25955  0.09647  0.91549  1.0000
  C   C265      1.0  0.38388  0.09094  0.94790  1.0000
  H   H219      1.0  0.34117  0.21469  0.91324  1.0000
  S   S44       1.0  0.38095  0.99514  0.83737  1.0000
  H   H220      1.0  0.34180  0.08187  0.95756  1.0000
  C   C266      1.0  0.32438  0.98907  0.84680  1.0000
  H   H221      1.0  0.41178  0.10879  0.84913  1.0000
  S   S45       1.0  0.46050  0.08657  0.91665  1.0000
  H   H222      1.0  0.49448  0.03888  0.89194  1.0000
  C   C267      1.0  0.36317  0.21196  0.92656  1.0000
  C   C268      1.0  0.41662  0.12392  0.94080  1.0000
  H   H223      1.0  0.39136  0.10122  0.94025  1.0000
  C   C269      1.0  0.41601  0.12051  0.85048  1.0000
  H   H224      1.0  0.27331  0.06426  0.91701  1.0000
  H   H225      1.0  0.28273  0.05470  0.96646  1.0000
  H   H226      1.0  0.33161  0.19137  0.96856  1.0000
  H   H227      1.0  0.30929  0.05576  0.94193  1.0000
  C   C270      1.0  0.31086  0.05424  0.95544  1.0000
  C   C271      1.0  0.28709  0.99395  0.78093  1.0000
  H   H228      1.0  0.43678  0.16918  0.88235  1.0000
  C   C272      1.0  0.36526  0.14091  0.94155  1.0000
  C   C273      1.0  0.47848  0.17558  0.96479  1.0000
  C   C274      1.0  0.46309  0.15925  0.78400  1.0000
  H   H229      1.0  0.47353  0.18922  0.92729  1.0000
  C   C275      1.0  0.32792  0.05253  0.95909  1.0000
  C   C276      1.0  0.48525  0.07347  0.81859  1.0000
  C   C277      1.0  0.42044  0.19529  0.87556  1.0000
  C   C278      1.0  0.47330  0.11277  0.96226  1.0000
  C   C279      1.0  0.40750  0.13824  0.94922  1.0000
  C   C280      1.0  0.42971  0.20162  0.93041  1.0000
  H   H230      1.0  0.26387  0.04191  0.94319  1.0000
  C   C281      1.0  0.24468  0.06134  0.95714  1.0000
  C   C282      1.0  0.37653  0.02323  0.96098  1.0000
  C   C283      1.0  0.37738  0.99122  0.96763  1.0000
  H   H231      1.0  0.23604  0.10623  0.94040  1.0000
  H   H232      1.0  0.38142  0.03469  0.95223  1.0000
  H   H233      1.0  0.46730  0.13881  0.80687  1.0000
  C   C284      1.0  0.44701  0.14375  0.96466  1.0000
  H   H234      1.0  0.41231  0.07052  0.80891  1.0000
  C   C285      1.0  0.36011  0.13368  0.95952  1.0000
  C   C286      1.0  0.40043  0.18786  0.90990  1.0000
  H   H235      1.0  0.40290  0.22098  0.87306  1.0000
  C   C287      1.0  0.26990  0.99696  0.96893  1.0000
  C   C288      1.0  0.48417  0.16999  0.91023  1.0000
  C   C289      1.0  0.35280  0.15305  0.93235  1.0000
  C   C290      1.0  0.42307  0.18733  0.94238  1.0000
  C   C291      1.0  0.35601  0.07972  0.95755  1.0000
  C   C292      1.0  0.36566  0.09295  0.94760  1.0000
  H   H236      1.0  0.45554  0.17848  0.76132  1.0000
  H   H237      1.0  0.48396  0.10118  0.96083  1.0000
  H   H238      1.0  0.36796  0.20866  0.88025  1.0000
  H   H239      1.0  0.39337  0.18471  0.92339  1.0000
  C   C293      1.0  0.35756  0.19861  0.95791  1.0000
  H   H240      1.0  0.33977  0.99396  0.82024  1.0000
  H   H241      1.0  0.43666  0.15560  0.96572  1.0000
  C   C294      1.0  0.48504  0.18388  0.91799  1.0000
  C   C295      1.0  0.42358  0.10630  0.96879  1.0000
  C   C296      1.0  0.46214  0.17779  0.97674  1.0000
  H   H242      1.0  0.42797  0.16713  0.76299  1.0000
  C   C297      1.0  0.23677  0.07956  0.95605  1.0000
  H   H243      1.0  0.31600  0.15452  0.96560  1.0000
  C   C298      1.0  0.33505  0.15788  0.94104  1.0000
  C   C299      1.0  0.20634  0.04998  0.96221  1.0000
  C   C300      1.0  0.36268  0.22294  0.87866  1.0000
  S   S46       1.0  0.48989  0.09077  0.88096  1.0000
  C   C301      1.0  0.29591  0.05362  0.96924  1.0000
  C   C302      1.0  0.40670  0.20714  0.96247  1.0000
  H   H244      1.0  0.40652  0.07441  0.95864  1.0000
  C   C303      1.0  0.41182  0.19000  0.95852  1.0000
  C   C304      1.0  0.48511  0.16372  0.82232  1.0000
  C   C305      1.0  0.26319  0.06855  0.92797  1.0000
  C   C306      1.0  0.48080  0.20595  0.96429  1.0000
  C   C307      1.0  0.32977  0.15056  0.95895  1.0000
  Fe  Fe21      1.0  0.45607  0.21928  0.89133  1.0000
  H   H245      1.0  0.49087  0.15637  0.81171  1.0000
  C   C308      1.0  0.36884  0.20610  0.94283  1.0000
  H   H246      1.0  0.49318  0.99229  0.87911  1.0000
  H   H247      1.0  0.33948  0.05259  0.94830  1.0000
  H   H248      1.0  0.31867  0.11796  0.96684  1.0000
  H   H249      1.0  0.35700  0.15879  0.91851  1.0000
  H   H250      1.0  0.40939  0.23474  0.95365  1.0000
  H   H251      1.0  0.37900  0.13719  0.93473  1.0000
  H   H252      1.0  0.38199  0.20745  0.94383  1.0000
  C   C309      1.0  0.39605  0.20471  0.89910  1.0000
  Fe  Fe22      1.0  0.48440  0.10087  0.90672  1.0000
  H   H253      1.0  0.29713  0.09796  0.97193  1.0000
  C   C310      1.0  0.24220  0.09218  0.94112  1.0000
  H   H254      1.0  0.47199  0.16457  0.91358  1.0000
  H   H255      1.0  0.49289  0.08299  0.79056  1.0000
  H   H256      1.0  0.44890  0.14642  0.93664  1.0000
  H   H257      1.0  0.32128  0.20168  0.93996  1.0000
  C   C311      1.0  0.43182  0.14665  0.78611  1.0000
  C   C312      1.0  0.41481  0.17501  0.90363  1.0000
  H   H258      1.0  0.37461  0.11999  0.81292  1.0000
  C   C313      1.0  0.40597  0.20816  0.88172  1.0000
  C   C314      1.0  0.42733  0.14996  0.85520  1.0000
  C   C315      1.0  0.33463  0.20280  0.94070  1.0000
  C   C316      1.0  0.36467  0.06416  0.96760  1.0000
  H   H259      1.0  0.48820  0.18935  0.80558  1.0000
  H   H260      1.0  0.43208  0.16113  0.85704  1.0000
  H   H261      1.0  0.48823  0.21672  0.95950  1.0000
  H   H262      1.0  0.39877  0.13400  0.81568  1.0000
  H   H263      1.0  0.36215  0.19429  0.97042  1.0000
  C   C317      1.0  0.45856  0.14489  0.79738  1.0000
  C   C318      1.0  0.48778  0.18972  0.95851  1.0000
  C   C319      1.0  0.48350  0.08540  0.80263  1.0000
  H   H264      1.0  0.42992  0.09401  0.97633  1.0000
  C   C320      1.0  0.47298  0.07646  0.83410  1.0000
  C   C321      1.0  0.45899  0.09141  0.83373  1.0000
  C   C322      1.0  0.45698  0.10334  0.81775  1.0000
  C   C323      1.0  0.46928  0.10015  0.80215  1.0000
  P   P10       1.0  0.43693  0.12036  0.81649  1.0000
  C   C324      1.0  0.41965  0.11048  0.81298  1.0000
  C   C325      1.0  0.42329  0.09249  0.81108  1.0000
  C   C326      1.0  0.40949  0.08457  0.80985  1.0000
  C   C327      1.0  0.39200  0.09450  0.81040  1.0000
  C   C328      1.0  0.38824  0.11238  0.81228  1.0000
  C   C329      1.0  0.40197  0.12031  0.81370  1.0000
  C   C330      1.0  0.42514  0.21866  0.93460  1.0000
  H   H265      1.0  0.34994  0.99409  0.76503  1.0000
  H   H266      1.0  0.44388  0.23421  0.95210  1.0000
  H   H267      1.0  0.28596  0.00831  0.77674  1.0000
  C   C331      1.0  0.40661  0.13664  0.96737  1.0000
  H   H268      1.0  0.18211  0.05382  0.95208  1.0000
  C   C332      1.0  0.35297  0.23142  0.86524  1.0000
  H   H269      1.0  0.48261  0.04820  0.92050  1.0000
  H   H270      1.0  0.29121  0.99374  0.80670  1.0000
  H   H271      1.0  0.33166  0.99623  0.85190  1.0000
  C   C333      1.0  0.49452  0.00746  0.85249  1.0000
  C   C334      1.0  0.34043  0.19698  0.95685  1.0000
  H   H272      1.0  0.40647  0.17896  0.96756  1.0000
  C   C335      1.0  0.19040  0.04536  0.96122  1.0000
  Fe  Fe23      1.0  0.49163  0.23242  0.87790  1.0000
  H   H273      1.0  0.28292  0.99017  0.75629  1.0000
  H   H274      1.0  0.39429  0.00474  0.94528  1.0000
  P   P11       1.0  0.23725  0.04513  0.97633  1.0000
  H   H275      1.0  0.20102  0.99006  0.96381  1.0000
  C   C336      1.0  0.33010  0.05050  0.97658  1.0000
  C   C337      1.0  0.41481  0.12073  0.97712  1.0000
  C   C338      1.0  0.46453  0.20811  0.97651  1.0000
  C   C339      1.0  0.18496  0.03000  0.97228  1.0000
  H   H276      1.0  0.17242  0.02662  0.97182  1.0000
  C   C340      1.0  0.21700  0.03916  0.97422  1.0000
  H   H277      1.0  0.38973  0.05075  0.97609  1.0000
  C   C341      1.0  0.36292  0.02525  0.97600  1.0000
  C   C342      1.0  0.47344  0.24453  0.02240  1.0000
  H   H278      1.0  0.42010  0.24767  0.97851  1.0000
  H   H279      1.0  0.38994  0.24661  0.99674  1.0000
  C   C343      1.0  0.46476  0.24436  0.00897  1.0000
  H   H280      1.0  0.00405  0.25644  0.04586  1.0000
  H   H281      1.0  0.01219  0.24765  0.26409  1.0000
  H   H282      1.0  0.00432  0.30513  0.24080  1.0000
  H   H283      1.0  0.00550  0.27453  0.23694  1.0000
  H   H284      1.0  0.45374  0.25521  0.00585  1.0000
  C   C344      1.0  0.01559  0.23896  0.25453  1.0000
  H   H285      1.0  0.46935  0.25559  0.02935  1.0000
  C   C345      1.0  0.40168  0.23895  0.00198  1.0000
  C   C346      1.0  0.41888  0.23934  0.99157  1.0000
  C   C347      1.0  0.34601  0.24982  0.86304  1.0000
  C   C348      1.0  0.40082  0.26561  0.91989  1.0000
  C   C349      1.0  0.46058  0.31167  0.82659  1.0000
  C   C350      1.0  0.47748  0.31326  0.81577  1.0000
  C   C351      1.0  0.47025  0.34239  0.84840  1.0000
  H   H286      1.0  0.45151  0.38599  0.85013  1.0000
  C   C352      1.0  0.45714  0.29069  0.81025  1.0000
  H   H287      1.0  0.48099  0.42001  0.92068  1.0000
  H   H288      1.0  0.47167  0.32937  0.85710  1.0000
  S   S47       1.0  0.47529  0.40547  0.88758  1.0000
  P   P12       1.0  0.49184  0.32490  0.82170  1.0000
  C   C353      1.0  0.46426  0.26167  0.96468  1.0000
  C   C354      1.0  0.45045  0.30049  0.82378  1.0000
  H   H289      1.0  0.42105  0.26235  0.89646  1.0000
  C   C355      1.0  0.47677  0.45820  0.87121  1.0000
  C   C356      1.0  0.34867  0.25973  0.87434  1.0000
  S   S48       1.0  0.44461  0.28651  0.87167  1.0000
  H   H290      1.0  0.46948  0.28725  0.94898  1.0000
  H   H291      1.0  0.48544  0.47259  0.81826  1.0000
  C   C357      1.0  0.47479  0.30968  0.90088  1.0000
  C   C358      1.0  0.45866  0.31964  0.89600  1.0000
  C   C359      1.0  0.44959  0.31273  0.88662  1.0000
  C   C360      1.0  0.45673  0.29594  0.88195  1.0000
  C   C361      1.0  0.47320  0.28637  0.88623  1.0000
  C   C362      1.0  0.48204  0.29306  0.89593  1.0000
  H   H292      1.0  0.45281  0.33232  0.90012  1.0000
  H   H293      1.0  0.43684  0.32020  0.88337  1.0000
  H   H294      1.0  0.47908  0.27365  0.88232  1.0000
  S   S49       1.0  0.48445  0.31652  0.91539  1.0000
  H   H295      1.0  0.45549  0.31834  0.83776  1.0000
  C   C363      1.0  0.48309  0.42561  0.87790  1.0000
  C   C364      1.0  0.47107  0.44192  0.87902  1.0000
  C   C365      1.0  0.38558  0.25991  0.93103  1.0000
  H   H296      1.0  0.45731  0.44196  0.88595  1.0000
  C   C366      1.0  0.45872  0.37435  0.84453  1.0000
  H   H297      1.0  0.44946  0.28165  0.80845  1.0000
  C   C367      1.0  0.48426  0.30310  0.80239  1.0000
  H   H298      1.0  0.48256  0.36316  0.80560  1.0000
  C   C368      1.0  0.46652  0.37630  0.82653  1.0000
  C   C369      1.0  0.46354  0.27578  0.95001  1.0000
  H   H299      1.0  0.40619  0.27594  0.92269  1.0000
  Fe  Fe24      1.0  0.45714  0.25741  0.87224  1.0000
  C   C370      1.0  0.35839  0.25130  0.88776  1.0000
  H   H300      1.0  0.47506  0.38915  0.77111  1.0000
  H   H301      1.0  0.43772  0.29889  0.83264  1.0000
  C   C371      1.0  0.44838  0.26002  0.93718  1.0000
  H   H302      1.0  0.46531  0.38951  0.81818  1.0000
  C   C372      1.0  0.47843  0.34424  0.83042  1.0000
  H   H303      1.0  0.44244  0.25930  0.92642  1.0000
  H   H304      1.0  0.46739  0.47074  0.87207  1.0000
  C   C373      1.0  0.46047  0.35738  0.85541  1.0000
  H   H305      1.0  0.45466  0.28602  0.92518  1.0000
  H   H306      1.0  0.45457  0.35585  0.86941  1.0000
  C   C374      1.0  0.47636  0.36131  0.81947  1.0000
  C   C375      1.0  0.45538  0.27504  0.93642  1.0000
  H   H307      1.0  0.33856  0.25641  0.85259  1.0000
  C   C376      1.0  0.40922  0.25792  0.90512  1.0000
  H   H308      1.0  0.34328  0.27400  0.87265  1.0000
  H   H309      1.0  0.36027  0.25922  0.89639  1.0000
  C   C377      1.0  0.45664  0.24680  0.96583  1.0000
  H   H310      1.0  0.45633  0.46341  0.83226  1.0000
  H   H311      1.0  0.47943  0.28395  0.78944  1.0000
  C   C378      1.0  0.47360  0.48266  0.82124  1.0000
  S   S50       1.0  0.48287  0.24981  0.85346  1.0000
  C   C379      1.0  0.45715  0.47746  0.82924  1.0000
  H   H312      1.0  0.47101  0.26232  0.97482  1.0000
  H   H313      1.0  0.37915  0.26577  0.94257  1.0000
  C   C380      1.0  0.44918  0.24588  0.95173  1.0000
  C   C381      1.0  0.47402  0.29202  0.79954  1.0000
  C   C382      1.0  0.49436  0.42315  0.91660  1.0000
  C   C383      1.0  0.48922  0.38919  0.76582  1.0000
  C   C384      1.0  0.37876  0.24649  0.92742  1.0000
  H   H314      1.0  0.49236  0.33730  0.78353  1.0000
  H   H315      1.0  0.48486  0.45165  0.91334  1.0000
  H   H316      1.0  0.48910  0.38087  0.74190  1.0000
  C   C385      1.0  0.40254  0.24438  0.90160  1.0000
  H   H317      1.0  0.36681  0.24252  0.93614  1.0000
  H   H318      1.0  0.49286  0.39846  0.78773  1.0000
  H   H319      1.0  0.49250  0.39864  0.85137  1.0000
  S   S51       1.0  0.46648  0.24109  0.89697  1.0000
  H   H320      1.0  0.40930  0.23860  0.89018  1.0000
  C   C386      1.0  0.38733  0.23842  0.91276  1.0000
  H   H321      1.0  0.49424  0.28507  0.89999  1.0000
  H   H322      1.0  0.49216  0.29308  0.97342  1.0000
  C   C387      1.0  0.49444  0.45826  0.86191  1.0000
  H   H323      1.0  0.42926  0.48628  0.84022  1.0000
  H   H324      1.0  0.03642  0.64128  0.40772  1.0000
  C   C388      1.0  0.01038  0.60382  0.41136  1.0000
  H   H325      1.0  0.00312  0.59336  0.41229  1.0000
  H   H326      1.0  0.04168  0.65643  0.45424  1.0000
  C   C389      1.0  0.02912  0.60069  0.40639  1.0000
  C   C390      1.0  0.02121  0.59089  0.45836  1.0000
  C   C391      1.0  0.00236  0.59493  0.46009  1.0000
  H   H327      1.0  0.99798  0.66703  0.35451  1.0000
  C   C392      1.0  0.01055  0.68498  0.42202  1.0000
  H   H328      1.0  0.00910  0.65070  0.38156  1.0000
  H   H329      1.0  0.02894  0.58080  0.45087  1.0000
  C   C393      1.0  0.09481  0.72592  0.45460  1.0000
  H   H330      1.0  0.02377  0.64182  0.44253  1.0000
  C   C394      1.0  0.09496  0.70765  0.46098  1.0000
  H   H331      1.0  0.04118  0.73247  0.41278  1.0000
  C   C395      1.0  0.03226  0.68293  0.44009  1.0000
  H   H332      1.0  0.09982  0.69829  0.45204  1.0000
  C   C396      1.0  0.02099  0.61295  0.47608  1.0000
  H   H333      1.0  0.03963  0.68940  0.44584  1.0000
  H   H334      1.0  0.21906  0.73085  0.45703  1.0000
  H   H335      1.0  0.09960  0.73076  0.44065  1.0000
  C   C397      1.0  0.02313  0.65614  0.43821  1.0000
  H   H336      1.0  0.04484  0.59633  0.46425  1.0000
  C   C398      1.0  0.03338  0.66439  0.44486  1.0000
  H   H337      1.0  0.05296  0.61185  0.40123  1.0000
  C   C399      1.0  0.00515  0.54058  0.29678  1.0000
  C   C400      1.0  0.02903  0.63080  0.40916  1.0000
  H   H338      1.0  0.00346  0.56769  0.29944  1.0000
  H   H339      1.0  0.05375  0.72605  0.46494  1.0000
  C   C401      1.0  0.03845  0.61421  0.40522  1.0000
  H   H340      1.0  0.03635  0.58778  0.40348  1.0000
  C   C402      1.0  0.01167  0.66635  0.42666  1.0000
  C   C403      1.0  0.01024  0.63378  0.41486  1.0000
  H   H341      1.0  0.01847  0.53962  0.28850  1.0000
  C   C404      1.0  0.06195  0.71886  0.39489  1.0000
  C   C405      1.0  0.08488  0.73536  0.37741  1.0000
  H   H342      1.0  0.05645  0.70672  0.39869  1.0000
  C   C406      1.0  0.02082  0.69322  0.42871  1.0000
  H   H343      1.0  0.01925  0.70767  0.42571  1.0000
  H   H344      1.0  0.00290  0.51381  0.29645  1.0000
  C   C407      1.0  0.99880  0.66265  0.38220  1.0000
  C   C408      1.0  0.00095  0.62025  0.41567  1.0000
  C   C409      1.0  0.07774  0.71976  0.38217  1.0000
  H   H345      1.0  0.08447  0.70835  0.37602  1.0000
  C   C410      1.0  0.03033  0.59979  0.46606  1.0000
  C   C411      1.0  0.22335  0.73130  0.46890  1.0000
  H   H346      1.0  0.00131  0.69329  0.41380  1.0000
  P   P13       1.0  0.99793  0.65558  0.41868  1.0000
  H   H347      1.0  0.24525  0.70871  0.46654  1.0000
  C   C412      1.0  0.23812  0.71887  0.47423  1.0000
  C   C413      1.0  0.08850  0.73797  0.46619  1.0000
  C   C414      1.0  0.99670  0.55638  0.30295  1.0000
  C   C415      1.0  0.05321  0.73362  0.40273  1.0000
  C   C416      1.0  0.99639  0.52604  0.30127  1.0000
  H   H348      1.0  0.09717  0.73606  0.36758  1.0000
  C   C417      1.0  0.04598  0.73799  0.45818  1.0000
  C   C418      1.0  0.08899  0.70140  0.47899  1.0000
  H   H349      1.0  0.44120  0.67730  0.73298  1.0000
  C   C419      1.0  0.24918  0.71003  0.66669  1.0000
  C   C420      1.0  0.48304  0.54115  0.80715  1.0000
  S   S52       1.0  0.30024  0.72531  0.58439  1.0000
  H   H350      1.0  0.34207  0.62738  0.67353  1.0000
  C   C421      1.0  0.48479  0.72539  0.69065  1.0000
  C   C422      1.0  0.46256  0.58795  0.65349  1.0000
  C   C423      1.0  0.45615  0.54044  0.87864  1.0000
  H   H351      1.0  0.21876  0.66939  0.56388  1.0000
  H   H352      1.0  0.34372  0.68889  0.74001  1.0000
  Fe  Fe25      1.0  0.44889  0.56483  0.74260  1.0000
  S   S53       1.0  0.45139  0.53639  0.75787  1.0000
  Fe  Fe26      1.0  0.43700  0.59353  0.71200  1.0000
  S   S54       1.0  0.44832  0.61441  0.71850  1.0000
  S   S55       1.0  0.42088  0.60116  0.69029  1.0000
  Fe  Fe27      1.0  0.43579  0.60418  0.74642  1.0000
  H   H353      1.0  0.43604  0.64663  0.73525  1.0000
  S   S56       1.0  0.46177  0.57202  0.71400  1.0000
  S   S57       1.0  0.42304  0.58442  0.73985  1.0000
  C   C424      1.0  0.43167  0.65290  0.74668  1.0000
  Fe  Fe28      1.0  0.02656  0.68216  0.50774  1.0000
  C   C425      1.0  0.42683  0.72453  0.81041  1.0000
  Fe  Fe29      1.0  0.02643  0.65214  0.53963  1.0000
  S   S58       1.0  0.05142  0.63567  0.52632  1.0000
  H   H354      1.0  0.27058  0.73633  0.48869  1.0000
  Fe  Fe30      1.0  0.06183  0.66192  0.51787  1.0000
  S   S59       1.0  0.08834  0.66870  0.52089  1.0000
  S   S60       1.0  0.03735  0.67741  0.53240  1.0000
  H   H355      1.0  0.33084  0.71732  0.68839  1.0000
  H   H356      1.0  0.45125  0.64776  0.60614  1.0000
  S   S61       1.0  0.43978  0.69779  0.59246  1.0000
  H   H357      1.0  0.49018  0.58123  0.65660  1.0000
  H   H358      1.0  0.42801  0.66404  0.58880  1.0000
  Fe  Fe31      1.0  0.42937  0.68981  0.62152  1.0000
  S   S62       1.0  0.44733  0.66767  0.63650  1.0000
  C   C426      1.0  0.48453  0.54856  0.78898  1.0000
  Fe  Fe32      1.0  0.03760  0.64330  0.50242  1.0000
  Fe  Fe33      1.0  0.16879  0.70761  0.58249  1.0000
  Fe  Fe34      1.0  0.41104  0.70141  0.58997  1.0000
  S   S63       1.0  0.18300  0.67982  0.59286  1.0000
  C   C427      1.0  0.37930  0.61590  0.64267  1.0000
  S   S64       1.0  0.10578  0.71646  0.56916  1.0000
  C   C428      1.0  0.47885  0.66144  0.67747  1.0000
  C   C429      1.0  0.35764  0.65073  0.58395  1.0000
  H   H359      1.0  0.00629  0.69634  0.55283  1.0000
  S   S65       1.0  0.25949  0.66329  0.61383  1.0000
  H   H360      1.0  0.26358  0.72848  0.54542  1.0000
  C   C430      1.0  0.20389  0.67634  0.59921  1.0000
  C   C431      1.0  0.21049  0.65940  0.60853  1.0000
  C   C432      1.0  0.22745  0.65564  0.61309  1.0000
  C   C433      1.0  0.23805  0.66876  0.60828  1.0000
  C   C434      1.0  0.23147  0.68582  0.59906  1.0000
  C   C435      1.0  0.21440  0.68959  0.59449  1.0000
  H   H361      1.0  0.20252  0.64906  0.61208  1.0000
  H   H362      1.0  0.23247  0.64244  0.62015  1.0000
  S   S66       1.0  0.46021  0.58360  0.75208  1.0000
  H   H363      1.0  0.20967  0.70254  0.58682  1.0000
  C   C436      1.0  0.09278  0.68284  0.53378  1.0000
  C   C437      1.0  0.11064  0.68465  0.53261  1.0000
  C   C438      1.0  0.11487  0.69505  0.54290  1.0000
  C   C439      1.0  0.10130  0.70394  0.55474  1.0000
  C   C440      1.0  0.08340  0.70251  0.55556  1.0000
  C   C441      1.0  0.07916  0.69223  0.54515  1.0000
  H   H364      1.0  0.12140  0.67780  0.52376  1.0000
  H   H365      1.0  0.12872  0.69587  0.54194  1.0000
  H   H366      1.0  0.07270  0.70921  0.56457  1.0000
  H   H367      1.0  0.06532  0.69132  0.54622  1.0000
  H   H368      1.0  0.44194  0.68069  0.67038  1.0000
  C   C442      1.0  0.41369  0.69158  0.67721  1.0000
  Fe  Fe35      1.0  0.29576  0.70865  0.61180  1.0000
  H   H369      1.0  0.39438  0.69029  0.53667  1.0000
  H   H370      1.0  0.14101  0.60383  0.57262  1.0000
  H   H371      1.0  0.47443  0.66302  0.66514  1.0000
  C   C443      1.0  0.36117  0.64891  0.61400  1.0000
  C   C444      1.0  0.35322  0.70188  0.75589  1.0000
  Fe  Fe36      1.0  0.30653  0.69890  0.57591  1.0000
  C   C445      1.0  0.20841  0.73644  0.60510  1.0000
  H   H372      1.0  0.47113  0.68428  0.73179  1.0000
  H   H373      1.0  0.05371  0.63460  0.56919  1.0000
  C   C446      1.0  0.38623  0.65279  0.58930  1.0000
  C   C447      1.0  0.11560  0.61226  0.58962  1.0000
  C   C448      1.0  0.42780  0.61974  0.67515  1.0000
  C   C449      1.0  0.41615  0.63161  0.66471  1.0000
  C   C450      1.0  0.42182  0.64657  0.65273  1.0000
  C   C451      1.0  0.43933  0.64927  0.65094  1.0000
  C   C452      1.0  0.45106  0.63700  0.66095  1.0000
  C   C453      1.0  0.44524  0.62248  0.67324  1.0000
  H   H374      1.0  0.40277  0.62928  0.66604  1.0000
  H   H375      1.0  0.41277  0.65593  0.64488  1.0000
  H   H376      1.0  0.46475  0.63872  0.65920  1.0000
  H   H377      1.0  0.45448  0.61306  0.68080  1.0000
  C   C454      1.0  0.35483  0.61999  0.66767  1.0000
  C   C455      1.0  0.04494  0.73071  0.51485  1.0000
  C   C456      1.0  0.35055  0.69446  0.55774  1.0000
  C   C457      1.0  0.48277  0.68740  0.73470  1.0000
  C   C458      1.0  0.47404  0.52700  0.75920  1.0000
  C   C459      1.0  0.47834  0.51173  0.77204  1.0000
  H   H378      1.0  0.48751  0.68674  0.67019  1.0000
  C   C460      1.0  0.48118  0.70377  0.73957  1.0000
  C   C461      1.0  0.21928  0.65456  0.67448  1.0000
  H   H379      1.0  0.46770  0.50546  0.78086  1.0000
  H   H380      1.0  0.15109  0.63942  0.56545  1.0000
  C   C462      1.0  0.42109  0.66896  0.77641  1.0000
  H   H381      1.0  0.08927  0.68720  0.48404  1.0000
  C   C463      1.0  0.42937  0.67898  0.67946  1.0000
  C   C464      1.0  0.43459  0.67029  0.74541  1.0000
  H   H382      1.0  0.38841  0.58562  0.67966  1.0000
  H   H383      1.0  0.16941  0.64238  0.53534  1.0000
  C   C465      1.0  0.42957  0.67818  0.76042  1.0000
  H   H384      1.0  0.12461  0.62531  0.61445  1.0000
  C   C466      1.0  0.22790  0.66351  0.65843  1.0000
  H   H385      1.0  0.36922  0.65326  0.75530  1.0000
  H   H386      1.0  0.41426  0.70305  0.66648  1.0000
  C   C467      1.0  0.13210  0.58156  0.59150  1.0000
  H   H387      1.0  0.40135  0.68353  0.73206  1.0000
  C   C468      1.0  0.49263  0.63965  0.60040  1.0000
  C   C469      1.0  0.26476  0.73165  0.51738  1.0000
  C   C470      1.0  0.21150  0.72408  0.64058  1.0000
  C   C471      1.0  0.48786  0.53499  0.74778  1.0000
  H   H388      1.0  0.00607  0.51806  0.57830  1.0000
  Fe  Fe37      1.0  0.43233  0.72576  0.59730  1.0000
  C   C472      1.0  0.47738  0.64600  0.69049  1.0000
  C   C473      1.0  0.42315  0.64373  0.76278  1.0000
  C   C474      1.0  0.24120  0.68266  0.55199  1.0000
  C   C475      1.0  0.00119  0.61033  0.53182  1.0000
  H   H389      1.0  0.23956  0.69607  0.59528  1.0000
  H   H390      1.0  0.35350  0.72427  0.60048  1.0000
  C   C476      1.0  0.47092  0.61636  0.77423  1.0000
  H   H391      1.0  0.22070  0.64014  0.67691  1.0000
  C   C477      1.0  0.47552  0.72390  0.60146  1.0000
  C   C478      1.0  0.03160  0.72493  0.52888  1.0000
  C   C479      1.0  0.44325  0.50838  0.83039  1.0000
  C   C480      1.0  0.27601  0.73368  0.50057  1.0000
  C   C481      1.0  0.38474  0.69447  0.56344  1.0000
  H   H392      1.0  0.49160  0.66639  0.62873  1.0000
  C   C482      1.0  0.44461  0.55223  0.80927  1.0000
  C   C483      1.0  0.43421  0.54622  0.80053  1.0000
  C   C484      1.0  0.42213  0.55849  0.79091  1.0000
  C   C485      1.0  0.42047  0.57685  0.78975  1.0000
  C   C486      1.0  0.43116  0.58298  0.79791  1.0000
  C   C487      1.0  0.44340  0.57075  0.80737  1.0000
  C   C488      1.0  0.20081  0.71688  0.63323  1.0000
  C   C489      1.0  0.47478  0.64634  0.75895  1.0000
  H   H393      1.0  0.45763  0.58045  0.66644  1.0000
  H   H394      1.0  0.48232  0.63164  0.71601  1.0000
  H   H395      1.0  0.45435  0.64048  0.78198  1.0000
  H   H396      1.0  0.01381  0.67882  0.48280  1.0000
  S   S67       1.0  0.01372  0.64316  0.56803  1.0000
  S   S68       1.0  0.30787  0.71034  0.63409  1.0000
  C   C490      1.0  0.24674  0.69821  0.54152  1.0000
  C   C491      1.0  0.38551  0.69875  0.75145  1.0000
  H   H397      1.0  0.25093  0.67164  0.55747  1.0000
  H   H398      1.0  0.38550  0.69945  0.68692  1.0000
  C   C492      1.0  0.46756  0.52596  0.87185  1.0000
  H   H399      1.0  0.19064  0.71779  0.61013  1.0000
  C   C493      1.0  0.30971  0.73410  0.65302  1.0000
  H   H400      1.0  0.43600  0.53216  0.80025  1.0000
  H   H401      1.0  0.41465  0.55375  0.78369  1.0000
  H   H402      1.0  0.41138  0.58635  0.78198  1.0000
  H   H403      1.0  0.43032  0.59725  0.79639  1.0000
  H   H404      1.0  0.43948  0.56331  0.84215  1.0000
  H   H405      1.0  0.48371  0.72988  0.64719  1.0000
  C   C494      1.0  0.36825  0.70537  0.76014  1.0000
  C   C495      1.0  0.48544  0.60921  0.76214  1.0000
  H   H406      1.0  0.01564  0.60760  0.52710  1.0000
  P   P14       1.0  0.21319  0.71608  0.66343  1.0000
  H   H407      1.0  0.47180  0.63556  0.68827  1.0000
  P   P15       1.0  0.48362  0.62104  0.59908  1.0000
  C   C496      1.0  0.47499  0.60877  0.62062  1.0000
  C   C497      1.0  0.03109  0.72715  0.54594  1.0000
  C   C498      1.0  0.08279  0.71338  0.49063  1.0000
  Fe  Fe38      1.0  0.27165  0.72429  0.58482  1.0000
  C   C499      1.0  0.49245  0.67252  0.69593  1.0000
  C   C500      1.0  0.46736  0.62898  0.56942  1.0000
  C   C501      1.0  0.43880  0.65401  0.58351  1.0000
  C   C502      1.0  0.45663  0.60798  0.62617  1.0000
  C   C503      1.0  0.11957  0.63782  0.54294  1.0000
  C   C504      1.0  0.20684  0.68290  0.68405  1.0000
  S   S69       1.0  0.30424  0.68220  0.60320  1.0000
  C   C505      1.0  0.48706  0.59886  0.63161  1.0000
  C   C506      1.0  0.46616  0.63181  0.58652  1.0000
  H   H408      1.0  0.48500  0.59925  0.68656  1.0000
  H   H409      1.0  0.27690  0.70555  0.66923  1.0000
  S   S70       1.0  0.40666  0.69276  0.56657  1.0000
  H   H410      1.0  0.13328  0.72465  0.51826  1.0000
  H   H411      1.0  0.32069  0.72412  0.65761  1.0000
  C   C507      1.0  0.21584  0.71142  0.53876  1.0000
  H   H412      1.0  0.36661  0.71321  0.77012  1.0000
  C   C508      1.0  0.34528  0.73731  0.59681  1.0000
  H   H413      1.0  0.20450  0.71869  0.70071  1.0000
  H   H414      1.0  0.25473  0.70936  0.49391  1.0000
  H   H415      1.0  0.48072  0.63975  0.62801  1.0000
  H   H416      1.0  0.45515  0.63635  0.54636  1.0000
  C   C509      1.0  0.04388  0.73526  0.54896  1.0000
  S   S71       1.0  0.01296  0.70961  0.49631  1.0000
  C   C510      1.0  0.23446  0.73252  0.49964  1.0000
  H   H417      1.0  0.44696  0.61530  0.61803  1.0000
  C   C511      1.0  0.13013  0.63930  0.52590  1.0000
  C   C512      1.0  0.29068  0.72790  0.53080  1.0000
  C   C513      1.0  0.48086  0.58846  0.64796  1.0000
  C   C514      1.0  0.37197  0.73823  0.65661  1.0000
  S   S72       1.0  0.01252  0.65884  0.51671  1.0000
  C   C515      1.0  0.23405  0.71282  0.53497  1.0000
  C   C516      1.0  0.49348  0.71713  0.60341  1.0000
  H   H418      1.0  0.48315  0.59063  0.58411  1.0000
  C   C517      1.0  0.43342  0.72398  0.79252  1.0000
  C   C518      1.0  0.13316  0.67326  0.59315  1.0000
  C   C519      1.0  0.37280  0.68509  0.73412  1.0000
  C   C520      1.0  0.35043  0.64898  0.60207  1.0000
  P   P16       1.0  0.35229  0.64648  0.63754  1.0000
  C   C521      1.0  0.32818  0.64763  0.64215  1.0000
  C   C522      1.0  0.31603  0.66236  0.64807  1.0000
  C   C523      1.0  0.29749  0.66375  0.64986  1.0000
  C   C524      1.0  0.29091  0.65030  0.64609  1.0000
  C   C525      1.0  0.30284  0.63523  0.64093  1.0000
  C   C526      1.0  0.32140  0.63381  0.63912  1.0000
  C   C527      1.0  0.35807  0.66440  0.64435  1.0000
  C   C528      1.0  0.35189  0.68229  0.63681  1.0000
  C   C529      1.0  0.35599  0.69616  0.64241  1.0000
  C   C530      1.0  0.36712  0.69224  0.65481  1.0000
  C   C531      1.0  0.37420  0.67449  0.66154  1.0000
  C   C532      1.0  0.36950  0.66062  0.65657  1.0000
  H   H419      1.0  0.34914  0.65143  0.57473  1.0000
  H   H420      1.0  0.33638  0.64819  0.60646  1.0000
  H   H421      1.0  0.32063  0.67309  0.65090  1.0000
  H   H422      1.0  0.28830  0.67562  0.65351  1.0000
  H   H423      1.0  0.27659  0.65174  0.64679  1.0000
  H   H424      1.0  0.34365  0.68555  0.62682  1.0000
  H   H425      1.0  0.35073  0.70995  0.63692  1.0000
  C   C533      1.0  0.24355  0.71934  0.48965  1.0000
  C   C534      1.0  0.45971  0.51373  0.82215  1.0000
  H   H426      1.0  0.37503  0.64705  0.66221  1.0000
  H   H427      1.0  0.14364  0.57192  0.58670  1.0000
  H   H428      1.0  0.10565  0.63691  0.54457  1.0000
  H   H429      1.0  0.19363  0.70650  0.64113  1.0000
  C   C535      1.0  0.19289  0.72576  0.69494  1.0000
  H   H430      1.0  0.46833  0.71288  0.74070  1.0000
  C   C536      1.0  0.36960  0.69688  0.57697  1.0000
  H   H431      1.0  0.20205  0.65729  0.69971  1.0000
  S   S73       1.0  0.41930  0.62191  0.76547  1.0000
  H   H432      1.0  0.14475  0.67128  0.61570  1.0000
  C   C537      1.0  0.11880  0.57587  0.60564  1.0000
  S   S74       1.0  0.14249  0.71747  0.59947  1.0000
  S   S75       1.0  0.27824  0.69916  0.57403  1.0000
  H   H433      1.0  0.45225  0.57575  0.81282  1.0000
  S   S76       1.0  0.15744  0.71279  0.55787  1.0000
  H   H434      1.0  0.12415  0.63965  0.51479  1.0000
  C   C538      1.0  0.45197  0.64467  0.59333  1.0000
  C   C539      1.0  0.36252  0.62547  0.64981  1.0000
  C   C540      1.0  0.38782  0.68860  0.73853  1.0000
  H   H435      1.0  0.09081  0.61599  0.60893  1.0000
  C   C541      1.0  0.38847  0.60146  0.65339  1.0000
  C   C542      1.0  0.08149  0.66144  0.58388  1.0000
  H   H436      1.0  0.46483  0.71809  0.61073  1.0000
  C   C543      1.0  0.14500  0.63947  0.55453  1.0000
  C   C544      1.0  0.46914  0.52504  0.85417  1.0000
  C   C545      1.0  0.15552  0.64101  0.53746  1.0000
  S   S77       1.0  0.32964  0.69354  0.55370  1.0000
  C   C546      1.0  0.06322  0.66812  0.58356  1.0000
  H   H437      1.0  0.12174  0.67135  0.57189  1.0000
  H   H438      1.0  0.03918  0.66375  0.57763  1.0000
  H   H439      1.0  0.23279  0.68878  0.64251  1.0000
  H   H440      1.0  0.15612  0.64242  0.50987  1.0000
  C   C547      1.0  0.43986  0.65089  0.56666  1.0000
  H   H441      1.0  0.09363  0.58393  0.62282  1.0000
  H   H442      1.0  0.25089  0.69725  0.66295  1.0000
  H   H443      1.0  0.47786  0.51354  0.84927  1.0000
  C   C548      1.0  0.41756  0.65201  0.77749  1.0000
  H   H444      1.0  0.40168  0.59448  0.64799  1.0000
  H   H445      1.0  0.05691  0.68102  0.58705  1.0000
  C   C549      1.0  0.08990  0.64489  0.57900  1.0000
  C   C550      1.0  0.12681  0.63816  0.55738  1.0000
  H   H446      1.0  0.34745  0.73469  0.56995  1.0000
  H   H447      1.0  0.44090  0.65434  0.69506  1.0000
  H   H448      1.0  0.19856  0.69010  0.69410  1.0000
  H   H449      1.0  0.41095  0.64503  0.78993  1.0000
  C   C551      1.0  0.45048  0.59766  0.64257  1.0000
  H   H450      1.0  0.39987  0.65498  0.58423  1.0000
  C   C552      1.0  0.35547  0.69166  0.74302  1.0000
  C   C553      1.0  0.13813  0.66464  0.60931  1.0000
  C   C554      1.0  0.39740  0.68938  0.68879  1.0000
  C   C555      1.0  0.38271  0.69225  0.54711  1.0000
  S   S78       1.0  0.05130  0.66761  0.49226  1.0000
  S   S79       1.0  0.42456  0.71770  0.62661  1.0000
  H   H451      1.0  0.38568  0.61978  0.62903  1.0000
  H   H452      1.0  0.13877  0.64075  0.62950  1.0000
  C   C556      1.0  0.07967  0.63515  0.57393  1.0000
  H   H453      1.0  0.08579  0.62235  0.57014  1.0000
  C   C557      1.0  0.37496  0.62521  0.75520  1.0000
  C   C558      1.0  0.38064  0.61195  0.74495  1.0000
  C   C559      1.0  0.38487  0.61675  0.72653  1.0000
  C   C560      1.0  0.38341  0.63479  0.71832  1.0000
  C   C561      1.0  0.37744  0.64823  0.72852  1.0000
  C   C562      1.0  0.37328  0.64329  0.74705  1.0000
  P   P17       1.0  0.37576  0.67153  0.71779  1.0000
  C   C563      1.0  0.39667  0.67433  0.70257  1.0000
  C   C564      1.0  0.35705  0.67888  0.70625  1.0000
  C   C565      1.0  0.35006  0.69725  0.70156  1.0000
  C   C566      1.0  0.33597  0.70312  0.69220  1.0000
  C   C567      1.0  0.32875  0.69073  0.68741  1.0000
  C   C568      1.0  0.33540  0.67242  0.69225  1.0000
  C   C569      1.0  0.34944  0.66649  0.70169  1.0000
  C   C570      1.0  0.38095  0.59641  0.67125  1.0000
  C   C571      1.0  0.13481  0.64743  0.61700  1.0000
  P   P18       1.0  0.11344  0.63572  0.57958  1.0000
  C   C572      1.0  0.42880  0.66416  0.69332  1.0000
  C   C573      1.0  0.41260  0.66188  0.70492  1.0000
  H   H454      1.0  0.35831  0.60166  0.69223  1.0000
  C   C574      1.0  0.05325  0.65847  0.57822  1.0000
  H   H455      1.0  0.07854  0.70817  0.50459  1.0000
  C   C575      1.0  0.14807  0.64098  0.52313  1.0000
  H   H456      1.0  0.13573  0.68658  0.58712  1.0000
  C   C576      1.0  0.12196  0.64727  0.59201  1.0000
  H   H457      1.0  0.37240  0.62145  0.76950  1.0000
  H   H458      1.0  0.38226  0.59795  0.75131  1.0000
  H   H459      1.0  0.38981  0.60644  0.71860  1.0000
  H   H460      1.0  0.38732  0.63821  0.70403  1.0000
  H   H461      1.0  0.12002  0.56181  0.61178  1.0000
  H   H462      1.0  0.35562  0.70705  0.70503  1.0000
  Fe  Fe39      1.0  0.13130  0.72372  0.57414  1.0000
  H   H463      1.0  0.31816  0.69532  0.67973  1.0000
  H   H464      1.0  0.32991  0.66283  0.68836  1.0000
  H   H465      1.0  0.35440  0.65227  0.70508  1.0000
  H   H466      1.0  0.37123  0.69809  0.58975  1.0000
  C   C577      1.0  0.12516  0.66462  0.58454  1.0000
  C   C578      1.0  0.12675  0.63873  0.60841  1.0000
  C   C579      1.0  0.10236  0.60647  0.60392  1.0000
  H   H467      1.0  0.41269  0.65044  0.71575  1.0000
  S   S80       1.0  0.40106  0.69116  0.61877  1.0000
  H   H468      1.0  0.38734  0.65213  0.61619  1.0000
  H   H469      1.0  0.41724  0.67495  0.78804  1.0000
  C   C580      1.0  0.22308  0.68137  0.55560  1.0000
  S   S81       1.0  0.43473  0.69891  0.76021  1.0000
  H   H470      1.0  0.37054  0.70292  0.65900  1.0000
  C   C581      1.0  0.06148  0.64198  0.57343  1.0000
  C   C582      1.0  0.13055  0.59970  0.58352  1.0000
  C   C583      1.0  0.37902  0.65129  0.60739  1.0000
  H   H471      1.0  0.33051  0.62228  0.63463  1.0000
  C   C584      1.0  0.38798  0.73603  0.66250  1.0000
  H   H472      1.0  0.23599  0.65605  0.64843  1.0000
  Fe  Fe40      1.0  0.47173  0.59196  0.72338  1.0000
  C   C585      1.0  0.37560  0.65240  0.57760  1.0000
  H   H473      1.0  0.08892  0.66939  0.58773  1.0000
  H   H474      1.0  0.48801  0.50430  0.81229  1.0000
  H   H475      1.0  0.19634  0.69481  0.55225  1.0000
  H   H476      1.0  0.43624  0.59756  0.64711  1.0000
  C   C586      1.0  0.21536  0.69201  0.66788  1.0000
  C   C587      1.0  0.22600  0.68213  0.65512  1.0000
  H   H477      1.0  0.26091  0.69859  0.53857  1.0000
  C   C588      1.0  0.36570  0.69228  0.54427  1.0000
  C   C589      1.0  0.21041  0.69577  0.54908  1.0000
  H   H478      1.0  0.38103  0.65422  0.56352  1.0000
  C   C590      1.0  0.36404  0.60552  0.67834  1.0000
  S   S82       1.0  0.26638  0.71048  0.61336  1.0000
  H   H479      1.0  0.44486  0.71381  0.78852  1.0000
  C   C591      1.0  0.10395  0.58832  0.61185  1.0000
  H   H480      1.0  0.36430  0.69037  0.53164  1.0000
  H   H481      1.0  0.34079  0.69835  0.58467  1.0000
  H   H482      1.0  0.29769  0.62495  0.63780  1.0000
  C   C592      1.0  0.35244  0.69686  0.57412  1.0000
  H   H483      1.0  0.39716  0.70149  0.75468  1.0000
  Fe  Fe41      1.0  0.39709  0.71998  0.62138  1.0000
  H   H484      1.0  0.27371  0.73468  0.67774  1.0000
  C   C593      1.0  0.20878  0.66425  0.68729  1.0000
  Fe  Fe42      1.0  0.27508  0.68539  0.60242  1.0000
  H   H485      1.0  0.38336  0.67143  0.67063  1.0000
  H   H486      1.0  0.42982  0.65852  0.55893  1.0000
  C   C594      1.0  0.48869  0.64618  0.61612  1.0000
  C   C595      1.0  0.45414  0.63840  0.55961  1.0000
  H   H487      1.0  0.46353  0.60754  0.78456  1.0000
  C   C596      1.0  0.19913  0.72321  0.61561  1.0000
  H   H488      1.0  0.45490  0.54111  0.89237  1.0000
  H   H489      1.0  0.43332  0.71487  0.82035  1.0000
  H   H490      1.0  0.43713  0.56499  0.87310  1.0000
  H   H491      1.0  0.30321  0.73366  0.48604  1.0000
  P   P19       1.0  0.46156  0.53665  0.82029  1.0000
  H   H492      1.0  0.47643  0.72866  0.70285  1.0000
  C   C597      1.0  0.00104  0.70651  0.48160  1.0000
  H   H493      1.0  0.35141  0.71600  0.83162  1.0000
  C   C598      1.0  0.44774  0.55299  0.85004  1.0000
  H   H494      1.0  0.43150  0.51816  0.83447  1.0000
  H   H495      1.0  0.20584  0.72244  0.53369  1.0000
  H   H496      1.0  0.43051  0.73612  0.76584  1.0000
  P   P20       1.0  0.24094  0.73241  0.52003  1.0000
  C   C599      1.0  0.48888  0.72617  0.65931  1.0000
  S   S83       1.0  0.40448  0.73015  0.59229  1.0000
  C   C600      1.0  0.47788  0.73038  0.67506  1.0000
  Fe  Fe43      1.0  0.42688  0.72199  0.73864  1.0000
  C   C601      1.0  0.48334  0.64384  0.70627  1.0000
  H   H497      1.0  0.47321  0.55092  0.78250  1.0000
  H   H498      1.0  0.02173  0.71861  0.52647  1.0000
  H   H499      1.0  0.02085  0.72248  0.55683  1.0000
  C   C602      1.0  0.19317  0.72655  0.67700  1.0000
  S   S84       1.0  0.42207  0.71830  0.71321  1.0000
  C   C603      1.0  0.48624  0.67479  0.68029  1.0000
  H   H500      1.0  0.47865  0.61996  0.56340  1.0000
  H   H501      1.0  0.01351  0.55808  0.50692  1.0000
  H   H502      1.0  0.37874  0.72892  0.82097  1.0000
  C   C604      1.0  0.45952  0.53869  0.84298  1.0000
  C   C605      1.0  0.44619  0.55390  0.86777  1.0000
  H   H503      1.0  0.33983  0.70713  0.76252  1.0000
  C   C606      1.0  0.46571  0.63491  0.77272  1.0000
  C   C607      1.0  0.26396  0.71462  0.67035  1.0000
  S   S85       1.0  0.03381  0.62361  0.48571  1.0000
  H   H504      1.0  0.10803  0.72219  0.50598  1.0000
  H   H505      1.0  0.47017  0.66061  0.75799  1.0000
  H   H506      1.0  0.47514  0.51531  0.88025  1.0000
  C   C608      1.0  0.23255  0.72200  0.66763  1.0000
  S   S86       1.0  0.37209  0.73620  0.63508  1.0000
  C   C609      1.0  0.35023  0.73043  0.82851  1.0000
  H   H507      1.0  0.31626  0.72786  0.51301  1.0000
  C   C610      1.0  0.29453  0.73235  0.49899  1.0000
  C   C611      1.0  0.27215  0.72940  0.53241  1.0000
  H   H508      1.0  0.29638  0.72557  0.54253  1.0000
  H   H509      1.0  0.48472  0.54675  0.73784  1.0000
  H   H510      1.0  0.99676  0.63318  0.51099  1.0000
  C   C612      1.0  0.30188  0.72923  0.51412  1.0000
  C   C613      1.0  0.99796  0.53145  0.57713  1.0000
  H   H511      1.0  0.40070  0.73351  0.65361  1.0000
  C   C614      1.0  0.49096  0.65713  0.70909  1.0000
  H   H512      1.0  0.04520  0.72863  0.50179  1.0000
  C   C615      1.0  0.47496  0.50069  0.81782  1.0000
  H   H513      1.0  0.04367  0.73678  0.56222  1.0000
  C   C616      1.0  0.17772  0.73424  0.70548  1.0000
  C   C617      1.0  0.00357  0.68947  0.47796  1.0000
  C   C618      1.0  0.00206  0.61686  0.47807  1.0000
  C   C619      1.0  0.30119  0.73097  0.64079  1.0000
  C   C620      1.0  0.08219  0.73181  0.48428  1.0000
  S   S87       1.0  0.17835  0.73366  0.57603  1.0000
  H   H514      1.0  0.40003  0.73523  0.68447  1.0000
  H   H515      1.0  0.32124  0.73581  0.83464  1.0000
  C   C621      1.0  0.26224  0.73114  0.67496  1.0000
  C   C622      1.0  0.44195  0.49034  0.83377  1.0000
  H   H516      1.0  0.49402  0.61454  0.65546  1.0000
  H   H517      1.0  0.00045  0.58982  0.50811  1.0000
  C   C623      1.0  0.48923  0.63926  0.74657  1.0000
  C   C624      1.0  0.10794  0.73469  0.50957  1.0000
  H   H518      1.0  0.00159  0.58811  0.55365  1.0000
  H   H519      1.0  0.48946  0.59484  0.76311  1.0000
  C   C625      1.0  0.12230  0.73598  0.51659  1.0000
  C   C626      1.0  0.99905  0.56262  0.50880  1.0000
  H   H520      1.0  0.99970  0.53502  0.54899  1.0000
  C   C627      1.0  0.17809  0.73619  0.66973  1.0000
  C   C628      1.0  0.49448  0.62060  0.74835  1.0000
  H   H521      1.0  0.17762  0.73363  0.71928  1.0000
  H   H522      1.0  0.17793  0.73752  0.65587  1.0000
  C   C629      1.0  0.38756  0.73706  0.67999  1.0000
  C   C630      1.0  0.22029  0.73779  0.63016  1.0000
  C   C631      1.0  0.42522  0.73655  0.77967  1.0000
  C   C632      1.0  0.47150  0.73812  0.58757  1.0000
  C   C633      1.0  0.41193  0.73755  0.81542  1.0000
  C   C634      1.0  0.49486  0.66136  0.61655  1.0000
  H   H523      1.0  0.49478  0.72109  0.74663  1.0000
  H   H524      1.0  0.40704  0.73787  0.82935  1.0000
  C   C635      1.0  0.36577  0.73783  0.82256  1.0000
  Fe  Fe44      1.0  0.22787  0.94576  0.04506  1.0000
  S   S88       1.0  0.23084  0.96988  0.05383  1.0000
  S   S89       1.0  0.22028  0.92096  0.06365  1.0000
  Fe  Fe45      1.0  0.23911  0.96074  0.00583  1.0000
  H   H525      1.0  0.34839  0.97613  0.05192  1.0000
  C   C636      1.0  0.07127  0.98750  0.35067  1.0000
  Fe  Fe46      1.0  0.25621  0.96849  0.03322  1.0000
  S   S90       1.0  0.28246  0.97307  0.03643  1.0000
  H   H526      1.0  0.34641  0.90392  0.47392  1.0000
  C   C637      1.0  0.24090  0.85686  0.30881  1.0000
  S   S91       1.0  0.25448  0.94307  0.02613  1.0000
  C   C638      1.0  0.16976  0.98603  0.18002  1.0000
  Fe  Fe47      1.0  0.23040  0.92026  0.15754  1.0000
  S   S92       1.0  0.24536  0.92341  0.17726  1.0000
  S   S93       1.0  0.24328  0.90165  0.13836  1.0000
  Fe  Fe48      1.0  0.19611  0.94397  0.17212  1.0000
  S   S94       1.0  0.20809  0.94937  0.19263  1.0000
  S   S95       1.0  0.16722  0.95545  0.17050  1.0000
  Fe  Fe49      1.0  0.23239  0.95237  0.17113  1.0000
  S   S96       1.0  0.24522  0.97543  0.17034  1.0000
  Fe  Fe50      1.0  0.21979  0.92015  0.19689  1.0000
  S   S97       1.0  0.21798  0.90680  0.22542  1.0000
  S   S98       1.0  0.21929  0.94960  0.14995  1.0000
  S   S99       1.0  0.20593  0.91435  0.17793  1.0000
  C   C639      1.0  0.04788  0.90232  0.38334  1.0000
  C   C640      1.0  0.00798  0.80495  0.38658  1.0000
  C   C641      1.0  0.02411  0.79723  0.39254  1.0000
  C   C642      1.0  0.07022  0.85432  0.41073  1.0000
  P   P21       1.0  0.04395  0.93219  0.42050  1.0000
  C   C643      1.0  0.32633  0.97874  0.07400  1.0000
  C   C644      1.0  0.28857  0.89876  0.08492  1.0000
  Fe  Fe51      1.0  0.16063  0.90612  0.38246  1.0000
  S   S100      1.0  0.15167  0.92577  0.40070  1.0000
  S   S101      1.0  0.18913  0.89463  0.37112  1.0000
  Fe  Fe52      1.0  0.12755  0.93548  0.38763  1.0000
  H   H527      1.0  0.04313  0.81333  0.45954  1.0000
  S   S102      1.0  0.13800  0.91776  0.36758  1.0000
  Fe  Fe53      1.0  0.12023  0.84246  0.31867  1.0000
  S   S103      1.0  0.12816  0.85408  0.33816  1.0000
  S   S104      1.0  0.09917  0.82526  0.32600  1.0000
  Fe  Fe54      1.0  0.14838  0.85665  0.28760  1.0000
  S   S105      1.0  0.15871  0.86909  0.30475  1.0000
  S   S106      1.0  0.15841  0.85930  0.25798  1.0000
  Fe  Fe55      1.0  0.15643  0.84390  0.32492  1.0000
  S   S107      1.0  0.17915  0.83173  0.33965  1.0000
  Fe  Fe56      1.0  0.12983  0.87813  0.31612  1.0000
  S   S108      1.0  0.12012  0.90698  0.31815  1.0000
  S   S109      1.0  0.14849  0.83039  0.30686  1.0000
  S   S110      1.0  0.11941  0.86743  0.29763  1.0000
  C   C645      1.0  0.18690  0.87683  0.36251  1.0000
  C   C646      1.0  0.19918  0.86050  0.36396  1.0000
  C   C647      1.0  0.19675  0.84637  0.35721  1.0000
  C   C648      1.0  0.18216  0.84873  0.34892  1.0000
  C   C649      1.0  0.16989  0.86494  0.34779  1.0000
  C   C650      1.0  0.17220  0.87884  0.35462  1.0000
  H   H528      1.0  0.21036  0.85877  0.37042  1.0000
  H   H529      1.0  0.20616  0.83374  0.35827  1.0000
  H   H530      1.0  0.15840  0.86687  0.34177  1.0000
  H   H531      1.0  0.16267  0.89127  0.35342  1.0000
  H   H532      1.0  0.17777  0.81491  0.41659  1.0000
  H   H533      1.0  0.09611  0.88238  0.32562  1.0000
  H   H534      1.0  0.03746  0.91127  0.25589  1.0000
  C   C651      1.0  0.07858  0.83202  0.33986  1.0000
  C   C652      1.0  0.07560  0.84632  0.34862  1.0000
  H   H535      1.0  0.06718  0.81130  0.33570  1.0000
  H   H536      1.0  0.08610  0.85383  0.34677  1.0000
  S   S111      1.0  0.24291  0.98591  0.01154  1.0000
  Fe  Fe57      1.0  0.01836  0.84802  0.40238  1.0000
  H   H537      1.0  0.20214  0.75349  0.47526  1.0000
  C   C653      1.0  0.27752  0.97382  0.14701  1.0000
  C   C654      1.0  0.00048  0.89689  0.36389  1.0000
  P   P22       1.0  0.20448  0.91457  0.98003  1.0000
  Fe  Fe58      1.0  0.00091  0.98036  0.32714  1.0000
  C   C655      1.0  0.99935  0.77604  0.39426  1.0000
  H   H538      1.0  0.28154  0.96072  0.15482  1.0000
  H   H539      1.0  0.99750  0.91574  0.33988  1.0000
  C   C656      1.0  0.17566  0.87877  0.47473  1.0000
  C   C657      1.0  0.26918  0.97895  0.08377  1.0000
  C   C658      1.0  0.16346  0.97866  0.16882  1.0000
  H   H540      1.0  0.13729  0.92197  0.46448  1.0000
  H   H541      1.0  0.26547  0.81906  0.34146  1.0000
  H   H542      1.0  0.17684  0.97741  0.19001  1.0000
  C   C659      1.0  0.20047  0.89472  0.23372  1.0000
  C   C660      1.0  0.19606  0.88485  0.22339  1.0000
  C   C661      1.0  0.18293  0.87418  0.23083  1.0000
  C   C662      1.0  0.17408  0.87352  0.24852  1.0000
  C   C663      1.0  0.17796  0.88410  0.25845  1.0000
  C   C664      1.0  0.19128  0.89444  0.25120  1.0000
  H   H543      1.0  0.20323  0.88487  0.20992  1.0000
  H   H544      1.0  0.17993  0.86613  0.22300  1.0000
  H   H545      1.0  0.17067  0.88446  0.27168  1.0000
  H   H546      1.0  0.19442  0.90220  0.25920  1.0000
  Fe  Fe59      1.0  0.03136  0.84647  0.43550  1.0000
  C   C665      1.0  0.06011  0.74951  0.39786  1.0000
  C   C666      1.0  0.30068  0.91894  0.15266  1.0000
  H   H547      1.0  0.06459  0.73837  0.43335  1.0000
  C   C667      1.0  0.26461  0.83082  0.31409  1.0000
  H   H548      1.0  0.25681  0.92526  0.99560  1.0000
  H   H549      1.0  0.09142  0.82088  0.39894  1.0000
  H   H550      1.0  0.06432  0.94718  0.29226  1.0000
  C   C668      1.0  0.26768  0.84637  0.47102  1.0000
  H   H551      1.0  0.06772  0.95847  0.40838  1.0000
  H   H552      1.0  0.27592  0.82112  0.30903  1.0000
  C   C669      1.0  0.09697  0.83623  0.47128  1.0000
  C   C670      1.0  0.07193  0.90960  0.43567  1.0000
  P   P23       1.0  0.06013  0.88129  0.27654  1.0000
  C   C671      1.0  0.08212  0.86711  0.27271  1.0000
  H   H553      1.0  0.24846  0.86450  0.00614  1.0000
  H   H554      1.0  0.24838  0.91477  0.23783  1.0000
  C   C672      1.0  0.16366  0.97817  0.11394  1.0000
  H   H555      1.0  0.01504  0.89375  0.36026  1.0000
  H   H556      1.0  0.19055  0.88639  0.29248  1.0000
  H   H557      1.0  0.06312  0.88681  0.33173  1.0000
  C   C673      1.0  0.22460  0.85983  0.26540  1.0000
  C   C674      1.0  0.19892  0.84050  0.28722  1.0000
  C   C675      1.0  0.05194  0.74491  0.44029  1.0000
  C   C676      1.0  0.22645  0.91629  0.08447  1.0000
  C   C677      1.0  0.22738  0.92994  0.09266  1.0000
  C   C678      1.0  0.23263  0.92563  0.10920  1.0000
  C   C679      1.0  0.23706  0.90770  0.11750  1.0000
  C   C680      1.0  0.23649  0.89413  0.10910  1.0000
  C   C681      1.0  0.23087  0.89841  0.09283  1.0000
  H   H558      1.0  0.22392  0.94380  0.08635  1.0000
  H   H559      1.0  0.23347  0.93615  0.11543  1.0000
  H   H560      1.0  0.24006  0.88024  0.11537  1.0000
  H   H561      1.0  0.23027  0.88780  0.08657  1.0000
  H   H562      1.0  0.30309  0.91253  0.16581  1.0000
  H   H563      1.0  0.29857  0.94909  0.01362  1.0000
  H   H564      1.0  0.00940  0.98771  0.39039  1.0000
  H   H565      1.0  0.00436  0.93464  0.27393  1.0000
  C   C682      1.0  0.07542  0.91364  0.37718  1.0000
  H   H566      1.0  0.03769  0.81984  0.35477  1.0000
  H   H567      1.0  0.25710  0.88947  0.47642  1.0000
  C   C683      1.0  0.11362  0.97977  0.30187  1.0000
  H   H568      1.0  0.16564  0.92932  0.46706  1.0000
  H   H569      1.0  0.14944  0.98138  0.11360  1.0000
  S   S112      1.0  0.02955  0.95542  0.36289  1.0000
  C   C684      1.0  0.09644  0.98724  0.19813  1.0000
  H   H570      1.0  0.34266  0.94769  0.04775  1.0000
  H   H571      1.0  0.08854  0.75204  0.46096  1.0000
  H   H572      1.0  0.12420  0.98578  0.27407  1.0000
  H   H573      1.0  0.26437  0.83781  0.46389  1.0000
  C   C685      1.0  0.21980  0.90395  0.99506  1.0000
  C   C686      1.0  0.22942  0.88636  0.99473  1.0000
  C   C687      1.0  0.24082  0.87792  0.00672  1.0000
  C   C688      1.0  0.24246  0.88683  0.01935  1.0000
  C   C689      1.0  0.23275  0.90420  0.01995  1.0000
  C   C690      1.0  0.22153  0.91277  0.00784  1.0000
  H   H574      1.0  0.99972  0.87882  0.38890  1.0000
  C   C691      1.0  0.24388  0.84194  0.33885  1.0000
  C   C692      1.0  0.02448  0.92437  0.43486  1.0000
  H   H575      1.0  0.16295  0.94243  0.23173  1.0000
  H   H576      1.0  0.29298  0.98299  0.98047  1.0000
  C   C693      1.0  0.16699  0.92168  0.98556  1.0000
  H   H577      1.0  0.18601  0.94320  0.99968  1.0000
  H   H578      1.0  0.07461  0.97176  0.29956  1.0000
  H   H579      1.0  0.11108  0.87336  0.47345  1.0000
  C   C694      1.0  0.02816  0.84714  0.30934  1.0000
  S   S113      1.0  0.21207  0.96114  0.02396  1.0000
  H   H580      1.0  0.21102  0.98439  0.19795  1.0000
  H   H581      1.0  0.25128  0.88034  0.02866  1.0000
  C   C695      1.0  0.24391  0.98072  0.11515  1.0000
  H   H582      1.0  0.23407  0.91111  0.02973  1.0000
  H   H583      1.0  0.21438  0.92629  0.00851  1.0000
  S   S114      1.0  0.03567  0.91832  0.33484  1.0000
  H   H584      1.0  0.03983  0.89454  0.38005  1.0000
  H   H585      1.0  0.18892  0.83310  0.29573  1.0000
  C   C696      1.0  0.30877  0.95518  0.08292  1.0000
  H   H586      1.0  0.29453  0.88478  0.08867  1.0000
  H   H587      1.0  0.31681  0.94815  0.11653  1.0000
  H   H588      1.0  0.11318  0.97058  0.43365  1.0000
  C   C697      1.0  0.23492  0.85542  0.32714  1.0000
  H   H589      1.0  0.23432  0.98167  0.12745  1.0000
  C   C698      1.0  0.02975  0.74632  0.46736  1.0000
  H   H590      1.0  0.08483  0.83076  0.47425  1.0000
  C   C699      1.0  0.06371  0.93517  0.28820  1.0000
  C   C700      1.0  0.07557  0.98091  0.28682  1.0000
  C   C701      1.0  0.26147  0.88635  0.28178  1.0000
  S   S115      1.0  0.03038  0.96966  0.31985  1.0000
  C   C702      1.0  0.24000  0.89712  0.26230  1.0000
  C   C703      1.0  0.29022  0.98175  0.13357  1.0000
  S   S116      1.0  0.00396  0.84700  0.45275  1.0000
  C   C704      1.0  0.04701  0.93148  0.28846  1.0000
  H   H591      1.0  0.07545  0.80732  0.46078  1.0000
  H   H592      1.0  0.22312  0.86440  0.33246  1.0000
  H   H593      1.0  0.20507  0.91577  0.33462  1.0000
  C   C705      1.0  0.99537  0.93355  0.28671  1.0000
  C   C706      1.0  0.25569  0.84433  0.30235  1.0000
  H   H594      1.0  0.27803  0.91423  0.24444  1.0000
  C   C707      1.0  0.09485  0.87226  0.25757  1.0000
  C   C708      1.0  0.18236  0.91021  0.99093  1.0000
  C   C709      1.0  0.25992  0.98329  0.15099  1.0000
  C   C710      1.0  0.11182  0.86133  0.25410  1.0000
  H   H595      1.0  0.17729  0.98591  0.05399  1.0000
  H   H596      1.0  0.20006  0.82875  0.47173  1.0000
  C   C711      1.0  0.26874  0.90658  0.25387  1.0000
  C   C712      1.0  0.25872  0.82964  0.33234  1.0000
  H   H597      1.0  0.14931  0.98441  0.14736  1.0000
  H   H598      1.0  0.08217  0.76190  0.38138  1.0000
  C   C713      1.0  0.09623  0.85278  0.47542  1.0000
  C   C714      1.0  0.29290  0.91174  0.09170  1.0000
  C   C715      1.0  0.15887  0.88185  0.46987  1.0000
  H   H599      1.0  0.04335  0.84982  0.28281  1.0000
  C   C716      1.0  0.27620  0.90380  0.07366  1.0000
  C   C717      1.0  0.04603  0.91532  0.28460  1.0000
  H   H600      1.0  0.18466  0.97582  0.99267  1.0000
  P   P24       1.0  0.22917  0.87362  0.29336  1.0000
  S   S117      1.0  0.02954  0.82497  0.42216  1.0000
  C   C718      1.0  0.04026  0.89959  0.25006  1.0000
  C   C719      1.0  0.11270  0.96224  0.14971  1.0000
  C   C720      1.0  0.10032  0.96105  0.14014  1.0000
  H   H601      1.0  0.27897  0.97859  0.07159  1.0000
  C   C721      1.0  0.12479  0.94823  0.11874  1.0000
  C   C722      1.0  0.13732  0.94933  0.12833  1.0000
  C   C723      1.0  0.13110  0.95657  0.14373  1.0000
  P   P25       1.0  0.16123  0.94205  0.12084  1.0000
  C   C724      1.0  0.17063  0.92264  0.13590  1.0000
  C   C725      1.0  0.16540  0.93592  0.09945  1.0000
  C   C726      1.0  0.16310  0.91902  0.09835  1.0000
  C   C727      1.0  0.16708  0.91383  0.08195  1.0000
  C   C728      1.0  0.17323  0.92552  0.06654  1.0000
  C   C729      1.0  0.17522  0.94248  0.06750  1.0000
  C   C730      1.0  0.17137  0.94768  0.08386  1.0000
  C   C731      1.0  0.18687  0.91151  0.12979  1.0000
  C   C732      1.0  0.19426  0.89647  0.14121  1.0000
  C   C733      1.0  0.18555  0.89233  0.15880  1.0000
  C   C734      1.0  0.16944  0.90328  0.16503  1.0000
  C   C735      1.0  0.16199  0.91835  0.15366  1.0000
  C   C736      1.0  0.17264  0.96033  0.11806  1.0000
  C   C737      1.0  0.26003  0.92513  0.98162  1.0000
  C   C738      1.0  0.02185  0.98158  0.39502  1.0000
  C   C739      1.0  0.07849  0.90649  0.28032  1.0000
  C   C740      1.0  0.20069  0.97076  0.11294  1.0000
  C   C741      1.0  0.19117  0.95679  0.11777  1.0000
  H   H602      1.0  0.10813  0.96776  0.16166  1.0000
  H   H603      1.0  0.02489  0.91328  0.22983  1.0000
  H   H604      1.0  0.01485  0.84725  0.33657  1.0000
  C   C742      1.0  0.19213  0.96776  0.98297  1.0000
  H   H605      1.0  0.14054  0.95772  0.15117  1.0000
  H   H606      1.0  0.15861  0.90973  0.11022  1.0000
  H   H607      1.0  0.16585  0.90057  0.08123  1.0000
  H   H608      1.0  0.17692  0.92130  0.05390  1.0000
  H   H609      1.0  0.18040  0.95138  0.05563  1.0000
  H   H610      1.0  0.17350  0.96071  0.08423  1.0000
  H   H611      1.0  0.19402  0.91457  0.11624  1.0000
  H   H612      1.0  0.20700  0.88822  0.13654  1.0000
  H   H613      1.0  0.19157  0.88092  0.16771  1.0000
  H   H614      1.0  0.16297  0.90034  0.17881  1.0000
  H   H615      1.0  0.14971  0.92665  0.15901  1.0000
  H   H616      1.0  0.26525  0.87874  0.29408  1.0000
  C   C743      1.0  0.33064  0.88396  0.47663  1.0000
  C   C744      1.0  0.03663  0.88607  0.22702  1.0000
  H   H617      1.0  0.21509  0.96780  0.11209  1.0000
  H   H618      1.0  0.19840  0.94323  0.12087  1.0000
  H   H619      1.0  0.06812  0.96009  0.35461  1.0000
  C   C745      1.0  0.26002  0.86460  0.46856  1.0000
  H   H620      1.0  0.26615  0.94869  0.07216  1.0000
  H   H621      1.0  0.00160  0.93327  0.38811  1.0000
  C   C746      1.0  0.99567  0.79436  0.38734  1.0000
  H   H622      1.0  0.01016  0.88520  0.45482  1.0000
  Fe  Fe60      1.0  0.02443  0.94570  0.34053  1.0000
  H   H623      1.0  0.05959  0.94237  0.33163  1.0000
  Fe  Fe61      1.0  0.13607  0.90543  0.41835  1.0000
  C   C747      1.0  0.08426  0.86300  0.43058  1.0000
  C   C748      1.0  0.29319  0.94566  0.98943  1.0000
  H   H624      1.0  0.16765  0.98590  0.26297  1.0000
  C   C749      1.0  0.06090  0.92666  0.43393  1.0000
  H   H625      1.0  0.03292  0.91217  0.28604  1.0000
  C   C750      1.0  0.05910  0.91508  0.33123  1.0000
  C   C751      1.0  0.21948  0.86064  0.28347  1.0000
  H   H626      1.0  0.08868  0.94497  0.21633  1.0000
  H   H627      1.0  0.07712  0.93006  0.39448  1.0000
  C   C752      1.0  0.07957  0.80674  0.38606  1.0000
  C   C753      1.0  0.06886  0.79409  0.38828  1.0000
  C   C754      1.0  0.06240  0.78485  0.40528  1.0000
  C   C755      1.0  0.06647  0.78891  0.42004  1.0000
  P   P26       1.0  0.04840  0.76853  0.40811  1.0000
  C   C756      1.0  0.02810  0.77872  0.39931  1.0000
  H   H628      1.0  0.16158  0.78774  0.43572  1.0000
  C   C757      1.0  0.01004  0.89947  0.45136  1.0000
  C   C758      1.0  0.27340  0.89641  0.26975  1.0000
  H   H629      1.0  0.03478  0.94061  0.29282  1.0000
  C   C759      1.0  0.16126  0.76783  0.45962  1.0000
  H   H630      1.0  0.07813  0.94448  0.45992  1.0000
  C   C760      1.0  0.01540  0.76826  0.40031  1.0000
  C   C761      1.0  0.11317  0.82715  0.46267  1.0000
  H   H631      1.0  0.20287  0.85077  0.30842  1.0000
  C   C762      1.0  0.04142  0.75997  0.43142  1.0000
  C   C763      1.0  0.02531  0.76837  0.44086  1.0000
  H   H632      1.0  0.35853  0.98158  0.99068  1.0000
  H   H633      1.0  0.19835  0.92227  0.46454  1.0000
  H   H634      1.0  0.04515  0.88848  0.31268  1.0000
  C   C764      1.0  0.02309  0.85388  0.32496  1.0000
  C   C765      1.0  0.12429  0.96614  0.20223  1.0000
  H   H635      1.0  0.06543  0.79174  0.37669  1.0000
  H   H636      1.0  0.06130  0.78248  0.43337  1.0000
  H   H637      1.0  0.27184  0.89700  0.98511  1.0000
  H   H638      1.0  0.13801  0.92747  0.98993  1.0000
  H   H639      1.0  0.16607  0.75674  0.45269  1.0000
  H   H640      1.0  0.26015  0.84492  0.28823  1.0000
  H   H641      1.0  0.23906  0.84086  0.35299  1.0000
  C   C766      1.0  0.04040  0.87714  0.31131  1.0000
  H   H642      1.0  0.16900  0.90590  0.42829  1.0000
  H   H643      1.0  0.01716  0.78015  0.43435  1.0000
  C   C767      1.0  0.18993  0.88579  0.46296  1.0000
  H   H644      1.0  0.22942  0.89627  0.31772  1.0000
  C   C768      1.0  0.04030  0.95562  0.41018  1.0000
  C   C769      1.0  0.02489  0.90585  0.44018  1.0000
  C   C770      1.0  0.18435  0.91230  0.32284  1.0000
  H   H645      1.0  0.12176  0.93892  0.21422  1.0000
  C   C771      1.0  0.30828  0.93909  0.12477  1.0000
  H   H646      1.0  0.12916  0.94304  0.10662  1.0000
  H   H647      1.0  0.07725  0.84650  0.29620  1.0000
  C   C772      1.0  0.21176  0.88947  0.30418  1.0000
  C   C773      1.0  0.09603  0.95581  0.21097  1.0000
  H   H648      1.0  0.05404  0.95208  0.44248  1.0000
  H   H649      1.0  0.10882  0.98619  0.45862  1.0000
  Fe  Fe62      1.0  0.00007  0.96757  0.36645  1.0000
  C   C774      1.0  0.03845  0.78836  0.47659  1.0000
  S   S118      1.0  0.13501  0.89611  0.44760  1.0000
  H   H650      1.0  0.09422  0.89227  0.44656  1.0000
  C   C775      1.0  0.07560  0.96897  0.35698  1.0000
  C   C776      1.0  0.10334  0.83959  0.28033  1.0000
  C   C777      1.0  0.08844  0.98732  0.25553  1.0000
  C   C778      1.0  0.27256  0.93483  0.07582  1.0000
  C   C779      1.0  0.11467  0.95237  0.20977  1.0000
  C   C780      1.0  0.06752  0.92940  0.32986  1.0000
  H   H651      1.0  0.09499  0.96188  0.27295  1.0000
  H   H652      1.0  0.16650  0.90553  0.30966  1.0000
  H   H653      1.0  0.08152  0.86122  0.38293  1.0000
  C   C781      1.0  0.06948  0.89815  0.32964  1.0000
  C   C782      1.0  0.11740  0.96337  0.44594  1.0000
  H   H654      1.0  0.34108  0.87595  0.46845  1.0000
  H   H655      1.0  0.99862  0.90308  0.40589  1.0000
  S   S119      1.0  0.21096  0.88231  0.46894  1.0000
  H   H656      1.0  0.27240  0.89377  0.06876  1.0000
  H   H657      1.0  0.06275  0.85620  0.25370  1.0000
  H   H658      1.0  0.02576  0.87380  0.33819  1.0000
  H   H659      1.0  0.28627  0.89629  0.27273  1.0000
  C   C783      1.0  0.06521  0.90310  0.37355  1.0000
  C   C784      1.0  0.21650  0.84984  0.25827  1.0000
  H   H660      1.0  0.01752  0.75421  0.40621  1.0000
  H   H661      1.0  0.01336  0.95657  0.40686  1.0000
  C   C785      1.0  0.33421  0.95420  0.05826  1.0000
  C   C786      1.0  0.11603  0.84497  0.26545  1.0000
  H   H662      1.0  0.13884  0.96328  0.20062  1.0000
  H   H663      1.0  0.02430  0.79109  0.47587  1.0000
  H   H664      1.0  0.09369  0.94752  0.37051  1.0000
  C   C787      1.0  0.09974  0.97324  0.36919  1.0000
  S   S120      1.0  0.10961  0.87983  0.38065  1.0000
  C   C788      1.0  0.08523  0.90522  0.44591  1.0000
  H   H665      1.0  0.12191  0.86558  0.24283  1.0000
  C   C789      1.0  0.05184  0.92098  0.40196  1.0000
  H   H666      1.0  0.08872  0.91446  0.36923  1.0000
  C   C790      1.0  0.18744  0.89559  0.44620  1.0000
  C   C791      1.0  0.14981  0.91853  0.99409  1.0000
  C   C792      1.0  0.06885  0.92238  0.39148  1.0000
  C   C793      1.0  0.26841  0.92182  0.06898  1.0000
  H   H667      1.0  0.12933  0.83668  0.26300  1.0000
  H   H668      1.0  0.22695  0.89780  0.25946  1.0000
  H   H669      1.0  0.07052  0.89982  0.42876  1.0000
  Fe  Fe63      1.0  0.00111  0.82754  0.43750  1.0000
  C   C794      1.0  0.06280  0.93903  0.44322  1.0000
  C   C795      1.0  0.15872  0.78546  0.45003  1.0000
  H   H670      1.0  0.09076  0.89665  0.27833  1.0000
  H   H671      1.0  0.03311  0.80595  0.39208  1.0000
  C   C796      1.0  0.28454  0.92982  0.08757  1.0000
  H   H672      1.0  0.30343  0.97811  0.09528  1.0000
  C   C797      1.0  0.05089  0.88347  0.25709  1.0000
  C   C798      1.0  0.05458  0.96497  0.40544  1.0000
  C   C799      1.0  0.04108  0.91144  0.39740  1.0000
  H   H673      1.0  0.03656  0.89629  0.43539  1.0000
  H   H674      1.0  0.00696  0.76796  0.46595  1.0000
  C   C800      1.0  0.25793  0.96583  0.11415  1.0000
  H   H675      1.0  0.32229  0.93353  0.14638  1.0000
  C   C801      1.0  0.32303  0.94330  0.99462  1.0000
  C   C802      1.0  0.12783  0.85128  0.46216  1.0000
  C   C803      1.0  0.12874  0.83460  0.45811  1.0000
  H   H676      1.0  0.30247  0.90760  0.10046  1.0000
  P   P27       1.0  0.14954  0.82280  0.44695  1.0000
  C   C804      1.0  0.14905  0.82447  0.42388  1.0000
  C   C805      1.0  0.16519  0.81995  0.41197  1.0000
  C   C806      1.0  0.16531  0.82253  0.39387  1.0000
  C   C807      1.0  0.14935  0.82960  0.38751  1.0000
  C   C808      1.0  0.13324  0.83394  0.39925  1.0000
  C   C809      1.0  0.13304  0.83150  0.41736  1.0000
  C   C810      1.0  0.16809  0.83263  0.44755  1.0000
  C   C811      1.0  0.17813  0.82600  0.46108  1.0000
  C   C812      1.0  0.19250  0.83374  0.46117  1.0000
  C   C813      1.0  0.11526  0.98346  0.19626  1.0000
  C   C814      1.0  0.18698  0.85488  0.43439  1.0000
  C   C815      1.0  0.17251  0.84730  0.43435  1.0000
  H   H677      1.0  0.27873  0.94830  0.99373  1.0000
  H   H678      1.0  0.09175  0.88488  0.24860  1.0000
  C   C816      1.0  0.30438  0.94630  0.00049  1.0000
  H   H679      1.0  0.13952  0.85748  0.45852  1.0000
  H   H680      1.0  0.23461  0.86696  0.25665  1.0000
  H   H681      1.0  0.17780  0.81950  0.38460  1.0000
  H   H682      1.0  0.14952  0.83208  0.37341  1.0000
  H   H683      1.0  0.12100  0.83974  0.39413  1.0000
  H   H684      1.0  0.12045  0.83564  0.42598  1.0000
  C   C817      1.0  0.05232  0.98259  0.39593  1.0000
  H   H685      1.0  0.30400  0.97473  0.13099  1.0000
  H   H686      1.0  0.15713  0.91713  0.22226  1.0000
  H   H687      1.0  0.16473  0.85300  0.42402  1.0000
  C   C818      1.0  0.28320  0.92410  0.12991  1.0000
  H   H688      1.0  0.02757  0.91087  0.40467  1.0000
  S   S121      1.0  0.02237  0.86947  0.41451  1.0000
  C   C819      1.0  0.00945  0.93633  0.44182  1.0000
  H   H689      1.0  0.09283  0.93801  0.32480  1.0000
  C   C820      1.0  0.10636  0.95410  0.12463  1.0000
  H   H690      1.0  0.25076  0.87015  0.45950  1.0000
  C   C821      1.0  0.15638  0.89167  0.45312  1.0000
  C   C822      1.0  0.03930  0.85547  0.29462  1.0000
  C   C823      1.0  0.11499  0.97211  0.46001  1.0000
  H   H691      1.0  0.12735  0.93838  0.43677  1.0000
  C   C824      1.0  0.03314  0.90084  0.23512  1.0000
  C   C825      1.0  0.08707  0.97539  0.27183  1.0000
  C   C826      1.0  0.07116  0.85502  0.42792  1.0000
  H   H692      1.0  0.27207  0.92150  0.12559  1.0000
  H   H693      1.0  0.16159  0.88093  0.02411  1.0000
  C   C827      1.0  0.20357  0.84030  0.26914  1.0000
  H   H694      1.0  0.10679  0.82701  0.28926  1.0000
  C   C828      1.0  0.06494  0.82235  0.34241  1.0000
  H   H695      1.0  0.10616  0.87697  0.41815  1.0000
  C   C829      1.0  0.33743  0.97022  0.06058  1.0000
  H   H696      1.0  0.17363  0.92030  0.33078  1.0000
  C   C830      1.0  0.08758  0.91784  0.45450  1.0000
  C   C831      1.0  0.12056  0.96272  0.47580  1.0000
  C   C832      1.0  0.08634  0.92692  0.32608  1.0000
  H   H697      1.0  0.00906  0.95060  0.43859  1.0000
  C   C833      1.0  0.04908  0.80090  0.46731  1.0000
  C   C834      1.0  0.12606  0.95077  0.31774  1.0000
  C   C835      1.0  0.11424  0.96724  0.31765  1.0000
  H   H698      1.0  0.09736  0.98298  0.24394  1.0000
  C   C836      1.0  0.12501  0.97591  0.28613  1.0000
  C   C837      1.0  0.13723  0.95947  0.28615  1.0000
  C   C838      1.0  0.13746  0.94686  0.30207  1.0000
  P   P28       1.0  0.15256  0.95455  0.26603  1.0000
  C   C839      1.0  0.15268  0.97509  0.24971  1.0000
  C   C840      1.0  0.17547  0.94744  0.26974  1.0000
  C   C841      1.0  0.18932  0.94105  0.25648  1.0000
  C   C842      1.0  0.20714  0.93636  0.25879  1.0000
  C   C843      1.0  0.21140  0.93780  0.27441  1.0000
  C   C844      1.0  0.19783  0.94448  0.28756  1.0000
  C   C845      1.0  0.17998  0.94947  0.28520  1.0000
  C   C846      1.0  0.31990  0.94669  0.06938  1.0000
  C   C847      1.0  0.04732  0.87005  0.23378  1.0000
  C   C848      1.0  0.08653  0.85071  0.28416  1.0000
  C   C849      1.0  0.06176  0.90275  0.28022  1.0000
  Fe  Fe64      1.0  0.03294  0.98046  0.34260  1.0000
  C   C850      1.0  0.14664  0.93723  0.25814  1.0000
  C   C851      1.0  0.13526  0.92603  0.26947  1.0000
  C   C852      1.0  0.13181  0.91183  0.26384  1.0000
  C   C853      1.0  0.13953  0.90872  0.24680  1.0000
  C   C854      1.0  0.15062  0.91992  0.23529  1.0000
  C   C855      1.0  0.15412  0.93413  0.24088  1.0000
  H   H699      1.0  0.12616  0.94082  0.32993  1.0000
  H   H700      1.0  0.10545  0.97020  0.32982  1.0000
  H   H701      1.0  0.07950  0.80546  0.42908  1.0000
  C   C856      1.0  0.20685  0.85060  0.29437  1.0000
  H   H702      1.0  0.14639  0.93391  0.30241  1.0000
  H   H703      1.0  0.18662  0.93969  0.24421  1.0000
  H   H704      1.0  0.21759  0.93153  0.24835  1.0000
  H   H705      1.0  0.22521  0.93380  0.27628  1.0000
  H   H706      1.0  0.20113  0.94571  0.29966  1.0000
  H   H707      1.0  0.16989  0.95496  0.29547  1.0000
  H   H708      1.0  0.05011  0.85859  0.22748  1.0000
  H   H709      1.0  0.07270  0.97531  0.20509  1.0000
  C   C857      1.0  0.29401  0.93592  0.11880  1.0000
  C   C858      1.0  0.05444  0.86875  0.24871  1.0000
  H   H710      1.0  0.13692  0.96896  0.23366  1.0000
  H   H711      1.0  0.12931  0.92776  0.28286  1.0000
  H   H712      1.0  0.12372  0.90279  0.27301  1.0000
  H   H713      1.0  0.13750  0.89718  0.24279  1.0000
  C   C859      1.0  0.19701  0.84807  0.44776  1.0000
  H   H714      1.0  0.19019  0.86627  0.42417  1.0000
  C   C860      1.0  0.07628  0.93470  0.45328  1.0000
  C   C861      1.0  0.04521  0.84132  0.36211  1.0000
  C   C862      1.0  0.11165  0.86030  0.47080  1.0000
  Fe  Fe65      1.0  0.12370  0.89789  0.38798  1.0000
  C   C863      1.0  0.02922  0.86887  0.32591  1.0000
  S   S122      1.0  0.11723  0.96526  0.38123  1.0000
  C   C864      1.0  0.08824  0.89561  0.32626  1.0000
  C   C865      1.0  0.16121  0.98813  0.25176  1.0000
  H   H715      1.0  0.08607  0.96570  0.14464  1.0000
  C   C866      1.0  0.09669  0.91003  0.32411  1.0000
  S   S123      1.0  0.14694  0.88503  0.40126  1.0000
  C   C867      1.0  0.18034  0.90394  0.31099  1.0000
  H   H716      1.0  0.09679  0.95338  0.11708  1.0000
  H   H717      1.0  0.11351  0.81447  0.45930  1.0000
  H   H718      1.0  0.13455  0.90145  0.01463  1.0000
  C   C868      1.0  0.07618  0.75015  0.38525  1.0000
  H   H719      1.0  0.08484  0.86379  0.44378  1.0000
  C   C869      1.0  0.31209  0.97124  0.08510  1.0000
  H   H720      1.0  0.33164  0.94383  0.00327  1.0000
  H   H721      1.0  0.19846  0.90088  0.43695  1.0000
  C   C870      1.0  0.02405  0.96395  0.40457  1.0000
  C   C871      1.0  0.28665  0.91551  0.14667  1.0000
  C   C872      1.0  0.25203  0.90695  0.25017  1.0000
  H   H722      1.0  0.17496  0.81496  0.47164  1.0000
  P   P29       1.0  0.28967  0.94637  0.09693  1.0000
  C   C873      1.0  0.18029  0.89543  0.00483  1.0000
  H   H723      1.0  0.19189  0.88629  0.00918  1.0000
  C   C874      1.0  0.31150  0.93072  0.14170  1.0000
  C   C875      1.0  0.20211  0.90972  0.32499  1.0000
  Fe  Fe66      1.0  0.21718  0.98508  0.03132  1.0000
  C   C876      1.0  0.06734  0.79743  0.46800  1.0000
  C   C877      1.0  0.09003  0.96182  0.36604  1.0000
  C   C878      1.0  0.19401  0.89275  0.30152  1.0000
  H   H724      1.0  0.08465  0.81371  0.37292  1.0000
  C   C879      1.0  0.17072  0.89844  0.44126  1.0000
  C   C880      1.0  0.12541  0.94526  0.44764  1.0000
  C   C881      1.0  0.08349  0.81072  0.40075  1.0000
  H   H725      1.0  0.03108  0.88704  0.21547  1.0000
  H   H726      1.0  0.00488  0.81926  0.38164  1.0000
  C   C882      1.0  0.04549  0.87063  0.29546  1.0000
  H   H727      1.0  0.21990  0.84988  0.24419  1.0000
  C   C883      1.0  0.16309  0.89231  0.01334  1.0000
  H   H728      1.0  0.25884  0.95539  0.12580  1.0000
  H   H729      1.0  0.25857  0.92563  0.06057  1.0000
  H   H730      1.0  0.20802  0.85418  0.44794  1.0000
  H   H731      1.0  0.09836  0.91459  0.46183  1.0000
  H   H732      1.0  0.22819  0.87910  0.98522  1.0000
  C   C884      1.0  0.27077  0.96489  0.09844  1.0000
  C   C885      1.0  0.21582  0.89850  0.31555  1.0000
  H   H733      1.0  0.02374  0.83525  0.30879  1.0000
  H   H734      1.0  0.07091  0.89532  0.36329  1.0000
  H   H735      1.0  0.19688  0.83302  0.26352  1.0000
  C   C886      1.0  0.08698  0.97311  0.20486  1.0000
  C   C887      1.0  0.13102  0.93593  0.46335  1.0000
  C   C888      1.0  0.14786  0.90387  0.00800  1.0000
  C   C889      1.0  0.05890  0.85093  0.35983  1.0000
  H   H736      1.0  0.05642  0.86227  0.36620  1.0000
  C   C890      1.0  0.09613  0.87068  0.41607  1.0000
  C   C891      1.0  0.01950  0.76153  0.45875  1.0000
  S   S124      1.0  0.05562  0.84644  0.44601  1.0000
  H   H737      1.0  0.06027  0.84802  0.40853  1.0000
  C   C892      1.0  0.09499  0.87021  0.39889  1.0000
  C   C893      1.0  0.07943  0.92268  0.28420  1.0000
  H   H738      1.0  0.09226  0.92502  0.28521  1.0000
  H   H739      1.0  0.31740  0.93448  0.06720  1.0000
  C   C894      1.0  0.15255  0.79988  0.45895  1.0000
  C   C895      1.0  0.04831  0.82707  0.35335  1.0000
  S   S125      1.0  0.11117  0.91666  0.40686  1.0000
  C   C896      1.0  0.08225  0.86175  0.39624  1.0000
  S   S126      1.0  0.02320  0.84859  0.37317  1.0000
  C   C897      1.0  0.14405  0.97852  0.23529  1.0000
  C   C898      1.0  0.07686  0.80190  0.41773  1.0000
  C   C899      1.0  0.24486  0.88625  0.27787  1.0000
  H   H740      1.0  0.27827  0.90629  0.15503  1.0000
  C   C900      1.0  0.19304  0.94922  0.98694  1.0000
  C   C901      1.0  0.33050  0.93956  0.97769  1.0000
  C   C902      1.0  0.39138  0.76995  0.56730  1.0000
  H   H741      1.0  0.35675  0.79003  0.59548  1.0000
  C   C903      1.0  0.30966  0.80821  0.59440  1.0000
  H   H742      1.0  0.48415  0.81674  0.65635  1.0000
  C   C904      1.0  0.34429  0.90114  0.93373  1.0000
  C   C905      1.0  0.41711  0.88575  0.90309  1.0000
  C   C906      1.0  0.24811  0.93153  0.49050  1.0000
  H   H743      1.0  0.45169  0.95680  0.86581  1.0000
  H   H744      1.0  0.17148  0.86405  0.57283  1.0000
  C   C907      1.0  0.49196  0.88713  0.77427  1.0000
  C   C908      1.0  0.42765  0.92435  0.88762  1.0000
  H   H745      1.0  0.19814  0.76891  0.56088  1.0000
  H   H746      1.0  0.44548  0.78282  0.70785  1.0000
  S   S127      1.0  0.32629  0.94500  0.75482  1.0000
  H   H747      1.0  0.15145  0.75210  0.67453  1.0000
  S   S128      1.0  0.24938  0.74575  0.57554  1.0000
  S   S129      1.0  0.17438  0.75462  0.52630  1.0000
  H   H748      1.0  0.14434  0.77540  0.64478  1.0000
  C   C909      1.0  0.27497  0.86828  0.49069  1.0000
  H   H749      1.0  0.32786  0.76390  0.56197  1.0000
  H   H750      1.0  0.13402  0.93725  0.69421  1.0000
  H   H751      1.0  0.43771  0.91862  0.67798  1.0000
  H   H752      1.0  0.25549  0.89233  0.65467  1.0000
  C   C910      1.0  0.33324  0.74158  0.83019  1.0000
  C   C911      1.0  0.32489  0.93547  0.71071  1.0000
  H   H753      1.0  0.22070  0.93893  0.94883  1.0000
  C   C912      1.0  0.28578  0.78841  0.58841  1.0000
  P   P30       1.0  0.32839  0.93348  0.94487  1.0000
  C   C913      1.0  0.39458  0.88718  0.93011  1.0000
  Fe  Fe67      1.0  0.21959  0.81231  0.65157  1.0000
  S   S130      1.0  0.24601  0.80817  0.63235  1.0000
  S   S131      1.0  0.19515  0.80064  0.64927  1.0000
  Fe  Fe68      1.0  0.23559  0.83414  0.67212  1.0000
  S   S132      1.0  0.26189  0.83068  0.65353  1.0000
  S   S133      1.0  0.23482  0.84854  0.69504  1.0000
  Fe  Fe69      1.0  0.24638  0.83683  0.63185  1.0000
  S   S134      1.0  0.25589  0.85745  0.60855  1.0000
  Fe  Fe70      1.0  0.25880  0.80254  0.65602  1.0000
  S   S135      1.0  0.28348  0.78266  0.66202  1.0000
  S   S136      1.0  0.21962  0.84180  0.64991  1.0000
  S   S137      1.0  0.23281  0.80512  0.67579  1.0000
  C   C914      1.0  0.44392  0.91841  0.85889  1.0000
  S   S138      1.0  0.18656  0.87449  0.51865  1.0000
  C   C915      1.0  0.28824  0.86666  0.55484  1.0000
  Fe  Fe71      1.0  0.22981  0.83784  0.52153  1.0000
  S   S139      1.0  0.20783  0.84178  0.54520  1.0000
  S   S140      1.0  0.25652  0.81860  0.52209  1.0000
  Fe  Fe72      1.0  0.18912  0.84481  0.52678  1.0000
  S   S141      1.0  0.16354  0.83433  0.53560  1.0000
  Fe  Fe73      1.0  0.20723  0.87097  0.53499  1.0000
  S   S142      1.0  0.20563  0.89020  0.55244  1.0000
  S   S143      1.0  0.21102  0.83803  0.50397  1.0000
  S   S144      1.0  0.23042  0.86714  0.51250  1.0000
  Fe  Fe74      1.0  0.30861  0.90324  0.88488  1.0000
  S   S145      1.0  0.31851  0.88313  0.90746  1.0000
  S   S146      1.0  0.32057  0.92589  0.86689  1.0000
  Fe  Fe75      1.0  0.27532  0.88838  0.88856  1.0000
  S   S147      1.0  0.28192  0.86692  0.91175  1.0000
  S   S148      1.0  0.24918  0.89332  0.87912  1.0000
  Fe  Fe76      1.0  0.28959  0.88812  0.92142  1.0000
  S   S149      1.0  0.28220  0.88835  0.95067  1.0000
  Fe  Fe77      1.0  0.31019  0.86349  0.89612  1.0000
  S   S150      1.0  0.32545  0.83522  0.89646  1.0000
  S   S151      1.0  0.28036  0.90996  0.89973  1.0000
  S   S152      1.0  0.30293  0.88315  0.87204  1.0000
  Fe  Fe78      1.0  0.29023  0.90060  0.74031  1.0000
  S   S153      1.0  0.28117  0.88419  0.76699  1.0000
  S   S154      1.0  0.28588  0.89268  0.71508  1.0000
  Fe  Fe79      1.0  0.30995  0.92249  0.75748  1.0000
  S   S155      1.0  0.30138  0.90669  0.78449  1.0000
  H   H754      1.0  0.22297  0.91891  0.53114  1.0000
  Fe  Fe80      1.0  0.30868  0.88284  0.77148  1.0000
  S   S156      1.0  0.32574  0.85716  0.78234  1.0000
  Fe  Fe81      1.0  0.27478  0.90984  0.77717  1.0000
  S   S157      1.0  0.24936  0.91742  0.79668  1.0000
  S   S158      1.0  0.31867  0.89803  0.74458  1.0000
  S   S159      1.0  0.28230  0.92699  0.75027  1.0000
  Fe  Fe82      1.0  0.43920  0.82509  0.80649  1.0000
  S   S160      1.0  0.44095  0.85337  0.79262  1.0000
  C   C916      1.0  0.46028  0.79395  0.66336  1.0000
  Fe  Fe83      1.0  0.41993  0.83612  0.84166  1.0000
  S   S161      1.0  0.41955  0.86535  0.83098  1.0000
  S   S162      1.0  0.40980  0.82374  0.86995  1.0000
  Fe  Fe84      1.0  0.41253  0.86001  0.80719  1.0000
  S   S163      1.0  0.39297  0.88101  0.79319  1.0000
  Fe  Fe85      1.0  0.44792  0.85650  0.81740  1.0000
  C   C917      1.0  0.42095  0.86986  0.75140  1.0000
  S   S164      1.0  0.41016  0.83150  0.81915  1.0000
  S   S165      1.0  0.44904  0.82745  0.82996  1.0000
  C   C918      1.0  0.46526  0.89365  0.81457  1.0000
  C   C919      1.0  0.44769  0.90341  0.81461  1.0000
  H   H755      1.0  0.45981  0.93780  0.84324  1.0000
  H   H756      1.0  0.43679  0.89650  0.81634  1.0000
  C   C920      1.0  0.27393  0.95359  0.83889  1.0000
  C   C921      1.0  0.34444  0.86350  0.78566  1.0000
  C   C922      1.0  0.34639  0.88137  0.78021  1.0000
  C   C923      1.0  0.36128  0.88660  0.78274  1.0000
  C   C924      1.0  0.37465  0.87389  0.79014  1.0000
  C   C925      1.0  0.37309  0.85589  0.79499  1.0000
  C   C926      1.0  0.35772  0.85077  0.79319  1.0000
  H   H757      1.0  0.33650  0.89129  0.77403  1.0000
  H   H758      1.0  0.36227  0.90057  0.77915  1.0000
  H   H759      1.0  0.38352  0.84597  0.80035  1.0000
  H   H760      1.0  0.35616  0.83700  0.79760  1.0000
  C   C927      1.0  0.34890  0.83281  0.88949  1.0000
  C   C928      1.0  0.35973  0.81608  0.89414  1.0000
  C   C929      1.0  0.37842  0.81352  0.88828  1.0000
  C   C930      1.0  0.38634  0.82749  0.87715  1.0000
  C   C931      1.0  0.37558  0.84425  0.87245  1.0000
  C   C932      1.0  0.35687  0.84705  0.87900  1.0000
  H   H761      1.0  0.35366  0.80515  0.90251  1.0000
  H   H762      1.0  0.38674  0.80064  0.89220  1.0000
  H   H763      1.0  0.38174  0.85500  0.86382  1.0000
  H   H764      1.0  0.34851  0.86000  0.87548  1.0000
  C   C933      1.0  0.33913  0.93262  0.87023  1.0000
  C   C934      1.0  0.34660  0.94561  0.85706  1.0000
  C   C935      1.0  0.36122  0.95177  0.85899  1.0000
  C   C936      1.0  0.36857  0.94496  0.87417  1.0000
  C   C937      1.0  0.36117  0.93193  0.88750  1.0000
  C   C938      1.0  0.34654  0.92555  0.88543  1.0000
  P   P31       1.0  0.27910  0.88206  0.50404  1.0000
  H   H765      1.0  0.36694  0.92675  0.89918  1.0000
  H   H766      1.0  0.34115  0.91508  0.89535  1.0000
  C   C939      1.0  0.24993  0.89970  0.85609  1.0000
  C   C940      1.0  0.26539  0.89452  0.84376  1.0000
  C   C941      1.0  0.26523  0.89940  0.82548  1.0000
  C   C942      1.0  0.24988  0.91009  0.81946  1.0000
  C   C943      1.0  0.23447  0.91515  0.83185  1.0000
  C   C944      1.0  0.23442  0.90977  0.85005  1.0000
  H   H767      1.0  0.27732  0.88642  0.84830  1.0000
  H   H768      1.0  0.27699  0.89497  0.81607  1.0000
  H   H769      1.0  0.22250  0.92324  0.82733  1.0000
  H   H770      1.0  0.22237  0.91368  0.85946  1.0000
  C   C945      1.0  0.24987  0.85995  0.70061  1.0000
  C   C946      1.0  0.24576  0.86498  0.71730  1.0000
  C   C947      1.0  0.25672  0.87445  0.72213  1.0000
  C   C948      1.0  0.27202  0.87947  0.71025  1.0000
  C   C949      1.0  0.27621  0.87433  0.69358  1.0000
  C   C950      1.0  0.26542  0.86457  0.68887  1.0000
  H   H771      1.0  0.23388  0.86161  0.72663  1.0000
  H   H772      1.0  0.25307  0.87819  0.73497  1.0000
  H   H773      1.0  0.28789  0.87803  0.68414  1.0000
  H   H774      1.0  0.26898  0.86093  0.67600  1.0000
  C   C951      1.0  0.24138  0.86637  0.59349  1.0000
  C   C952      1.0  0.24044  0.88422  0.58466  1.0000
  C   C953      1.0  0.22925  0.89152  0.57225  1.0000
  C   C954      1.0  0.21954  0.88078  0.56807  1.0000
  C   C955      1.0  0.22076  0.86280  0.57665  1.0000
  C   C956      1.0  0.23136  0.85572  0.58965  1.0000
  H   H775      1.0  0.24825  0.89246  0.58756  1.0000
  H   H776      1.0  0.22837  0.90540  0.56568  1.0000
  H   H777      1.0  0.21307  0.85451  0.57373  1.0000
  H   H778      1.0  0.23210  0.84196  0.59648  1.0000
  C   C957      1.0  0.25296  0.76628  0.56199  1.0000
  C   C958      1.0  0.23855  0.78081  0.56249  1.0000
  C   C959      1.0  0.23994  0.79706  0.55070  1.0000
  C   C960      1.0  0.25559  0.79877  0.53805  1.0000
  C   C961      1.0  0.27036  0.78442  0.53792  1.0000
  C   C962      1.0  0.26914  0.76821  0.55011  1.0000
  H   H779      1.0  0.22609  0.77928  0.57175  1.0000
  H   H780      1.0  0.22858  0.80797  0.55093  1.0000
  H   H781      1.0  0.28254  0.78562  0.52814  1.0000
  H   H782      1.0  0.28038  0.75705  0.54985  1.0000
  H   H783      1.0  0.15089  0.89555  0.51562  1.0000
  C   C963      1.0  0.28713  0.74396  0.63469  1.0000
  C   C964      1.0  0.28155  0.76016  0.64090  1.0000
  C   C965      1.0  0.29002  0.76312  0.65330  1.0000
  C   C966      1.0  0.30405  0.75008  0.65936  1.0000
  H   H784      1.0  0.29159  0.84409  0.50228  1.0000
  H   H785      1.0  0.28506  0.98601  0.92159  1.0000
  H   H786      1.0  0.27057  0.77015  0.63633  1.0000
  H   H787      1.0  0.31044  0.75228  0.66911  1.0000
  H   H788      1.0  0.30515  0.92670  0.70160  1.0000
  C   C967      1.0  0.17207  0.77690  0.52819  1.0000
  C   C968      1.0  0.17686  0.79015  0.51352  1.0000
  C   C969      1.0  0.17446  0.80796  0.51563  1.0000
  C   C970      1.0  0.16677  0.81244  0.53227  1.0000
  C   C971      1.0  0.16191  0.79918  0.54670  1.0000
  C   C972      1.0  0.16508  0.78147  0.54475  1.0000
  H   H789      1.0  0.18256  0.78662  0.50069  1.0000
  H   H790      1.0  0.17832  0.81822  0.50444  1.0000
  H   H791      1.0  0.15613  0.80233  0.55961  1.0000
  H   H792      1.0  0.16259  0.77130  0.55632  1.0000
  H   H793      1.0  0.27201  0.92460  0.93136  1.0000
  C   C973      1.0  0.15772  0.77757  0.63825  1.0000
  C   C974      1.0  0.16707  0.78589  0.64625  1.0000
  C   C975      1.0  0.18450  0.78909  0.63836  1.0000
  C   C976      1.0  0.19237  0.78332  0.62222  1.0000
  C   C977      1.0  0.18281  0.77517  0.61397  1.0000
  C   C978      1.0  0.32299  0.88092  0.96080  1.0000
  H   H794      1.0  0.16066  0.78992  0.65873  1.0000
  H   H795      1.0  0.20583  0.78520  0.61599  1.0000
  H   H796      1.0  0.38693  0.92356  0.83414  1.0000
  H   H797      1.0  0.41126  0.81701  0.59523  1.0000
  H   H798      1.0  0.22354  0.94430  0.50550  1.0000
  H   H799      1.0  0.45369  0.75798  0.61745  1.0000
  H   H800      1.0  0.41976  0.95003  0.70378  1.0000
  H   H801      1.0  0.33727  0.85842  0.94867  1.0000
  H   H802      1.0  0.36243  0.94392  0.80010  1.0000
  H   H803      1.0  0.14400  0.80728  0.48476  1.0000
  C   C979      1.0  0.17405  0.89656  0.59917  1.0000
  C   C980      1.0  0.27297  0.90891  0.95751  1.0000
  H   H804      1.0  0.11050  0.89693  0.56388  1.0000
  H   H805      1.0  0.16790  0.89277  0.55188  1.0000
  H   H806      1.0  0.06702  0.74728  0.53766  1.0000
  C   C981      1.0  0.42736  0.81150  0.77124  1.0000
  C   C982      1.0  0.25380  0.80068  0.59296  1.0000
  H   H807      1.0  0.34213  0.79829  0.55801  1.0000
  P   P32       1.0  0.30856  0.79201  0.58208  1.0000
  C   C983      1.0  0.28293  0.85002  0.49277  1.0000
  H   H808      1.0  0.35788  0.88827  0.74158  1.0000
  H   H809      1.0  0.39690  0.95286  0.91600  1.0000
  H   H810      1.0  0.13328  0.75246  0.52776  1.0000
  H   H811      1.0  0.47752  0.93540  0.69206  1.0000
  C   C984      1.0  0.27925  0.83911  0.48302  1.0000
  C   C985      1.0  0.14335  0.92767  0.68688  1.0000
  C   C986      1.0  0.24124  0.96142  0.84366  1.0000
  H   H812      1.0  0.41820  0.92127  0.89980  1.0000
  H   H813      1.0  0.47558  0.76298  0.70529  1.0000
  C   C987      1.0  0.34627  0.94413  0.78113  1.0000
  C   C988      1.0  0.12864  0.94448  0.47756  1.0000
  C   C989      1.0  0.33606  0.80822  0.53200  1.0000
  Fe  Fe86      1.0  0.42722  0.96927  0.81809  1.0000
  S   S166      1.0  0.41275  0.79034  0.73621  1.0000
  S   S167      1.0  0.40129  0.74204  0.74427  1.0000
  C   C990      1.0  0.42321  0.86685  0.93099  1.0000
  C   C991      1.0  0.11753  0.87713  0.51115  1.0000
  H   H814      1.0  0.20069  0.89488  0.68184  1.0000
  C   C992      1.0  0.16772  0.90274  0.66824  1.0000
  H   H815      1.0  0.23188  0.89668  0.68123  1.0000
  C   C993      1.0  0.44843  0.84405  0.86664  1.0000
  H   H816      1.0  0.22488  0.79799  0.51261  1.0000
  C   C994      1.0  0.16538  0.77192  0.62205  1.0000
  C   C995      1.0  0.10957  0.93914  0.52766  1.0000
  H   H817      1.0  0.29304  0.82344  0.71297  1.0000
  H   H818      1.0  0.38093  0.96681  0.72851  1.0000
  C   C996      1.0  0.17104  0.92729  0.47887  1.0000
  C   C997      1.0  0.35469  0.91651  0.70837  1.0000
  C   C998      1.0  0.23419  0.93254  0.50529  1.0000
  C   C999      1.0  0.40346  0.75007  0.80254  1.0000
  H   H819      1.0  0.12776  0.90690  0.69762  1.0000
  P   P33       1.0  0.38406  0.76652  0.80940  1.0000
  C   C1000     1.0  0.38994  0.77570  0.82553  1.0000
  C   C1001     1.0  0.37843  0.78384  0.79086  1.0000
  C   C1002     1.0  0.38205  0.80105  0.78841  1.0000
  C   C1003     1.0  0.37632  0.81454  0.77470  1.0000
  C   C1004     1.0  0.36672  0.81109  0.76355  1.0000
  C   C1005     1.0  0.36336  0.79394  0.76570  1.0000
  C   C1006     1.0  0.36926  0.78032  0.77922  1.0000
  C   C1007     1.0  0.37825  0.77742  0.84180  1.0000
  C   C1008     1.0  0.38344  0.78397  0.85434  1.0000
  C   C1009     1.0  0.40042  0.78841  0.85089  1.0000
  C   C1010     1.0  0.41216  0.78655  0.83483  1.0000
  C   C1011     1.0  0.40693  0.78033  0.82214  1.0000
  C   C1012     1.0  0.36438  0.75651  0.81847  1.0000
  C   C1013     1.0  0.30050  0.88890  0.49452  1.0000
  C   C1014     1.0  0.18621  0.92013  0.50899  1.0000
  H   H820      1.0  0.14790  0.87639  0.47898  1.0000
  C   C1015     1.0  0.33177  0.76018  0.82602  1.0000
  C   C1016     1.0  0.34726  0.76761  0.82036  1.0000
  C   C1017     1.0  0.41829  0.92518  0.66102  1.0000
  H   H821      1.0  0.38295  0.97809  0.96437  1.0000
  S   S168      1.0  0.44381  0.74307  0.72633  1.0000
  H   H822      1.0  0.40437  0.75930  0.77433  1.0000
  H   H823      1.0  0.46987  0.76017  0.63973  1.0000
  H   H824      1.0  0.38934  0.80418  0.79692  1.0000
  H   H825      1.0  0.37953  0.82767  0.77263  1.0000
  H   H826      1.0  0.36205  0.82164  0.75313  1.0000
  H   H827      1.0  0.35634  0.79121  0.75676  1.0000
  H   H828      1.0  0.36660  0.76705  0.78065  1.0000
  H   H829      1.0  0.36518  0.77376  0.84490  1.0000
  H   H830      1.0  0.37436  0.78567  0.86678  1.0000
  H   H831      1.0  0.40453  0.79331  0.86065  1.0000
  H   H832      1.0  0.42533  0.79010  0.83210  1.0000
  H   H833      1.0  0.41624  0.77906  0.80971  1.0000
  C   C1018     1.0  0.12506  0.94358  0.51570  1.0000
  H   H834      1.0  0.20743  0.74118  0.59130  1.0000
  C   C1019     1.0  0.32024  0.97783  0.82249  1.0000
  H   H835      1.0  0.31864  0.76887  0.82701  1.0000
  H   H836      1.0  0.34593  0.78205  0.81713  1.0000
  C   C1020     1.0  0.23014  0.90237  0.95228  1.0000
  C   C1021     1.0  0.34908  0.98012  0.76973  1.0000
  C   C1022     1.0  0.37996  0.92380  0.72731  1.0000
  H   H837      1.0  0.20220  0.79776  0.54035  1.0000
  Fe  Fe87      1.0  0.15176  0.74428  0.59219  1.0000
  H   H838      1.0  0.44430  0.83184  0.86660  1.0000
  H   H839      1.0  0.34560  0.93011  0.78535  1.0000
  C   C1023     1.0  0.43489  0.85654  0.74534  1.0000
  C   C1024     1.0  0.27665  0.79199  0.70237  1.0000
  S   S169      1.0  0.47045  0.87017  0.81669  1.0000
  H   H840      1.0  0.38132  0.89262  0.93679  1.0000
  H   H841      1.0  0.13325  0.80865  0.61472  1.0000
  C   C1025     1.0  0.49273  0.91846  0.76244  1.0000
  H   H842      1.0  0.39390  0.76281  0.55655  1.0000
  C   C1026     1.0  0.36207  0.82966  0.83529  1.0000
  C   C1027     1.0  0.35837  0.84735  0.83765  1.0000
  C   C1028     1.0  0.34062  0.85576  0.84313  1.0000
  C   C1029     1.0  0.32653  0.84664  0.84597  1.0000
  C   C1030     1.0  0.33020  0.82890  0.84353  1.0000
  C   C1031     1.0  0.34804  0.82054  0.83805  1.0000
  P   P34       1.0  0.31256  0.81620  0.84850  1.0000
  C   C1032     1.0  0.31969  0.79542  0.86313  1.0000
  C   C1033     1.0  0.29220  0.82844  0.85986  1.0000
  C   C1034     1.0  0.28892  0.82668  0.87833  1.0000
  C   C1035     1.0  0.27326  0.83641  0.88705  1.0000
  C   C1036     1.0  0.26084  0.84801  0.87741  1.0000
  C   C1037     1.0  0.26419  0.85013  0.85900  1.0000
  C   C1038     1.0  0.27989  0.84051  0.85020  1.0000
  C   C1039     1.0  0.31406  0.77968  0.86320  1.0000
  C   C1040     1.0  0.32001  0.76362  0.87432  1.0000
  C   C1041     1.0  0.33140  0.76323  0.88562  1.0000
  C   C1042     1.0  0.33678  0.77890  0.88588  1.0000
  C   C1043     1.0  0.33096  0.79491  0.87471  1.0000
  C   C1044     1.0  0.30848  0.81205  0.82848  1.0000
  C   C1045     1.0  0.29280  0.80601  0.82888  1.0000
  C   C1046     1.0  0.28952  0.80277  0.81347  1.0000
  C   C1047     1.0  0.30182  0.80562  0.79752  1.0000
  C   C1048     1.0  0.31735  0.81181  0.79698  1.0000
  C   C1049     1.0  0.32060  0.81515  0.81233  1.0000
  H   H843      1.0  0.37578  0.82296  0.83140  1.0000
  H   H844      1.0  0.36928  0.85447  0.83548  1.0000
  H   H845      1.0  0.33783  0.86915  0.84580  1.0000
  H   H846      1.0  0.31294  0.85336  0.85048  1.0000
  H   H847      1.0  0.35108  0.80690  0.83609  1.0000
  H   H848      1.0  0.29859  0.81819  0.88603  1.0000
  C   C1050     1.0  0.37052  0.78489  0.58969  1.0000
  H   H849      1.0  0.25481  0.85963  0.85152  1.0000
  H   H850      1.0  0.28254  0.84280  0.83588  1.0000
  H   H851      1.0  0.30500  0.77973  0.85485  1.0000
  H   H852      1.0  0.31564  0.75152  0.87432  1.0000
  H   H853      1.0  0.33587  0.75085  0.89436  1.0000
  H   H854      1.0  0.34533  0.77875  0.89486  1.0000
  H   H855      1.0  0.33510  0.80697  0.87531  1.0000
  H   H856      1.0  0.28296  0.80410  0.84107  1.0000
  H   H857      1.0  0.27724  0.79843  0.81381  1.0000
  H   H858      1.0  0.29909  0.80348  0.78552  1.0000
  H   H859      1.0  0.32667  0.81466  0.78457  1.0000
  H   H860      1.0  0.33236  0.82060  0.81130  1.0000
  H   H861      1.0  0.33340  0.98034  0.75057  1.0000
  H   H862      1.0  0.18871  0.86966  0.59887  1.0000
  C   C1051     1.0  0.48290  0.77178  0.67710  1.0000
  C   C1052     1.0  0.26940  0.84766  0.55172  1.0000
  H   H863      1.0  0.33471  0.94246  0.82211  1.0000
  H   H864      1.0  0.19677  0.86428  0.68795  1.0000
  H   H865      1.0  0.34224  0.74475  0.69475  1.0000
  C   C1053     1.0  0.19732  0.91950  0.49239  1.0000
  H   H866      1.0  0.46346  0.84867  0.73665  1.0000
  C   C1054     1.0  0.46661  0.84514  0.86179  1.0000
  C   C1055     1.0  0.46070  0.76899  0.61511  1.0000
  C   C1056     1.0  0.15973  0.92796  0.49549  1.0000
  Fe  Fe88      1.0  0.16354  0.74016  0.55356  1.0000
  C   C1057     1.0  0.31282  0.94542  0.93043  1.0000
  C   C1058     1.0  0.33132  0.90963  0.94630  1.0000
  H   H867      1.0  0.25862  0.97352  0.82111  1.0000
  C   C1059     1.0  0.30963  0.93742  0.91775  1.0000
  C   C1060     1.0  0.29808  0.94707  0.90624  1.0000
  H   H868      1.0  0.10354  0.92856  0.52636  1.0000
  C   C1061     1.0  0.41130  0.91537  0.69283  1.0000
  H   H869      1.0  0.14425  0.96125  0.50848  1.0000
  C   C1062     1.0  0.46081  0.78166  0.59938  1.0000
  C   C1063     1.0  0.15141  0.77877  0.48708  1.0000
  H   H870      1.0  0.29124  0.94248  0.79556  1.0000
  H   H871      1.0  0.31008  0.90557  0.96936  1.0000
  H   H872      1.0  0.02500  0.74106  0.48116  1.0000
  C   C1064     1.0  0.44877  0.79387  0.67989  1.0000
  H   H873      1.0  0.11377  0.86813  0.58514  1.0000
  H   H874      1.0  0.12371  0.87295  0.61279  1.0000
  H   H875      1.0  0.44200  0.86689  0.90635  1.0000
  H   H876      1.0  0.47053  0.80518  0.58380  1.0000
  H   H877      1.0  0.31598  0.92377  0.91666  1.0000
  C   C1065     1.0  0.34189  0.74323  0.57964  1.0000
  C   C1066     1.0  0.47970  0.79669  0.60863  1.0000
  C   C1067     1.0  0.21968  0.88718  0.64021  1.0000
  H   H878      1.0  0.16829  0.93308  0.97476  1.0000
  H   H879      1.0  0.45581  0.80254  0.65173  1.0000
  C   C1068     1.0  0.47143  0.77187  0.69362  1.0000
  C   C1069     1.0  0.13240  0.95751  0.51768  1.0000
  H   H880      1.0  0.23990  0.90470  0.95863  1.0000
  C   C1070     1.0  0.36538  0.92945  0.94219  1.0000
  C   C1071     1.0  0.40611  0.87401  0.93963  1.0000
  C   C1072     1.0  0.26007  0.94063  0.95132  1.0000
  C   C1073     1.0  0.13258  0.82851  0.59038  1.0000
  P   P35       1.0  0.14506  0.84257  0.59580  1.0000
  C   C1074     1.0  0.13714  0.84517  0.61860  1.0000
  C   C1075     1.0  0.16831  0.83145  0.59308  1.0000
  C   C1076     1.0  0.17974  0.83383  0.60320  1.0000
  C   C1077     1.0  0.19776  0.82506  0.60085  1.0000
  C   C1078     1.0  0.20436  0.81394  0.58841  1.0000
  C   C1079     1.0  0.19296  0.81129  0.57863  1.0000
  C   C1080     1.0  0.17512  0.82026  0.58070  1.0000
  C   C1081     1.0  0.14161  0.83080  0.63226  1.0000
  C   C1082     1.0  0.13555  0.83247  0.64996  1.0000
  C   C1083     1.0  0.12538  0.84867  0.65419  1.0000
  C   C1084     1.0  0.12122  0.86320  0.64069  1.0000
  C   C1085     1.0  0.12704  0.86149  0.62295  1.0000
  C   C1086     1.0  0.14280  0.86408  0.58086  1.0000
  C   C1087     1.0  0.12564  0.87355  0.57815  1.0000
  C   C1088     1.0  0.12374  0.88986  0.56611  1.0000
  C   C1089     1.0  0.13895  0.89685  0.55673  1.0000
  C   C1090     1.0  0.15606  0.88751  0.55934  1.0000
  C   C1091     1.0  0.15803  0.87117  0.57133  1.0000
  H   H881      1.0  0.13196  0.84354  0.56360  1.0000
  H   H882      1.0  0.17477  0.84222  0.61302  1.0000
  H   H883      1.0  0.20644  0.82648  0.60902  1.0000
  H   H884      1.0  0.21814  0.80694  0.58657  1.0000
  H   H885      1.0  0.19795  0.80234  0.56933  1.0000
  H   H886      1.0  0.16669  0.81846  0.57261  1.0000
  H   H887      1.0  0.14997  0.81832  0.62923  1.0000
  H   H888      1.0  0.13887  0.82114  0.66035  1.0000
  H   H889      1.0  0.12078  0.84994  0.66793  1.0000
  H   H890      1.0  0.11340  0.87580  0.64397  1.0000
  H   H891      1.0  0.18894  0.77149  0.60129  1.0000
  C   C1092     1.0  0.38822  0.91316  0.84577  1.0000
  H   H892      1.0  0.39603  0.93077  0.64760  1.0000
  S   S170      1.0  0.38720  0.95260  0.87608  1.0000
  H   H893      1.0  0.13748  0.90937  0.54730  1.0000
  C   C1093     1.0  0.22360  0.89329  0.92783  1.0000
  H   H894      1.0  0.25680  0.95280  0.94185  1.0000
  H   H895      1.0  0.19633  0.83314  0.70266  1.0000
  H   H896      1.0  0.35241  0.90879  0.92299  1.0000
  C   C1094     1.0  0.33788  0.95416  0.76700  1.0000
  C   C1095     1.0  0.35607  0.95202  0.78939  1.0000
  H   H897      1.0  0.19563  0.89445  0.92851  1.0000
  C   C1096     1.0  0.38381  0.94951  0.92205  1.0000
  P   P36       1.0  0.13552  0.93163  0.49789  1.0000
  S   S171      1.0  0.13687  0.75184  0.56904  1.0000
  S   S172      1.0  0.15223  0.76120  0.61297  1.0000
  C   C1097     1.0  0.44648  0.94459  0.86850  1.0000
  H   H898      1.0  0.21690  0.88394  0.62878  1.0000
  C   C1098     1.0  0.23261  0.76927  0.51657  1.0000
  C   C1099     1.0  0.25014  0.78340  0.59882  1.0000
  H   H899      1.0  0.36493  0.88325  0.87471  1.0000
  H   H900      1.0  0.34311  0.74328  0.66364  1.0000
  C   C1100     1.0  0.34873  0.90519  0.70065  1.0000
  H   H901      1.0  0.08356  0.86002  0.48164  1.0000
  H   H902      1.0  0.35635  0.87631  0.92473  1.0000
  H   H903      1.0  0.24490  0.75650  0.67811  1.0000
  C   C1101     1.0  0.32271  0.81298  0.52181  1.0000
  C   C1102     1.0  0.12833  0.83213  0.57346  1.0000
  Fe  Fe89      1.0  0.41774  0.76283  0.72952  1.0000
  C   C1103     1.0  0.33098  0.90900  0.69802  1.0000
  C   C1104     1.0  0.37581  0.89043  0.86866  1.0000
  C   C1105     1.0  0.26176  0.91627  0.49021  1.0000
  H   H904      1.0  0.36245  0.90654  0.84777  1.0000
  C   C1106     1.0  0.38498  0.78679  0.59630  1.0000
  C   C1107     1.0  0.34664  0.88270  0.93474  1.0000
  H   H905      1.0  0.34646  0.94041  0.71986  1.0000
  H   H906      1.0  0.40896  0.96140  0.77549  1.0000
  H   H907      1.0  0.47713  0.91624  0.72175  1.0000
  C   C1108     1.0  0.15194  0.89814  0.67950  1.0000
  C   C1109     1.0  0.30215  0.80600  0.61256  1.0000
  H   H908      1.0  0.43330  0.94684  0.75415  1.0000
  C   C1110     1.0  0.30366  0.90469  0.49760  1.0000
  C   C1111     1.0  0.21764  0.75283  0.54388  1.0000
  H   H909      1.0  0.35487  0.86085  0.58703  1.0000
  H   H910      1.0  0.43216  0.85660  0.93834  1.0000
  C   C1112     1.0  0.32752  0.79656  0.65356  1.0000
  C   C1113     1.0  0.23734  0.88836  0.63997  1.0000
  C   C1114     1.0  0.33593  0.87260  0.94824  1.0000
  H   H911      1.0  0.33707  0.78226  0.68856  1.0000
  C   C1115     1.0  0.36628  0.83407  0.59893  1.0000
  C   C1116     1.0  0.37443  0.90355  0.85341  1.0000
  C   C1117     1.0  0.39106  0.88674  0.87621  1.0000
  C   C1118     1.0  0.47584  0.88925  0.76856  1.0000
  H   H912      1.0  0.35759  0.77261  0.62510  1.0000
  C   C1119     1.0  0.47750  0.78300  0.66184  1.0000
  H   H913      1.0  0.29492  0.87094  0.56312  1.0000
  C   C1120     1.0  0.33092  0.75992  0.57512  1.0000
  C   C1121     1.0  0.15896  0.93239  0.67558  1.0000
  C   C1122     1.0  0.47676  0.92055  0.75645  1.0000
  C   C1123     1.0  0.41252  0.94691  0.77739  1.0000
  H   H914      1.0  0.46894  0.87807  0.77212  1.0000
  C   C1124     1.0  0.23385  0.91824  0.51973  1.0000
  C   C1125     1.0  0.38234  0.91574  0.74462  1.0000
  H   H915      1.0  0.26513  0.79065  0.69776  1.0000
  C   C1126     1.0  0.16724  0.91002  0.60912  1.0000
  C   C1127     1.0  0.22975  0.75288  0.52762  1.0000
  H   H916      1.0  0.08965  0.94498  0.55064  1.0000
  C   C1128     1.0  0.36715  0.85134  0.58906  1.0000
  C   C1129     1.0  0.42621  0.93860  0.76533  1.0000
  C   C1130     1.0  0.12920  0.81254  0.60205  1.0000
  C   C1131     1.0  0.38389  0.94439  0.75005  1.0000
  P   P37       1.0  0.18352  0.88667  0.65638  1.0000
  H   H917      1.0  0.18107  0.81461  0.69186  1.0000
  H   H918      1.0  0.42601  0.89512  0.78589  1.0000
  C   C1132     1.0  0.47975  0.78389  0.62443  1.0000
  C   C1133     1.0  0.40474  0.89678  0.86899  1.0000
  H   H919      1.0  0.39229  0.94299  0.80096  1.0000
  C   C1134     1.0  0.16274  0.74367  0.69817  1.0000
  C   C1135     1.0  0.44869  0.94406  0.69603  1.0000
  H   H920      1.0  0.16018  0.92291  0.60323  1.0000
  H   H921      1.0  0.42147  0.85762  0.87480  1.0000
  C   C1136     1.0  0.46851  0.90582  0.75898  1.0000
  C   C1137     1.0  0.40319  0.93654  0.79192  1.0000
  H   H922      1.0  0.47065  0.93374  0.75020  1.0000
  H   H923      1.0  0.14120  0.86667  0.52261  1.0000
  H   H924      1.0  0.16462  0.91770  0.63386  1.0000
  C   C1138     1.0  0.44422  0.92222  0.81239  1.0000
  H   H925      1.0  0.41381  0.89579  0.75819  1.0000
  C   C1139     1.0  0.43250  0.91325  0.87505  1.0000
  H   H926      1.0  0.44890  0.95252  0.68301  1.0000
  H   H927      1.0  0.38773  0.83541  0.73706  1.0000
  C   C1140     1.0  0.42873  0.87271  0.91280  1.0000
  H   H928      1.0  0.43070  0.92968  0.81238  1.0000
  C   C1141     1.0  0.43059  0.91982  0.76781  1.0000
  C   C1142     1.0  0.43462  0.93995  0.88433  1.0000
  C   C1143     1.0  0.39969  0.84386  0.58396  1.0000
  H   H929      1.0  0.38451  0.86959  0.57389  1.0000
  C   C1144     1.0  0.23604  0.89617  0.93637  1.0000
  H   H930      1.0  0.38487  0.95244  0.75899  1.0000
  H   H931      1.0  0.31150  0.84000  0.76230  1.0000
  H   H932      1.0  0.24884  0.85576  0.88416  1.0000
  P   P38       1.0  0.44752  0.90895  0.75183  1.0000
  C   C1145     1.0  0.42208  0.90957  0.78314  1.0000
  C   C1146     1.0  0.40817  0.91791  0.79498  1.0000
  C   C1147     1.0  0.42479  0.88572  0.75338  1.0000
  C   C1148     1.0  0.38780  0.92206  0.67571  1.0000
  H   H933      1.0  0.40718  0.86777  0.75502  1.0000
  C   C1149     1.0  0.35164  0.95569  0.92324  1.0000
  C   C1150     1.0  0.38384  0.85626  0.58163  1.0000
  H   H934      1.0  0.41366  0.91767  0.84747  1.0000
  H   H935      1.0  0.29603  0.88609  0.53192  1.0000
  C   C1151     1.0  0.47585  0.92149  0.80986  1.0000
  Fe  Fe90      1.0  0.39678  0.96909  0.84960  1.0000
  H   H936      1.0  0.26696  0.82001  0.70292  1.0000
  C   C1152     1.0  0.44263  0.88825  0.74966  1.0000
  H   H937      1.0  0.46381  0.88684  0.86848  1.0000
  S   S173      1.0  0.40283  0.95690  0.82561  1.0000
  C   C1153     1.0  0.44816  0.92271  0.73001  1.0000
  C   C1154     1.0  0.46455  0.92372  0.71805  1.0000
  C   C1155     1.0  0.35157  0.78363  0.63194  1.0000
  H   H938      1.0  0.32620  0.89996  0.69263  1.0000
  C   C1156     1.0  0.45833  0.93132  0.80983  1.0000
  C   C1157     1.0  0.45651  0.87501  0.74308  1.0000
  H   H939      1.0  0.43196  0.84411  0.74413  1.0000
  C   C1158     1.0  0.12129  0.80075  0.59709  1.0000
  C   C1159     1.0  0.12032  0.82036  0.56859  1.0000
  C   C1160     1.0  0.27969  0.86999  0.52652  1.0000
  C   C1161     1.0  0.33530  0.78292  0.64397  1.0000
  C   C1162     1.0  0.43202  0.93192  0.72457  1.0000
  C   C1163     1.0  0.46480  0.93446  0.70115  1.0000
  H   H940      1.0  0.47034  0.87684  0.73966  1.0000
  C   C1164     1.0  0.45265  0.85913  0.74113  1.0000
  H   H941      1.0  0.41925  0.93080  0.73345  1.0000
  C   C1165     1.0  0.39325  0.91648  0.69213  1.0000
  C   C1166     1.0  0.40582  0.77238  0.57339  1.0000
  H   H942      1.0  0.11928  0.78820  0.60598  1.0000
  H   H943      1.0  0.43543  0.80213  0.68105  1.0000
  H   H944      1.0  0.09525  0.89126  0.49849  1.0000
  H   H945      1.0  0.47649  0.83396  0.85746  1.0000
  C   C1167     1.0  0.11684  0.80465  0.58038  1.0000
  C   C1168     1.0  0.18948  0.85680  0.68332  1.0000
  H   H946      1.0  0.22822  0.88857  0.91542  1.0000
  H   H947      1.0  0.11769  0.82298  0.55531  1.0000
  H   H948      1.0  0.34016  0.96400  0.91801  1.0000
  H   H949      1.0  0.39199  0.87621  0.88781  1.0000
  H   H950      1.0  0.41041  0.84815  0.71297  1.0000
  H   H951      1.0  0.31495  0.79584  0.66299  1.0000
  C   C1169     1.0  0.27776  0.80857  0.70515  1.0000
  C   C1170     1.0  0.35758  0.97024  0.78379  1.0000
  H   H952      1.0  0.29277  0.75945  0.59459  1.0000
  H   H953      1.0  0.48607  0.86160  0.85839  1.0000
  C   C1171     1.0  0.36848  0.96040  0.91634  1.0000
  H   H954      1.0  0.27095  0.83525  0.90126  1.0000
  H   H955      1.0  0.15102  0.75034  0.70629  1.0000
  H   H956      1.0  0.38258  0.90159  0.74955  1.0000
  H   H957      1.0  0.43049  0.94867  0.89387  1.0000
  H   H958      1.0  0.11130  0.79516  0.57638  1.0000
  H   H959      1.0  0.26138  0.75522  0.60366  1.0000
  H   H960      1.0  0.10464  0.92044  0.49152  1.0000
  C   C1172     1.0  0.38170  0.95249  0.73281  1.0000
  C   C1173     1.0  0.48538  0.74577  0.57586  1.0000
  H   H961      1.0  0.42384  0.82409  0.77577  1.0000
  H   H962      1.0  0.16173  0.94563  0.67414  1.0000
  C   C1174     1.0  0.27261  0.94113  0.85493  1.0000
  C   C1175     1.0  0.23114  0.73888  0.67159  1.0000
  H   H963      1.0  0.30626  0.96957  0.94128  1.0000
  C   C1176     1.0  0.29277  0.81045  0.71073  1.0000
  C   C1177     1.0  0.26426  0.76862  0.59935  1.0000
  C   C1178     1.0  0.42378  0.91964  0.67732  1.0000
  H   H964      1.0  0.11356  0.86423  0.51397  1.0000
  H   H965      1.0  0.25474  0.92895  0.87731  1.0000
  C   C1179     1.0  0.05776  0.73907  0.51770  1.0000
  H   H966      1.0  0.36676  0.96182  0.84863  1.0000
  H   H967      1.0  0.28033  0.74125  0.62557  1.0000
  P   P39       1.0  0.37747  0.91087  0.71236  1.0000
  C   C1180     1.0  0.40267  0.78058  0.58794  1.0000
  H   H968      1.0  0.41012  0.82026  0.75216  1.0000
  C   C1181     1.0  0.10728  0.89233  0.50240  1.0000
  H   H969      1.0  0.32108  0.77254  0.61515  1.0000
  C   C1182     1.0  0.35995  0.79831  0.62896  1.0000
  H   H970      1.0  0.35327  0.83031  0.60416  1.0000
  C   C1183     1.0  0.32061  0.89937  0.95982  1.0000
  C   C1184     1.0  0.37107  0.73991  0.69170  1.0000
  C   C1185     1.0  0.20523  0.89661  0.93524  1.0000
  C   C1186     1.0  0.25554  0.94083  0.96948  1.0000
  H   H971      1.0  0.36981  0.97206  0.90584  1.0000
  C   C1187     1.0  0.33608  0.81095  0.65114  1.0000
  H   H972      1.0  0.32283  0.84795  0.58921  1.0000
  C   C1188     1.0  0.31737  0.83606  0.59577  1.0000
  C   C1189     1.0  0.31021  0.83351  0.61392  1.0000
  C   C1190     1.0  0.16295  0.74464  0.68031  1.0000
  H   H973      1.0  0.31015  0.84332  0.62149  1.0000
  H   H974      1.0  0.23642  0.78138  0.60287  1.0000
  H   H975      1.0  0.44736  0.91045  0.84872  1.0000
  C   C1191     1.0  0.35236  0.81173  0.63905  1.0000
  C   C1192     1.0  0.38214  0.82173  0.60174  1.0000
  C   C1193     1.0  0.21002  0.78523  0.53697  1.0000
  H   H976      1.0  0.33020  0.82133  0.65886  1.0000
  C   C1194     1.0  0.30689  0.79569  0.71347  1.0000
  H   H977      1.0  0.28463  0.93289  0.85929  1.0000
  H   H978      1.0  0.28759  0.92105  0.82666  1.0000
  S   S174      1.0  0.45009  0.79999  0.79506  1.0000
  H   H979      1.0  0.41413  0.78196  0.59260  1.0000
  P   P40       1.0  0.38120  0.79918  0.61374  1.0000
  C   C1195     1.0  0.28205  0.77108  0.59404  1.0000
  C   C1196     1.0  0.10784  0.76611  0.52043  1.0000
  C   C1197     1.0  0.38429  0.92604  0.75593  1.0000
  C   C1198     1.0  0.09344  0.76487  0.51343  1.0000
  C   C1199     1.0  0.30272  0.81842  0.62229  1.0000
  C   C1200     1.0  0.33770  0.74804  0.60944  1.0000
  H   H980      1.0  0.35907  0.82273  0.63764  1.0000
  C   C1201     1.0  0.32702  0.76483  0.60492  1.0000
  C   C1202     1.0  0.09347  0.74920  0.50775  1.0000
  C   C1203     1.0  0.39886  0.82661  0.59387  1.0000
  C   C1204     1.0  0.38187  0.88705  0.72109  1.0000
  C   C1205     1.0  0.29054  0.77723  0.70515  1.0000
  H   H981      1.0  0.40130  0.90983  0.80653  1.0000
  C   C1206     1.0  0.29036  0.98557  0.79784  1.0000
  C   C1207     1.0  0.40009  0.89315  0.91194  1.0000
  C   C1208     1.0  0.31907  0.92413  0.70306  1.0000
  C   C1209     1.0  0.30200  0.91942  0.82513  1.0000
  P   P41       1.0  0.32621  0.79760  0.72120  1.0000
  H   H982      1.0  0.29563  0.79476  0.61928  1.0000
  H   H983      1.0  0.38568  0.91986  0.76945  1.0000
  H   H984      1.0  0.11849  0.96975  0.48650  1.0000
  H   H985      1.0  0.24224  0.76956  0.50420  1.0000
  C   C1210     1.0  0.33957  0.97224  0.76145  1.0000
  H   H986      1.0  0.30695  0.89153  0.82347  1.0000
  C   C1211     1.0  0.18921  0.83902  0.69182  1.0000
  C   C1212     1.0  0.27856  0.85290  0.56212  1.0000
  C   C1213     1.0  0.20771  0.76900  0.54846  1.0000
  H   H987      1.0  0.10773  0.77813  0.52494  1.0000
  H   H988      1.0  0.37799  0.94872  0.70814  1.0000
  C   C1214     1.0  0.31722  0.82341  0.58604  1.0000
  C   C1215     1.0  0.38226  0.93408  0.93506  1.0000
  H   H989      1.0  0.17245  0.89897  0.58554  1.0000
  P   P42       1.0  0.42395  0.89277  0.87943  1.0000
  C   C1216     1.0  0.40333  0.90982  0.85350  1.0000
  C   C1217     1.0  0.17932  0.89041  0.63414  1.0000
  H   H990      1.0  0.31823  0.86346  0.70704  1.0000
  C   C1218     1.0  0.43550  0.85877  0.87129  1.0000
  P   P43       1.0  0.29575  0.95604  0.82532  1.0000
  H   H991      1.0  0.41265  0.84754  0.57792  1.0000
  C   C1219     1.0  0.31899  0.82127  0.74458  1.0000
  C   C1220     1.0  0.37375  0.77608  0.57553  1.0000
  H   H992      1.0  0.39996  0.76287  0.62672  1.0000
  C   C1221     1.0  0.28880  0.87521  0.53713  1.0000
  H   H993      1.0  0.31899  0.80980  0.75529  1.0000
  H   H994      1.0  0.29714  0.81636  0.63633  1.0000
  C   C1222     1.0  0.30553  0.77901  0.71085  1.0000
  S   S175      1.0  0.45474  0.95487  0.80667  1.0000
  H   H995      1.0  0.29171  0.94088  0.96446  1.0000
  C   C1223     1.0  0.43985  0.79746  0.77858  1.0000
  H   H996      1.0  0.22834  0.74384  0.63551  1.0000
  H   H997      1.0  0.31550  0.94686  0.71524  1.0000
  C   C1224     1.0  0.22836  0.89446  0.66962  1.0000
  C   C1225     1.0  0.17176  0.83620  0.67162  1.0000
  C   C1226     1.0  0.25573  0.93888  0.86519  1.0000
  C   C1227     1.0  0.31292  0.90272  0.82325  1.0000
  H   H998      1.0  0.49283  0.89529  0.81257  1.0000
  H   H999      1.0  0.28976  0.76450  0.70258  1.0000
  H   H1000     1.0  0.32260  0.82584  0.57200  1.0000
  C   C1228     1.0  0.27153  0.80319  0.58814  1.0000
  C   C1229     1.0  0.22270  0.78538  0.52120  1.0000
  C   C1230     1.0  0.18333  0.88001  0.60666  1.0000
  C   C1231     1.0  0.30970  0.93407  0.82445  1.0000
  H   H1001     1.0  0.36164  0.85559  0.75177  1.0000
  C   C1232     1.0  0.44073  0.87460  0.87161  1.0000
  C   C1233     1.0  0.28915  0.96451  0.90768  1.0000
  C   C1234     1.0  0.25809  0.96388  0.83344  1.0000
  C   C1235     1.0  0.31467  0.85348  0.73510  1.0000
  H   H1002     1.0  0.24297  0.81219  0.59267  1.0000
  C   C1236     1.0  0.32274  0.81928  0.72686  1.0000
  C   C1237     1.0  0.39850  0.79083  0.62685  1.0000
  C   C1238     1.0  0.40508  0.77234  0.63124  1.0000
  C   C1239     1.0  0.32366  0.77101  0.58766  1.0000
  H   H1003     1.0  0.45406  0.77030  0.77825  1.0000
  H   H1004     1.0  0.42795  0.92853  0.64900  1.0000
  C   C1240     1.0  0.33160  0.90063  0.82038  1.0000
  H   H1005     1.0  0.30049  0.78562  0.75270  1.0000
  H   H1006     1.0  0.34012  0.88804  0.81790  1.0000
  C   C1241     1.0  0.37154  0.86112  0.74103  1.0000
  C   C1242     1.0  0.34998  0.94007  0.93614  1.0000
  H   H1007     1.0  0.14902  0.88494  0.68120  1.0000
  H   H1008     1.0  0.31614  0.76740  0.71307  1.0000
  C   C1243     1.0  0.34664  0.79535  0.70469  1.0000
  C   C1244     1.0  0.12444  0.96677  0.53151  1.0000
  H   H1009     1.0  0.39223  0.78702  0.67198  1.0000
  H   H1010     1.0  0.27412  0.81666  0.58423  1.0000
  C   C1245     1.0  0.44434  0.78118  0.77263  1.0000
  H   H1011     1.0  0.27781  0.84664  0.57596  1.0000
  C   C1246     1.0  0.32863  0.77991  0.74035  1.0000
  C   C1247     1.0  0.38623  0.84980  0.73287  1.0000
  H   H1012     1.0  0.21574  0.74043  0.55298  1.0000
  H   H1013     1.0  0.32882  0.77167  0.64595  1.0000
  C   C1248     1.0  0.12855  0.91025  0.50299  1.0000
  H   H1014     1.0  0.41572  0.91108  0.70541  1.0000
  H   H1015     1.0  0.18314  0.92386  0.65754  1.0000
  C   C1249     1.0  0.43626  0.77890  0.75949  1.0000
  H   H1016     1.0  0.29212  0.96366  0.86080  1.0000
  S   S176      1.0  0.24481  0.96098  0.97656  1.0000
  H   H1017     1.0  0.19380  0.86420  0.62928  1.0000
  C   C1250     1.0  0.34260  0.93170  0.71337  1.0000
  H   H1018     1.0  0.08215  0.77601  0.51275  1.0000
  H   H1019     1.0  0.48683  0.92840  0.80795  1.0000
  C   C1251     1.0  0.45103  0.93389  0.85574  1.0000
  S   S177      1.0  0.36991  0.98151  0.79328  1.0000
  H   H1020     1.0  0.26242  0.85213  0.52640  1.0000
  C   C1252     1.0  0.47198  0.86071  0.86232  1.0000
  C   C1253     1.0  0.31356  0.77721  0.75382  1.0000
  H   H1021     1.0  0.36090  0.80717  0.71783  1.0000
  C   C1254     1.0  0.24007  0.94888  0.85951  1.0000
  H   H1022     1.0  0.15915  0.92420  0.52359  1.0000
  C   C1255     1.0  0.10164  0.94842  0.54148  1.0000
  H   H1023     1.0  0.41951  0.76723  0.56726  1.0000
  C   C1256     1.0  0.13863  0.89495  0.51195  1.0000
  C   C1257     1.0  0.32293  0.83456  0.71330  1.0000
  H   H1024     1.0  0.32564  0.83333  0.69956  1.0000
  C   C1258     1.0  0.31488  0.83835  0.74864  1.0000
  H   H1025     1.0  0.43984  0.76635  0.75496  1.0000
  C   C1259     1.0  0.34533  0.76859  0.74192  1.0000
  C   C1260     1.0  0.18610  0.87697  0.62397  1.0000
  H   H1026     1.0  0.14887  0.77619  0.50143  1.0000
  C   C1261     1.0  0.42366  0.79290  0.75225  1.0000
  C   C1262     1.0  0.39897  0.85702  0.71912  1.0000
  H   H1027     1.0  0.35767  0.89321  0.69700  1.0000
  H   H1028     1.0  0.22706  0.94659  0.86724  1.0000
  H   H1029     1.0  0.35715  0.77002  0.73165  1.0000
  C   C1263     1.0  0.47925  0.90275  0.81251  1.0000
  H   H1030     1.0  0.25029  0.89366  0.93066  1.0000
  C   C1264     1.0  0.41835  0.76590  0.64157  1.0000
  H   H1031     1.0  0.42360  0.75163  0.64485  1.0000
  C   C1265     1.0  0.21068  0.89334  0.66991  1.0000
  C   C1266     1.0  0.40502  0.80270  0.63334  1.0000
  H   H1032     1.0  0.39972  0.81695  0.63065  1.0000
  S   S178      1.0  0.41231  0.76238  0.70319  1.0000
  C   C1267     1.0  0.41954  0.80929  0.75792  1.0000
  C   C1268     1.0  0.33935  0.91489  0.82039  1.0000
  H   H1033     1.0  0.29462  0.81488  0.52203  1.0000
  C   C1269     1.0  0.36940  0.87966  0.73520  1.0000
  C   C1270     1.0  0.32844  0.93154  0.82244  1.0000
  C   C1271     1.0  0.40031  0.92640  0.66023  1.0000
  C   C1272     1.0  0.39679  0.87557  0.71315  1.0000
  H   H1034     1.0  0.32611  0.81758  0.50762  1.0000
  C   C1273     1.0  0.31530  0.76367  0.76880  1.0000
  H   H1035     1.0  0.34115  0.95091  0.84521  1.0000
  H   H1036     1.0  0.24660  0.89186  0.53068  1.0000
  C   C1274     1.0  0.04603  0.77233  0.48668  1.0000
  C   C1275     1.0  0.31881  0.85161  0.71744  1.0000
  H   H1037     1.0  0.37394  0.92320  0.67480  1.0000
  C   C1276     1.0  0.31386  0.80053  0.55850  1.0000
  C   C1277     1.0  0.37794  0.79843  0.69473  1.0000
  H   H1038     1.0  0.30362  0.76166  0.77913  1.0000
  C   C1278     1.0  0.47000  0.77017  0.62765  1.0000
  C   C1279     1.0  0.13312  0.87849  0.51602  1.0000
  H   H1039     1.0  0.22910  0.96896  0.83910  1.0000
  P   P44       1.0  0.07454  0.74726  0.49937  1.0000
  C   C1280     1.0  0.34699  0.75499  0.75682  1.0000
  H   H1040     1.0  0.29339  0.91285  0.50575  1.0000
  H   H1041     1.0  0.40659  0.88075  0.70219  1.0000
  C   C1281     1.0  0.24740  0.90290  0.51944  1.0000
  C   C1282     1.0  0.41841  0.79620  0.64352  1.0000
  C   C1283     1.0  0.33167  0.80199  0.55027  1.0000
  H   H1042     1.0  0.31092  0.86668  0.73829  1.0000
  H   H1043     1.0  0.48231  0.75681  0.56519  1.0000
  C   C1284     1.0  0.42501  0.77780  0.64769  1.0000
  H   H1044     1.0  0.28677  0.80402  0.55386  1.0000
  C   C1285     1.0  0.33203  0.75258  0.77032  1.0000
  C   C1286     1.0  0.17179  0.85406  0.66319  1.0000
  H   H1045     1.0  0.16492  0.85953  0.65219  1.0000
  C   C1287     1.0  0.36452  0.78452  0.67840  1.0000
  H   H1046     1.0  0.28476  0.82487  0.48531  1.0000
  C   C1288     1.0  0.17110  0.92000  0.66625  1.0000
  H   H1047     1.0  0.24776  0.88606  0.62850  1.0000
  H   H1048     1.0  0.43522  0.77267  0.65577  1.0000
  C   C1289     1.0  0.47025  0.79555  0.59615  1.0000
  C   C1290     1.0  0.30056  0.80531  0.54813  1.0000
  H   H1049     1.0  0.35993  0.74622  0.75765  1.0000
  C   C1291     1.0  0.29235  0.96686  0.80320  1.0000
  H   H1050     1.0  0.35385  0.91323  0.81821  1.0000
  C   C1292     1.0  0.21869  0.74391  0.61250  1.0000
  C   C1293     1.0  0.43229  0.94271  0.70772  1.0000
  C   C1294     1.0  0.28661  0.96529  0.77493  1.0000
  H   H1051     1.0  0.16555  0.82792  0.66673  1.0000
  H   H1052     1.0  0.42346  0.80535  0.64845  1.0000
  C   C1295     1.0  0.29020  0.95683  0.79168  1.0000
  C   C1296     1.0  0.13983  0.91057  0.68880  1.0000
  C   C1297     1.0  0.16983  0.90699  0.62654  1.0000
  Fe  Fe91      1.0  0.39790  0.74009  0.71767  1.0000
  C   C1298     1.0  0.29204  0.97251  0.92042  1.0000
  H   H1053     1.0  0.28527  0.95737  0.76605  1.0000
  C   C1299     1.0  0.26993  0.85618  0.53403  1.0000
  C   C1300     1.0  0.20614  0.88965  0.65522  1.0000
  H   H1054     1.0  0.33338  0.74197  0.78182  1.0000
  H   H1055     1.0  0.39108  0.90342  0.90471  1.0000
  C   C1301     1.0  0.18125  0.86433  0.66856  1.0000
  C   C1302     1.0  0.26880  0.92470  0.94534  1.0000
  C   C1303     1.0  0.12226  0.75166  0.52203  1.0000
  C   C1304     1.0  0.34818  0.78713  0.69037  1.0000
  H   H1056     1.0  0.38965  0.80224  0.69678  1.0000
  C   C1305     1.0  0.36162  0.80114  0.70668  1.0000
  C   C1306     1.0  0.30060  0.94170  0.97267  1.0000
  H   H1057     1.0  0.36584  0.77762  0.66771  1.0000
  H   H1058     1.0  0.29607  0.94099  0.89616  1.0000
  C   C1307     1.0  0.18059  0.82863  0.68580  1.0000
  C   C1308     1.0  0.30499  0.81152  0.52989  1.0000
  C   C1309     1.0  0.11272  0.90884  0.49837  1.0000
  C   C1310     1.0  0.37941  0.78997  0.68070  1.0000
  H   H1059     1.0  0.26155  0.83722  0.55739  1.0000
  H   H1060     1.0  0.36266  0.77369  0.57108  1.0000
  H   H1061     1.0  0.34986  0.80914  0.52573  1.0000
  C   C1311     1.0  0.24170  0.89191  0.65468  1.0000
  C   C1312     1.0  0.45916  0.87525  0.86757  1.0000
  C   C1313     1.0  0.37991  0.94221  0.72141  1.0000
  C   C1314     1.0  0.31416  0.87854  0.48401  1.0000
  H   H1062     1.0  0.18503  0.90542  0.95661  1.0000
  H   H1063     1.0  0.22522  0.75468  0.60456  1.0000
  S   S179      1.0  0.42279  0.97866  0.84365  1.0000
  H   H1064     1.0  0.40175  0.86928  0.95368  1.0000
  H   H1065     1.0  0.21867  0.74866  0.67162  1.0000
  Fe  Fe92      1.0  0.20982  0.86764  0.49701  1.0000
  C   C1315     1.0  0.24594  0.74339  0.67529  1.0000
  C   C1316     1.0  0.30397  0.96309  0.93163  1.0000
  H   H1066     1.0  0.19212  0.91669  0.52071  1.0000
  C   C1317     1.0  0.10908  0.96222  0.54342  1.0000
  C   C1318     1.0  0.16750  0.92433  0.51055  1.0000
  H   H1067     1.0  0.17757  0.87070  0.48745  1.0000
  C   C1319     1.0  0.06442  0.76860  0.48739  1.0000
  C   C1320     1.0  0.21178  0.90560  0.95993  1.0000
  C   C1321     1.0  0.30203  0.97068  0.85168  1.0000
  C   C1322     1.0  0.30660  0.96929  0.83377  1.0000
  C   C1323     1.0  0.26159  0.90188  0.50474  1.0000
  C   C1324     1.0  0.41028  0.74957  0.78459  1.0000
  H   H1068     1.0  0.28000  0.97177  0.89889  1.0000
  C   C1325     1.0  0.19930  0.90281  0.95121  1.0000
  C   C1326     1.0  0.35548  0.74169  0.66817  1.0000
  H   H1069     1.0  0.48707  0.80742  0.60575  1.0000
  C   C1327     1.0  0.45441  0.78294  0.69504  1.0000
  H   H1070     1.0  0.33979  0.74315  0.62289  1.0000
  H   H1071     1.0  0.32442  0.97648  0.80876  1.0000
  Fe  Fe93      1.0  0.38838  0.98315  0.81235  1.0000
  H   H1072     1.0  0.31216  0.86631  0.48140  1.0000
  C   C1328     1.0  0.05717  0.74122  0.53492  1.0000
  S   S180      1.0  0.44925  0.74656  0.58459  1.0000
  H   H1073     1.0  0.45385  0.78045  0.58956  1.0000
  C   C1329     1.0  0.35501  0.74242  0.68574  1.0000
  H   H1074     1.0  0.13017  0.97752  0.53296  1.0000
  H   H1075     1.0  0.15988  0.75089  0.48563  1.0000
  C   C1330     1.0  0.21130  0.96532  0.95439  1.0000
  H   H1076     1.0  0.30786  0.98096  0.87209  1.0000
  H   H1077     1.0  0.32249  0.92230  0.49258  1.0000
  C   C1331     1.0  0.31927  0.93872  0.96660  1.0000
  C   C1332     1.0  0.32017  0.91007  0.49020  1.0000
  H   H1078     1.0  0.21178  0.91543  0.49119  1.0000
  C   C1333     1.0  0.21932  0.74466  0.49444  1.0000
  C   C1334     1.0  0.15770  0.76450  0.47814  1.0000
  C   C1335     1.0  0.28530  0.98378  0.76945  1.0000
  H   H1079     1.0  0.21885  0.97147  0.94202  1.0000
  H   H1080     1.0  0.21137  0.75431  0.50241  1.0000
  C   C1336     1.0  0.31093  0.98052  0.85815  1.0000
  H   H1081     1.0  0.31419  0.87322  0.97086  1.0000
  H   H1082     1.0  0.03746  0.76288  0.49370  1.0000
  H   H1083     1.0  0.39418  0.92557  0.93938  1.0000
  H   H1084     1.0  0.36434  0.91742  0.95223  1.0000
  S   S181      1.0  0.45568  0.74205  0.67473  1.0000
  S   S182      1.0  0.37036  0.74008  0.71385  1.0000
  P   P45       1.0  0.49250  0.78440  0.64045  1.0000
  C   C1337     1.0  0.26868  0.90919  0.97564  1.0000
  H   H1085     1.0  0.10287  0.96945  0.55409  1.0000
  Fe  Fe94      1.0  0.43701  0.74088  0.70115  1.0000
  C   C1338     1.0  0.21388  0.74411  0.47907  1.0000
  H   H1086     1.0  0.34495  0.93723  0.97345  1.0000
  C   C1339     1.0  0.21239  0.94676  0.95839  1.0000
  H   H1087     1.0  0.27236  0.91560  0.47856  1.0000
  C   C1340     1.0  0.32899  0.98776  0.82897  1.0000
  H   H1088     1.0  0.27054  0.98659  0.96177  1.0000
  C   C1341     1.0  0.20127  0.97580  0.96670  1.0000
  C   C1342     1.0  0.33364  0.89972  0.47970  1.0000
  H   H1089     1.0  0.24824  0.94251  0.47919  1.0000
  C   C1343     1.0  0.18973  0.92332  0.47734  1.0000
  C   C1344     1.0  0.20328  0.93855  0.97472  1.0000
  C   C1345     1.0  0.26368  0.87555  0.47827  1.0000
  C   C1346     1.0  0.07506  0.78126  0.47782  1.0000
  H   H1090     1.0  0.08934  0.77861  0.47778  1.0000
  C   C1347     1.0  0.14872  0.79637  0.47756  1.0000
  Fe  Fe95      1.0  0.94145  0.10866  0.29292  1.0000
  S   S183      1.0  0.91354  0.10516  0.30642  1.0000
  C   C1348     1.0  0.97359  0.16119  0.25018  1.0000
  S   S184      1.0  0.91390  0.08386  0.27518  1.0000
  Fe  Fe96      1.0  0.90773  0.11239  0.27895  1.0000
  S   S185      1.0  0.88292  0.13340  0.27530  1.0000
  Fe  Fe97      1.0  0.92231  0.07716  0.30147  1.0000
  S   S186      1.0  0.91876  0.05289  0.32283  1.0000
  S   S187      1.0  0.93526  0.11810  0.26563  1.0000
  Fe  Fe98      1.0  0.86648  0.20938  0.16760  1.0000
  S   S188      1.0  0.85878  0.18623  0.16122  1.0000
  S   S189      1.0  0.89215  0.21952  0.15512  1.0000
  C   C1349     1.0  0.92501  0.17667  0.31381  1.0000
  Fe  Fe99      1.0  0.85128  0.17784  0.19072  1.0000
  S   S190      1.0  0.85795  0.14842  0.20209  1.0000
  H   H1091     1.0  0.92734  0.21459  0.16231  1.0000
  C   C1350     1.0  0.84177  0.19721  0.05423  1.0000
  H   H1092     1.0  0.92942  0.17677  0.26650  1.0000
  C   C1351     1.0  0.93893  0.20474  0.20051  1.0000
  C   C1352     1.0  0.80810  0.21283  0.11152  1.0000
  C   C1353     1.0  0.86539  0.16745  0.10849  1.0000
  C   C1354     1.0  0.49976  0.07276  0.99976  1.0000
  C   C1355     1.0  0.69403  0.19798  0.20869  1.0000
  C   C1356     1.0  0.94850  0.15093  0.32059  1.0000
  S   S191      1.0  0.91055  0.21046  0.22753  1.0000
  H   H1093     1.0  0.92662  0.17386  0.23731  1.0000
  H   H1094     1.0  0.97909  0.02765  0.36451  1.0000
  C   C1357     1.0  0.68936  0.21281  0.01118  1.0000
  C   C1358     1.0  0.78442  0.22527  0.98878  1.0000
  H   H1095     1.0  0.95597  0.10514  0.34747  1.0000
  H   H1096     1.0  0.79913  0.20345  0.11505  1.0000
  C   C1359     1.0  0.90683  0.16726  0.21614  1.0000
  C   C1360     1.0  0.91094  0.20212  0.15268  1.0000
  S   S192      1.0  0.68886  0.20700  0.06824  1.0000
  H   H1097     1.0  0.96580  0.21709  0.25767  1.0000
  H   H1098     1.0  0.80627  0.21922  0.08401  1.0000
  C   C1361     1.0  0.77146  0.21696  0.98638  1.0000
  C   C1362     1.0  0.97867  0.11528  0.17756  1.0000
  Fe  Fe100     1.0  0.56593  0.18549  0.99056  1.0000
  S   S193      1.0  0.53875  0.20063  0.00091  1.0000
  S   S194      1.0  0.59095  0.19336  0.99615  1.0000
  Fe  Fe101     1.0  0.52909  0.17469  0.00639  1.0000
  C   C1363     1.0  0.85879  0.19283  0.35755  1.0000
  C   C1364     1.0  0.99061  0.09616  0.33429  1.0000
  C   C1365     1.0  0.91625  0.09313  0.35079  1.0000
  S   S195      1.0  0.55657  0.15874  0.99747  1.0000
  S   S196      1.0  0.77143  0.21061  0.04061  1.0000
  S   S197      1.0  0.91418  0.19861  0.31592  1.0000
  S   S198      1.0  0.81544  0.23491  0.21304  1.0000
  H   H1099     1.0  0.97310  0.21483  0.22315  1.0000
  C   C1366     1.0  0.71178  0.20823  0.06054  1.0000
  H   H1100     1.0  0.97664  0.00760  0.39356  1.0000
  C   C1367     1.0  0.95235  0.07756  0.35244  1.0000
  C   C1368     1.0  0.98725  0.10082  0.26828  1.0000
  H   H1101     1.0  0.96730  0.07325  0.38985  1.0000
  S   S199      1.0  0.98265  0.16113  0.18226  1.0000
  H   H1102     1.0  0.77209  0.23309  0.22426  1.0000
  C   C1369     1.0  0.51677  0.13130  0.00771  1.0000
  C   C1370     1.0  0.70433  0.21097  0.01865  1.0000
  C   C1371     1.0  0.93960  0.06675  0.35504  1.0000
  C   C1372     1.0  0.60276  0.22764  0.03179  1.0000
  C   C1373     1.0  0.61643  0.21989  0.01919  1.0000
  C   C1374     1.0  0.61255  0.20964  0.00849  1.0000
  C   C1375     1.0  0.59495  0.20679  0.01005  1.0000
  C   C1376     1.0  0.58130  0.21462  0.02257  1.0000
  C   C1377     1.0  0.58514  0.22496  0.03320  1.0000
  H   H1103     1.0  0.63007  0.22166  0.01777  1.0000
  H   H1104     1.0  0.62336  0.20368  0.99902  1.0000
  H   H1105     1.0  0.56780  0.21238  0.02433  1.0000
  C   C1378     1.0  0.87551  0.22297  0.11361  1.0000
  C   C1379     1.0  0.67094  0.20358  0.13027  1.0000
  C   C1380     1.0  0.67161  0.22803  0.14387  1.0000
  Fe  Fe102     1.0  0.77825  0.23658  0.04167  1.0000
  H   H1106     1.0  0.90899  0.17418  0.29623  1.0000
  H   H1107     1.0  0.87442  0.19513  0.12186  1.0000
  Fe  Fe103     1.0  0.83316  0.21581  0.19583  1.0000
  C   C1381     1.0  0.81613  0.21553  0.12440  1.0000
  H   H1108     1.0  0.95985  0.11369  0.23097  1.0000
  C   C1382     1.0  0.49701  0.04672  0.98997  1.0000
  H   H1109     1.0  0.72009  0.18015  0.05969  1.0000
  Fe  Fe104     1.0  0.94201  0.08889  0.26415  1.0000
  C   C1383     1.0  0.93808  0.23365  0.35586  1.0000
  C   C1384     1.0  0.97654  0.08770  0.22923  1.0000
  H   H1110     1.0  0.71148  0.21546  0.20884  1.0000
  S   S200      1.0  0.81161  0.20329  0.14608  1.0000
  H   H1111     1.0  0.70933  0.19921  0.11535  1.0000
  H   H1112     1.0  0.50244  0.03318  0.98778  1.0000
  H   H1113     1.0  0.54754  0.23576  0.00744  1.0000
  H   H1114     1.0  0.72653  0.22243  0.01917  1.0000
  C   C1385     1.0  0.67791  0.20659  0.18443  1.0000
  C   C1386     1.0  0.70614  0.22632  0.10105  1.0000
  C   C1387     1.0  0.77365  0.23287  0.21037  1.0000
  C   C1388     1.0  0.97299  0.10643  0.22590  1.0000
  C   C1389     1.0  0.87464  0.20631  0.11078  1.0000
  C   C1390     1.0  0.98554  0.05431  0.33650  1.0000
  S   S201      1.0  0.95679  0.12149  0.30540  1.0000
  H   H1115     1.0  0.94129  0.21674  0.23805  1.0000
  C   C1391     1.0  0.94552  0.21337  0.22516  1.0000
  C   C1392     1.0  0.93699  0.03559  0.31807  1.0000
  C   C1393     1.0  0.94535  0.02441  0.33163  1.0000
  C   C1394     1.0  0.96057  0.01117  0.32764  1.0000
  C   C1395     1.0  0.96706  0.00880  0.31015  1.0000
  C   C1396     1.0  0.95833  0.01960  0.29671  1.0000
  C   C1397     1.0  0.94353  0.03321  0.30060  1.0000
  H   H1116     1.0  0.94033  0.02625  0.34514  1.0000
  C   C1398     1.0  0.97659  0.03340  0.37619  1.0000
  H   H1117     1.0  0.96320  0.01768  0.28322  1.0000
  H   H1118     1.0  0.93708  0.04183  0.29010  1.0000
  C   C1399     1.0  0.87546  0.13709  0.25531  1.0000
  C   C1400     1.0  0.87884  0.12343  0.24573  1.0000
  C   C1401     1.0  0.87296  0.12691  0.22962  1.0000
  C   C1402     1.0  0.86427  0.14413  0.22278  1.0000
  C   C1403     1.0  0.86074  0.15772  0.23246  1.0000
  C   C1404     1.0  0.86614  0.15414  0.24880  1.0000
  H   H1119     1.0  0.88588  0.11020  0.25077  1.0000
  H   H1120     1.0  0.87527  0.11633  0.22239  1.0000
  H   H1121     1.0  0.85373  0.17095  0.22748  1.0000
  H   H1122     1.0  0.86346  0.16473  0.25621  1.0000
  C   C1405     1.0  0.91056  0.15036  0.22680  1.0000
  C   C1406     1.0  0.92007  0.16780  0.30296  1.0000
  C   C1407     1.0  0.96359  0.21226  0.21670  1.0000
  S   S202      1.0  0.95077  0.08004  0.29022  1.0000
  H   H1123     1.0  0.94266  0.17480  0.33155  1.0000
  C   C1408     1.0  0.51324  0.13390  0.99075  1.0000
  H   H1124     1.0  0.77515  0.20325  0.98441  1.0000
  H   H1125     1.0  0.90667  0.21516  0.34765  1.0000
  C   C1409     1.0  0.92878  0.10401  0.34832  1.0000
  C   C1410     1.0  0.94671  0.09630  0.34936  1.0000
  C   C1411     1.0  0.78022  0.23234  0.17426  1.0000
  H   H1126     1.0  0.68102  0.20272  0.01565  1.0000
  C   C1412     1.0  0.92944  0.15055  0.30078  1.0000
  H   H1127     1.0  0.92569  0.14385  0.29218  1.0000
  C   C1413     1.0  0.50669  0.05525  0.99700  1.0000
  H   H1128     1.0  0.84928  0.22107  0.22552  1.0000
  C   C1414     1.0  0.75864  0.19699  0.14248  1.0000
  Fe  Fe105     1.0  0.98444  0.16389  0.15307  1.0000
  C   C1415     1.0  0.92703  0.20356  0.15656  1.0000
  C   C1416     1.0  0.92604  0.17441  0.14264  1.0000
  S   S203      1.0  0.88569  0.20542  0.27756  1.0000
  C   C1417     1.0  0.98636  0.11584  0.21550  1.0000
  H   H1129     1.0  0.95247  0.23131  0.35517  1.0000
  C   C1418     1.0  0.94393  0.14229  0.30928  1.0000
  C   C1419     1.0  0.96838  0.04737  0.40706  1.0000
  P   P46       1.0  0.68098  0.23701  0.15773  1.0000
  H   H1130     1.0  0.90248  0.17876  0.05665  1.0000
  C   C1420     1.0  0.93661  0.21414  0.10533  1.0000
  H   H1131     1.0  0.83104  0.20842  0.05104  1.0000
  H   H1132     1.0  0.78727  0.20369  0.18218  1.0000
  C   C1421     1.0  0.95576  0.09072  0.18766  1.0000
  H   H1133     1.0  0.67508  0.18360  0.20548  1.0000
  H   H1134     1.0  0.96490  0.05277  0.41905  1.0000
  C   C1422     1.0  0.96013  0.12132  0.18198  1.0000
  H   H1135     1.0  0.50756  0.07919  0.00505  1.0000
  H   H1136     1.0  0.50194  0.20421  0.02276  1.0000
  P   P47       1.0  0.92455  0.11697  0.19098  1.0000
  C   C1423     1.0  0.91747  0.12281  0.16992  1.0000
  C   C1424     1.0  0.91386  0.09935  0.20571  1.0000
  C   C1425     1.0  0.89892  0.09478  0.20217  1.0000
  C   C1426     1.0  0.89101  0.08094  0.21362  1.0000
  C   C1427     1.0  0.89812  0.07139  0.22850  1.0000
  C   C1428     1.0  0.91320  0.07561  0.23189  1.0000
  C   C1429     1.0  0.92095  0.08959  0.22063  1.0000
  C   C1430     1.0  0.90018  0.13282  0.16855  1.0000
  C   C1431     1.0  0.89468  0.13772  0.15226  1.0000
  C   C1432     1.0  0.90641  0.13255  0.13724  1.0000
  C   C1433     1.0  0.92370  0.12273  0.13842  1.0000
  C   C1434     1.0  0.92925  0.11787  0.15469  1.0000
  C   C1435     1.0  0.91887  0.13664  0.20087  1.0000
  C   C1436     1.0  0.91651  0.13508  0.21925  1.0000
  H   H1137     1.0  0.52629  0.13809  0.01003  1.0000
  H   H1138     1.0  0.67302  0.22950  0.99288  1.0000
  C   C1437     1.0  0.91005  0.16903  0.19781  1.0000
  C   C1438     1.0  0.91626  0.15382  0.19019  1.0000
  C   C1439     1.0  0.95816  0.16713  0.26223  1.0000
  H   H1139     1.0  0.78367  0.23167  0.16041  1.0000
  H   H1140     1.0  0.57433  0.23070  0.04281  1.0000
  H   H1141     1.0  0.94707  0.08101  0.19124  1.0000
  C   C1440     1.0  0.92772  0.16311  0.09594  1.0000
  H   H1142     1.0  0.89303  0.10209  0.19089  1.0000
  H   H1143     1.0  0.87918  0.07781  0.21110  1.0000
  H   H1144     1.0  0.89191  0.06079  0.23747  1.0000
  H   H1145     1.0  0.91890  0.06815  0.24331  1.0000
  H   H1146     1.0  0.93258  0.09274  0.22350  1.0000
  H   H1147     1.0  0.89103  0.13697  0.18012  1.0000
  H   H1148     1.0  0.88134  0.14561  0.15143  1.0000
  H   H1149     1.0  0.90222  0.13621  0.12464  1.0000
  H   H1150     1.0  0.93292  0.11897  0.12674  1.0000
  H   H1151     1.0  0.94279  0.11046  0.15524  1.0000
  H   H1152     1.0  0.91869  0.12218  0.22793  1.0000
  H   H1153     1.0  0.74383  0.21948  0.98507  1.0000
  C   C1441     1.0  0.94135  0.17196  0.25738  1.0000
  H   H1154     1.0  0.90744  0.18220  0.18955  1.0000
  H   H1155     1.0  0.91863  0.15550  0.17599  1.0000
  H   H1156     1.0  0.96330  0.06311  0.32258  1.0000
  C   C1442     1.0  0.85421  0.19988  0.37300  1.0000
  H   H1157     1.0  0.93715  0.21047  0.11925  1.0000
  C   C1443     1.0  0.74847  0.20984  0.04822  1.0000
  C   C1444     1.0  0.98628  0.11904  0.26119  1.0000
  H   H1158     1.0  0.91198  0.06609  0.35580  1.0000
  H   H1159     1.0  0.89793  0.18606  0.14312  1.0000
  C   C1445     1.0  0.93314  0.20969  0.21706  1.0000
  H   H1160     1.0  0.76746  0.20450  0.16277  1.0000
  C   C1446     1.0  0.86474  0.18273  0.07182  1.0000
  H   H1161     1.0  0.70454  0.23631  0.18156  1.0000
  C   C1447     1.0  0.75753  0.19867  0.15984  1.0000
  C   C1448     1.0  0.92803  0.16850  0.06454  1.0000
  H   H1162     1.0  0.88233  0.14325  0.10076  1.0000
  H   H1163     1.0  0.69174  0.22794  0.10230  1.0000
  H   H1164     1.0  0.87586  0.21751  0.06628  1.0000
  C   C1449     1.0  0.95494  0.16448  0.22868  1.0000
  H   H1165     1.0  0.92559  0.16295  0.13757  1.0000
  C   C1450     1.0  0.93900  0.16808  0.32292  1.0000
  H   H1166     1.0  0.95250  0.19837  0.28524  1.0000
  H   H1167     1.0  0.67576  0.18986  0.12845  1.0000
  H   H1168     1.0  0.98757  0.12468  0.17409  1.0000
  C   C1451     1.0  0.86321  0.13724  0.12475  1.0000
  H   H1169     1.0  0.99251  0.23094  0.06667  1.0000
  H   H1170     1.0  0.95890  0.16768  0.27550  1.0000
  C   C1452     1.0  0.83165  0.23679  0.10216  1.0000
  H   H1171     1.0  0.78118  0.16780  0.12840  1.0000
  H   H1172     1.0  0.96973  0.01992  0.42094  1.0000
  H   H1173     1.0  0.96150  0.19956  0.17942  1.0000
  H   H1174     1.0  0.72032  0.18076  0.17971  1.0000
  C   C1453     1.0  0.50783  0.12011  0.02176  1.0000
  C   C1454     1.0  0.84250  0.16263  0.13505  1.0000
  H   H1175     1.0  0.95351  0.16347  0.21573  1.0000
  C   C1455     1.0  0.50067  0.12552  0.98778  1.0000
  H   H1176     1.0  0.92945  0.20156  0.19434  1.0000
  C   C1456     1.0  0.72445  0.19275  0.05744  1.0000
  C   C1457     1.0  0.74273  0.19358  0.05117  1.0000
  H   H1177     1.0  0.82112  0.17352  0.08081  1.0000
  C   C1458     1.0  0.93972  0.17029  0.24081  1.0000
  C   C1459     1.0  0.69841  0.22456  0.18637  1.0000
  S   S204      1.0  0.86106  0.19985  0.19701  1.0000
  H   H1178     1.0  0.81291  0.16255  0.11313  1.0000
  H   H1179     1.0  0.76554  0.19514  0.07869  1.0000
  C   C1460     1.0  0.92163  0.07452  0.35429  1.0000
  H   H1180     1.0  0.94359  0.05229  0.35731  1.0000
  C   C1461     1.0  0.97170  0.23053  0.13406  1.0000
  C   C1462     1.0  0.85960  0.21564  0.37312  1.0000
  H   H1181     1.0  0.85605  0.22074  0.38526  1.0000
  H   H1182     1.0  0.75243  0.18160  0.04868  1.0000
  C   C1463     1.0  0.71493  0.22414  0.01327  1.0000
  H   H1183     1.0  0.95510  0.19196  0.15604  1.0000
  C   C1464     1.0  0.92282  0.21314  0.08145  1.0000
  S   S205      1.0  0.82286  0.19276  0.19233  1.0000
  S   S206      1.0  0.96184  0.16013  0.14188  1.0000
  C   C1465     1.0  0.77907  0.21657  0.20467  1.0000
  C   C1466     1.0  0.91035  0.18734  0.14600  1.0000
  C   C1467     1.0  0.97657  0.05495  0.32300  1.0000
  H   H1184     1.0  0.72205  0.17790  0.14897  1.0000
  H   H1185     1.0  0.70759  0.19937  0.02876  1.0000
  C   C1468     1.0  0.94219  0.17607  0.14631  1.0000
  C   C1469     1.0  0.75367  0.22618  0.98692  1.0000
  H   H1186     1.0  0.91372  0.20202  0.10890  1.0000
  C   C1470     1.0  0.93723  0.16303  0.07862  1.0000
  H   H1187     1.0  0.98233  0.16488  0.31762  1.0000
  S   S207      1.0  0.98652  0.99302  0.30462  1.0000
  C   C1471     1.0  0.98110  0.19133  0.10507  1.0000
  C   C1472     1.0  0.94859  0.22738  0.07520  1.0000
  H   H1188     1.0  0.79728  0.18977  0.06364  1.0000
  H   H1189     1.0  0.93492  0.22537  0.05537  1.0000
  P   P48       1.0  0.96739  0.22820  0.10083  1.0000
  C   C1473     1.0  0.73500  0.20764  0.10584  1.0000
  Fe  Fe106     1.0  0.90195  0.21433  0.29249  1.0000
  P   P49       1.0  0.74778  0.18692  0.11600  1.0000
  C   C1474     1.0  0.74621  0.18904  0.13846  1.0000
  C   C1475     1.0  0.73895  0.16798  0.11508  1.0000
  C   C1476     1.0  0.74191  0.15189  0.12736  1.0000
  C   C1477     1.0  0.73528  0.13711  0.12645  1.0000
  C   C1478     1.0  0.72588  0.13826  0.11315  1.0000
  C   C1479     1.0  0.72326  0.15412  0.10065  1.0000
  C   C1480     1.0  0.72994  0.16885  0.10150  1.0000
  H   H1190     1.0  0.98282  0.09651  0.32453  1.0000
  H   H1191     1.0  0.95177  0.15894  0.07612  1.0000
  C   C1481     1.0  0.74381  0.19272  0.17330  1.0000
  C   C1482     1.0  0.73104  0.18525  0.16931  1.0000
  C   C1483     1.0  0.73213  0.18353  0.15191  1.0000
  C   C1484     1.0  0.77103  0.18263  0.10481  1.0000
  C   C1485     1.0  0.77575  0.18825  0.08642  1.0000
  C   C1486     1.0  0.79377  0.18507  0.07782  1.0000
  C   C1487     1.0  0.80717  0.17589  0.08745  1.0000
  C   C1488     1.0  0.80252  0.16966  0.10566  1.0000
  C   C1489     1.0  0.78450  0.17284  0.11430  1.0000
  C   C1490     1.0  0.94264  0.19061  0.15332  1.0000
  H   H1192     1.0  0.95943  0.14438  0.32747  1.0000
  H   H1193     1.0  0.74309  0.19394  0.18678  1.0000
  H   H1194     1.0  0.75777  0.22086  0.09551  1.0000
  C   C1491     1.0  0.84658  0.18304  0.04514  1.0000
  H   H1195     1.0  0.74943  0.15071  0.13755  1.0000
  H   H1196     1.0  0.73756  0.12471  0.13597  1.0000
  H   H1197     1.0  0.72078  0.12682  0.11240  1.0000
  H   H1198     1.0  0.71615  0.15503  0.09019  1.0000
  H   H1199     1.0  0.72811  0.18089  0.09150  1.0000
  Fe  Fe107     1.0  0.83096  0.20308  0.16327  1.0000
  C   C1492     1.0  0.71757  0.22443  0.05745  1.0000
  S   S208      1.0  0.52047  0.17936  0.98057  1.0000
  H   H1200     1.0  0.92470  0.11846  0.34512  1.0000
  H   H1201     1.0  0.84660  0.19302  0.38491  1.0000
  C   C1493     1.0  0.97187  0.16006  0.23328  1.0000
  C   C1494     1.0  0.73587  0.22524  0.05149  1.0000
  C   C1495     1.0  0.86876  0.20154  0.34223  1.0000
  H   H1202     1.0  0.97731  0.04464  0.30000  1.0000
  H   H1203     1.0  0.76924  0.20193  0.13223  1.0000
  H   H1204     1.0  0.83136  0.16798  0.14468  1.0000
  C   C1496     1.0  0.91200  0.22478  0.35157  1.0000
  C   C1497     1.0  0.93536  0.22231  0.06933  1.0000
  C   C1498     1.0  0.97105  0.02888  0.40815  1.0000
  Fe  Fe108     1.0  0.90207  0.21979  0.25337  1.0000
  C   C1499     1.0  0.90929  0.17399  0.06777  1.0000
  C   C1500     1.0  0.95965  0.23394  0.12253  1.0000
  C   C1501     1.0  0.81198  0.22194  0.09396  1.0000
  H   H1205     1.0  0.93897  0.20960  0.34675  1.0000
  H   H1206     1.0  0.90142  0.17898  0.22210  1.0000
  H   H1207     1.0  0.84518  0.18846  0.11902  1.0000
  C   C1502     1.0  0.83935  0.22699  0.23561  1.0000
  H   H1208     1.0  0.87530  0.22462  0.12681  1.0000
  C   C1503     1.0  0.71620  0.21002  0.10822  1.0000
  H   H1209     1.0  0.83959  0.18327  0.03479  1.0000
  C   C1504     1.0  0.96462  0.22085  0.27024  1.0000
  H   H1210     1.0  0.87959  0.15689  0.06638  1.0000
  H   H1211     1.0  0.94904  0.20677  0.31409  1.0000
  H   H1212     1.0  0.84282  0.13527  0.14858  1.0000
  C   C1505     1.0  0.92339  0.20914  0.09944  1.0000
  C   C1506     1.0  0.86923  0.16832  0.06293  1.0000
  C   C1507     1.0  0.89961  0.17373  0.08518  1.0000
  C   C1508     1.0  0.87438  0.20416  0.09379  1.0000
  C   C1509     1.0  0.94854  0.10904  0.18728  1.0000
  H   H1213     1.0  0.90826  0.14904  0.24105  1.0000
  C   C1510     1.0  0.84893  0.14416  0.13722  1.0000
  C   C1511     1.0  0.65835  0.21488  0.12063  1.0000
  C   C1512     1.0  0.87133  0.14883  0.11035  1.0000
  H   H1214     1.0  0.86807  0.12289  0.12637  1.0000
  S   S209      1.0  0.96036  0.07548  0.24251  1.0000
  P   P50       1.0  0.87568  0.18218  0.08962  1.0000
  H   H1215     1.0  0.95936  0.23386  0.31565  1.0000
  C   C1513     1.0  0.85051  0.17422  0.12060  1.0000
  H   H1216     1.0  0.51038  0.11841  0.03496  1.0000
  C   C1514     1.0  0.68179  0.19491  0.19999  1.0000
  H   H1217     1.0  0.87267  0.19596  0.33028  1.0000
  H   H1218     1.0  0.93548  0.16868  0.05109  1.0000
  H   H1219     1.0  0.85480  0.18054  0.35744  1.0000
  H   H1220     1.0  0.78157  0.20418  0.21415  1.0000
  Fe  Fe109     1.0  0.86814  0.23256  0.27821  1.0000
  C   C1515     1.0  0.87409  0.21729  0.34232  1.0000
  H   H1221     1.0  0.90245  0.09911  0.34955  1.0000
  H   H1222     1.0  0.66790  0.20434  0.17826  1.0000
  C   C1516     1.0  0.71789  0.23548  0.14460  1.0000
  P   P51       1.0  0.97545  0.06704  0.35367  1.0000
  H   H1223     1.0  0.88483  0.22605  0.19226  1.0000
  C   C1517     1.0  0.96988  0.05891  0.39051  1.0000
  H   H1224     1.0  0.84642  0.20773  0.07484  1.0000
  H   H1225     1.0  0.98352  0.15536  0.22381  1.0000
  C   C1518     1.0  0.86024  0.16855  0.04956  1.0000
  C   C1519     1.0  0.87555  0.21885  0.07962  1.0000
  H   H1226     1.0  0.69690  0.18899  0.22083  1.0000
  C   C1520     1.0  0.96936  0.20730  0.20018  1.0000
  H   H1227     1.0  0.98218  0.03755  0.26228  1.0000
  H   H1228     1.0  0.96734  0.18943  0.10793  1.0000
  C   C1521     1.0  0.78232  0.21632  0.18664  1.0000
  H   H1229     1.0  0.97494  0.23098  0.16016  1.0000
  H   H1230     1.0  0.86380  0.15745  0.04265  1.0000
  C   C1522     1.0  0.74344  0.22205  0.09684  1.0000
  C   C1523     1.0  0.90899  0.16852  0.09922  1.0000
  C   C1524     1.0  0.97436  0.08477  0.18333  1.0000
  Fe  Fe110     1.0  0.66926  0.23287  0.06150  1.0000
  C   C1525     1.0  0.95721  0.21012  0.28581  1.0000
  C   C1526     1.0  0.70227  0.21286  0.20192  1.0000
  H   H1231     1.0  0.90188  0.16906  0.11268  1.0000
  H   H1232     1.0  0.52013  0.14258  0.97991  1.0000
  C   C1527     1.0  0.82169  0.23398  0.23312  1.0000
  H   H1233     1.0  0.68799  0.20145  0.14855  1.0000
  S   S210      1.0  0.83934  0.22724  0.16677  1.0000
  C   C1528     1.0  0.85065  0.19691  0.06766  1.0000
  H   H1234     1.0  0.97769  0.12532  0.25168  1.0000
  H   H1235     1.0  0.51963  0.04835  0.00024  1.0000
  H   H1236     1.0  0.53140  0.22141  0.03576  1.0000
  C   C1529     1.0  0.97441  0.05199  0.37493  1.0000
  H   H1237     1.0  0.65344  0.20991  0.11141  1.0000
  H   H1238     1.0  0.93494  0.15926  0.10681  1.0000
  H   H1239     1.0  0.96719  0.00277  0.33808  1.0000
  C   C1530     1.0  0.82801  0.22744  0.11969  1.0000
  C   C1531     1.0  0.86959  0.22450  0.35771  1.0000
  C   C1532     1.0  0.97504  0.02192  0.39273  1.0000
  C   C1533     1.0  0.98516  0.20851  0.10164  1.0000
  S   S211      1.0  0.51201  0.16560  0.03284  1.0000
  C   C1534     1.0  0.95704  0.20348  0.19212  1.0000
  H   H1240     1.0  0.97940  0.09351  0.26411  1.0000
  H   H1241     1.0  0.95489  0.13555  0.18113  1.0000
  C   C1535     1.0  0.68656  0.22126  0.17725  1.0000
  C   C1536     1.0  0.98449  0.04449  0.31014  1.0000
  H   H1242     1.0  0.92827  0.99236  0.33429  1.0000
  C   C1537     1.0  0.68486  0.22792  0.99839  1.0000
  H   H1243     1.0  0.99157  0.16291  0.10862  1.0000
  C   C1538     1.0  0.96106  0.23010  0.30299  1.0000
  H   H1244     1.0  0.74618  0.23438  0.13400  1.0000
  C   C1539     1.0  0.67772  0.21017  0.14173  1.0000
  H   H1245     1.0  0.72017  0.22299  0.15388  1.0000
  S   S212      1.0  0.91995  0.22622  0.26823  1.0000
  C   C1540     1.0  0.94926  0.22341  0.09329  1.0000
  H   H1246     1.0  0.98345  0.13027  0.21252  1.0000
  H   H1247     1.0  0.98214  0.14759  0.29552  1.0000
  S   S213      1.0  0.99202  0.20535  0.18976  1.0000
  H   H1248     1.0  0.91276  0.20901  0.07689  1.0000
  C   C1541     1.0  0.65251  0.23276  0.12245  1.0000
  H   H1249     1.0  0.70800  0.23632  0.06002  1.0000
  C   C1542     1.0  0.93052  0.22151  0.35106  1.0000
  H   H1250     1.0  0.97988  0.07062  0.18408  1.0000
  C   C1543     1.0  0.98953  0.08330  0.35006  1.0000
  C   C1544     1.0  0.96571  0.23440  0.15106  1.0000
  C   C1545     1.0  0.82364  0.23409  0.08927  1.0000
  C   C1546     1.0  0.83160  0.23556  0.26440  1.0000
  C   C1547     1.0  0.98582  0.09708  0.17822  1.0000
  H   H1251     1.0  0.93076  0.99563  0.36383  1.0000
  C   C1548     1.0  0.98847  0.15920  0.29136  1.0000
  C   C1549     1.0  0.95526  0.21485  0.30214  1.0000
  C   C1550     1.0  0.84433  0.22792  0.25117  1.0000
  H   H1252     1.0  0.83421  0.22965  0.12957  1.0000
  H   H1253     1.0  0.98571  0.22468  0.13005  1.0000
  H   H1254     1.0  0.88218  0.22363  0.33049  1.0000
  C   C1551     1.0  0.98851  0.16901  0.30391  1.0000
  H   H1255     1.0  0.85804  0.22256  0.25293  1.0000
  C   C1552     1.0  0.49532  0.11156  0.01885  1.0000
  C   C1553     1.0  0.53045  0.23582  0.03288  1.0000
  H   H1256     1.0  0.79813  0.21803  0.98872  1.0000
  C   C1554     1.0  0.97004  0.23647  0.27094  1.0000
  S   S214      1.0  0.83796  0.23772  0.28342  1.0000
  C   C1555     1.0  0.73338  0.23820  0.08942  1.0000
  C   C1556     1.0  0.99343  0.07841  0.22221  1.0000
  H   H1257     1.0  0.74017  0.23781  0.04941  1.0000
  H   H1258     1.0  0.99407  0.06503  0.25769  1.0000
  H   H1259     1.0  0.95831  0.23420  0.06553  1.0000
  C   C1557     1.0  0.87659  0.23546  0.08248  1.0000
  C   C1558     1.0  0.87663  0.23750  0.09948  1.0000
  P   P52       1.0  0.99486  0.15252  0.25720  1.0000
  C   C1559     1.0  0.99486  0.17615  0.10543  1.0000
  S   S215      1.0  0.56071  0.18941  0.96269  1.0000
  C   C1560     1.0  0.51447  0.17068  0.89321  1.0000
  C   C1561     1.0  0.59555  0.21102  0.90990  1.0000
  C   C1562     1.0  0.51795  0.11395  0.93030  1.0000
  H   H1260     1.0  0.52263  0.20671  0.81036  1.0000
  C   C1563     1.0  0.54435  0.11542  0.94140  1.0000
  H   H1261     1.0  0.54487  0.15494  0.91081  1.0000
  C   C1564     1.0  0.56509  0.23497  0.96256  1.0000
  C   C1565     1.0  0.53500  0.10619  0.93445  1.0000
  C   C1566     1.0  0.51518  0.18469  0.90105  1.0000
  H   H1262     1.0  0.61372  0.19934  0.92802  1.0000
  C   C1567     1.0  0.54688  0.06666  0.84656  1.0000
  H   H1263     1.0  0.54120  0.09285  0.93213  1.0000
  Fe  Fe111     1.0  0.53319  0.20347  0.97393  1.0000
  H   H1264     1.0  0.54277  0.15557  0.84042  1.0000
  C   C1568     1.0  0.55811  0.01543  0.88195  1.0000
  C   C1569     1.0  0.58359  0.17174  0.87453  1.0000
  C   C1570     1.0  0.51942  0.23046  0.93878  1.0000
  S   S216      1.0  0.51861  0.22986  0.96119  1.0000
  H   H1265     1.0  0.51264  0.11601  0.85929  1.0000
  C   C1571     1.0  0.53316  0.13981  0.87642  1.0000
  C   C1572     1.0  0.55182  0.02465  0.86643  1.0000
  C   C1573     1.0  0.51973  0.14065  0.94093  1.0000
  C   C1574     1.0  0.57124  0.16106  0.90530  1.0000
  H   H1266     1.0  0.54421  0.21122  0.93543  1.0000
  H   H1267     1.0  0.54488  0.05392  0.88953  1.0000
  C   C1575     1.0  0.52147  0.20593  0.83787  1.0000
  C   C1576     1.0  0.51479  0.07110  0.84811  1.0000
  C   C1577     1.0  0.49879  0.16342  0.89784  1.0000
  C   C1578     1.0  0.54303  0.10779  0.88600  1.0000
  C   C1579     1.0  0.52568  0.19846  0.82275  1.0000
  S   S217      1.0  0.55049  0.14351  0.95325  1.0000
  C   C1580     1.0  0.51497  0.08809  0.83740  1.0000
  C   C1581     1.0  0.53409  0.22039  0.91128  1.0000
  H   H1268     1.0  0.53226  0.06411  0.91796  1.0000
  H   H1269     1.0  0.54495  0.21197  0.90395  1.0000
  H   H1270     1.0  0.59733  0.16824  0.89604  1.0000
  H   H1271     1.0  0.57987  0.99709  0.89292  1.0000
  H   H1272     1.0  0.53107  0.10775  0.82330  1.0000
  C   C1582     1.0  0.53355  0.18034  0.82372  1.0000
  H   H1273     1.0  0.59440  0.17653  0.86447  1.0000
  H   H1274     1.0  0.55805  0.22838  0.95658  1.0000
  S   S218      1.0  0.50728  0.10075  0.92134  1.0000
  S   S219      1.0  0.51987  0.23029  0.88139  1.0000
  C   C1583     1.0  0.52456  0.19518  0.85407  1.0000
  C   C1584     1.0  0.53206  0.10435  0.87616  1.0000
  C   C1585     1.0  0.52013  0.23121  0.90313  1.0000
  C   C1586     1.0  0.54357  0.12545  0.88619  1.0000
  C   C1587     1.0  0.60788  0.21154  0.91986  1.0000
  C   C1588     1.0  0.56796  0.17026  0.86974  1.0000
  C   C1589     1.0  0.51586  0.02672  0.86160  1.0000
  C   C1590     1.0  0.53149  0.17679  0.85541  1.0000
  H   H1275     1.0  0.54993  0.01676  0.89486  1.0000
  H   H1276     1.0  0.59877  0.99301  0.86364  1.0000
  C   C1591     1.0  0.55383  0.16419  0.88274  1.0000
  C   C1592     1.0  0.55562  0.15959  0.90055  1.0000
  C   C1593     1.0  0.53144  0.05217  0.89638  1.0000
  H   H1277     1.0  0.51252  0.00868  0.88703  1.0000
  C   C1594     1.0  0.54704  0.08370  0.83586  1.0000
  H   H1278     1.0  0.53688  0.17457  0.81197  1.0000
  C   C1595     1.0  0.57504  0.00414  0.88091  1.0000
  H   H1279     1.0  0.55061  0.09680  0.89404  1.0000
  C   C1596     1.0  0.52174  0.13620  0.86701  1.0000
  C   C1597     1.0  0.53667  0.16956  0.83994  1.0000
  H   H1280     1.0  0.55177  0.12777  0.89430  1.0000
  H   H1281     1.0  0.59171  0.19846  0.91046  1.0000
  H   H1282     1.0  0.49766  0.15277  0.89195  1.0000
  H   H1283     1.0  0.56689  0.17397  0.85593  1.0000
  C   C1598     1.0  0.52441  0.05787  0.91250  1.0000
  C   C1599     1.0  0.53359  0.21983  0.92916  1.0000
  H   H1284     1.0  0.50090  0.20254  0.91882  1.0000
  P   P53       1.0  0.53332  0.16270  0.87687  1.0000
  C   C1600     1.0  0.53074  0.06015  0.85255  1.0000
  C   C1601     1.0  0.58523  0.16713  0.89231  1.0000
  C   C1602     1.0  0.56242  0.02199  0.84993  1.0000
  C   C1603     1.0  0.52147  0.11857  0.86664  1.0000
  H   H1285     1.0  0.53127  0.09070  0.87638  1.0000
  H   H1286     1.0  0.51530  0.21996  0.83719  1.0000
  H   H1287     1.0  0.57240  0.15750  0.91912  1.0000
  H   H1288     1.0  0.57796  0.22607  0.89233  1.0000
  C   C1604     1.0  0.58782  0.22676  0.89954  1.0000
  C   C1605     1.0  0.57935  0.01069  0.84894  1.0000
  P   P54       1.0  0.52984  0.03885  0.86747  1.0000
  C   C1606     1.0  0.50943  0.01239  0.87389  1.0000
  C   C1607     1.0  0.52098  0.04477  0.88896  1.0000
  H   H1289     1.0  0.55754  0.10899  0.94420  1.0000
  H   H1290     1.0  0.55926  0.05882  0.85041  1.0000
  H   H1291     1.0  0.55945  0.08878  0.83140  1.0000
  H   H1292     1.0  0.52691  0.19084  0.89741  1.0000
  C   C1608     1.0  0.53689  0.13267  0.94498  1.0000
  H   H1293     1.0  0.51381  0.15409  0.94306  1.0000
  H   H1294     1.0  0.51285  0.14701  0.86010  1.0000
  H   H1295     1.0  0.50209  0.06669  0.85344  1.0000
  C   C1609     1.0  0.51040  0.13140  0.93360  1.0000
  C   C1610     1.0  0.58354  0.22924  0.96202  1.0000
  H   H1296     1.0  0.52112  0.20118  0.86563  1.0000
  H   H1297     1.0  0.59075  0.21786  0.95603  1.0000
  C   C1611     1.0  0.61235  0.22785  0.91960  1.0000
  C   C1612     1.0  0.53109  0.09439  0.83126  1.0000
  H   H1298     1.0  0.51815  0.04079  0.83432  1.0000
  H   H1299     1.0  0.60663  0.23246  0.97036  1.0000
  H   H1300     1.0  0.50066  0.18797  0.94954  1.0000
  C   C1613     1.0  0.51245  0.03055  0.84435  1.0000
  C   C1614     1.0  0.50327  0.04353  0.89774  1.0000
  C   C1615     1.0  0.50690  0.05626  0.92130  1.0000
  Fe  Fe112     1.0  0.54805  0.16457  0.97074  1.0000
  C   C1616     1.0  0.49860  0.00296  0.86941  1.0000
  H   H1301     1.0  0.49732  0.13776  0.93064  1.0000
  C   C1617     1.0  0.58568  0.00181  0.86442  1.0000
  H   H1302     1.0  0.62169  0.22826  0.92756  1.0000
  H   H1303     1.0  0.50131  0.06121  0.93352  1.0000
  H   H1304     1.0  0.58751  0.00872  0.83616  1.0000
  H   H1305     1.0  0.55757  0.02862  0.83784  1.0000
  C   C1618     1.0  0.50048  0.19133  0.91329  1.0000
  H   H1306     1.0  0.50249  0.09662  0.83432  1.0000
  C   C1619     1.0  0.49637  0.04901  0.91395  1.0000
  C   C1620     1.0  0.50158  0.02113  0.83992  1.0000
  H   H1307     1.0  0.49813  0.12782  0.97452  1.0000
  H   H1308     1.0  0.49854  0.02443  0.82676  1.0000
  C   C1621     1.0  0.59247  0.23748  0.97015  1.0000
  H   H1309     1.0  0.49597  0.06182  0.81889  1.0000
  C   C1622     1.0  0.67759  0.44369  0.08017  1.0000
  C   C1623     1.0  0.92318  0.44520  0.28288  1.0000
  C   C1624     1.0  0.79451  0.27806  0.13212  1.0000
  H   H1310     1.0  0.90039  0.26452  0.36578  1.0000
  H   H1311     1.0  0.94297  0.24449  0.16993  1.0000
  C   C1625     1.0  0.97924  0.27238  0.25338  1.0000
  H   H1312     1.0  0.97088  0.25779  0.18940  1.0000
  H   H1313     1.0  0.87359  0.41488  0.35122  1.0000
  P   P55       1.0  0.60348  0.34554  0.05443  1.0000
  C   C1626     1.0  0.59942  0.30994  0.06808  1.0000
  C   C1627     1.0  0.84630  0.39510  0.41237  1.0000
  C   C1628     1.0  0.66929  0.42810  0.06136  1.0000
  H   H1314     1.0  0.63952  0.35263  0.98225  1.0000
  H   H1315     1.0  0.57501  0.33991  0.03958  1.0000
  C   C1629     1.0  0.91329  0.37771  0.41078  1.0000
  Fe  Fe113     1.0  0.79043  0.27042  0.02016  1.0000
  S   S220      1.0  0.76305  0.26384  0.03164  1.0000
  S   S221      1.0  0.79819  0.28557  0.99249  1.0000
  Fe  Fe114     1.0  0.76655  0.27069  0.05632  1.0000
  S   S222      1.0  0.74385  0.28463  0.07459  1.0000
  H   H1316     1.0  0.93212  0.24521  0.11927  1.0000
  H   H1317     1.0  0.65493  0.25345  0.13455  1.0000
  S   S223      1.0  0.79263  0.27975  0.04385  1.0000
  H   H1318     1.0  0.57562  0.32648  0.99319  1.0000
  S   S224      1.0  0.67574  0.25967  0.05944  1.0000
  Fe  Fe115     1.0  0.66242  0.26774  0.03584  1.0000
  S   S225      1.0  0.67328  0.28571  0.01088  1.0000
  Fe  Fe116     1.0  0.73206  0.37543  0.98981  1.0000
  S   S226      1.0  0.72867  0.36708  0.01931  1.0000
  C   C1630     1.0  0.89564  0.38121  0.40775  1.0000
  Fe  Fe117     1.0  0.69933  0.40599  0.99194  1.0000
  S   S227      1.0  0.69310  0.39998  0.02147  1.0000
  C   C1631     1.0  0.53959  0.24408  0.01672  1.0000
  Fe  Fe118     1.0  0.72280  0.39644  0.01943  1.0000
  S   S228      1.0  0.73481  0.41071  0.03364  1.0000
  Fe  Fe119     1.0  0.69943  0.37127  0.01837  1.0000
  S   S229      1.0  0.68223  0.35264  0.03651  1.0000
  S   S230      1.0  0.72859  0.40454  0.98997  1.0000
  S   S231      1.0  0.70316  0.37751  0.98876  1.0000
  Fe  Fe120     1.0  0.73990  0.34259  0.13301  1.0000
  S   S232      1.0  0.72444  0.32899  0.15813  1.0000
  S   S233      1.0  0.76639  0.32792  0.12050  1.0000
  Fe  Fe121     1.0  0.71115  0.37582  0.13073  1.0000
  S   S234      1.0  0.69375  0.36419  0.15578  1.0000
  S   S235      1.0  0.70327  0.40377  0.11566  1.0000
  Fe  Fe122     1.0  0.71981  0.35573  0.16661  1.0000
  S   S236      1.0  0.72488  0.35979  0.19320  1.0000
  Fe  Fe123     1.0  0.70063  0.33883  0.14402  1.0000
  S   S237      1.0  0.68027  0.32204  0.14136  1.0000
  S   S238      1.0  0.73644  0.36846  0.14178  1.0000
  S   S239      1.0  0.71676  0.35157  0.11875  1.0000
  Fe  Fe124     1.0  0.78106  0.40700  0.24216  1.0000
  S   S240      1.0  0.76897  0.39061  0.26735  1.0000
  S   S241      1.0  0.77601  0.40130  0.21630  1.0000
  Fe  Fe125     1.0  0.79777  0.42676  0.26406  1.0000
  S   S242      1.0  0.78567  0.41088  0.28973  1.0000
  S   S243      1.0  0.81247  0.44852  0.26670  1.0000
  Fe  Fe126     1.0  0.79506  0.38750  0.27596  1.0000
  S   S244      1.0  0.80813  0.36062  0.28991  1.0000
  Fe  Fe127     1.0  0.76109  0.41600  0.27794  1.0000
  S   S245      1.0  0.73197  0.42435  0.29027  1.0000
  S   S246      1.0  0.80815  0.40281  0.25024  1.0000
  S   S247      1.0  0.77225  0.43301  0.25254  1.0000
  Fe  Fe128     1.0  0.73861  0.41776  0.38552  1.0000
  S   S248      1.0  0.75266  0.38961  0.39371  1.0000
  S   S249      1.0  0.71480  0.42356  0.37226  1.0000
  Fe  Fe129     1.0  0.76296  0.43298  0.40011  1.0000
  S   S250      1.0  0.77931  0.40609  0.40967  1.0000
  S   S251      1.0  0.76873  0.45961  0.39997  1.0000
  Fe  Fe130     1.0  0.77810  0.40020  0.38380  1.0000
  S   S252      1.0  0.79989  0.38770  0.36402  1.0000
  Fe  Fe131     1.0  0.75234  0.39791  0.41890  1.0000
  S   S253      1.0  0.74480  0.37844  0.44391  1.0000
  S   S254      1.0  0.76412  0.42776  0.37340  1.0000
  S   S255      1.0  0.73599  0.42535  0.41166  1.0000
  C   C1632     1.0  0.92451  0.31362  0.19967  1.0000
  H   H1319     1.0  0.71182  0.25276  0.03000  1.0000
  H   H1320     1.0  0.94139  0.25412  0.25260  1.0000
  C   C1633     1.0  0.77140  0.24892  0.19804  1.0000
  H   H1321     1.0  0.84292  0.45004  0.47263  1.0000
  Fe  Fe132     1.0  0.92003  0.31545  0.33536  1.0000
  S   S256      1.0  0.92768  0.33986  0.31648  1.0000
  S   S257      1.0  0.93219  0.28745  0.33110  1.0000
  Fe  Fe133     1.0  0.89094  0.33716  0.35874  1.0000
  S   S258      1.0  0.89554  0.36352  0.34147  1.0000
  S   S259      1.0  0.87055  0.33667  0.38408  1.0000
  Fe  Fe134     1.0  0.89788  0.34975  0.31904  1.0000
  S   S260      1.0  0.88726  0.36333  0.29422  1.0000
  Fe  Fe135     1.0  0.92463  0.35127  0.34066  1.0000
  S   S261      1.0  0.94514  0.36553  0.34391  1.0000
  S   S262      1.0  0.89039  0.32453  0.33639  1.0000
  S   S263      1.0  0.91998  0.32561  0.35944  1.0000
  H   H1322     1.0  0.88993  0.31832  0.17876  1.0000
  C   C1634     1.0  0.92124  0.39766  0.34780  1.0000
  C   C1635     1.0  0.93915  0.38877  0.34358  1.0000
  C   C1636     1.0  0.77108  0.31657  0.40290  1.0000
  H   H1323     1.0  0.81417  0.32331  0.39442  1.0000
  H   H1324     1.0  0.91049  0.39016  0.35181  1.0000
  C   C1637     1.0  0.81890  0.37302  0.37032  1.0000
  C   C1638     1.0  0.82044  0.36715  0.38807  1.0000
  C   C1639     1.0  0.83636  0.35592  0.39242  1.0000
  C   C1640     1.0  0.85062  0.35069  0.37897  1.0000
  C   C1641     1.0  0.84878  0.35623  0.36129  1.0000
  C   C1642     1.0  0.83288  0.36723  0.35700  1.0000
  H   H1325     1.0  0.80943  0.37135  0.39836  1.0000
  H   H1326     1.0  0.83772  0.35146  0.40611  1.0000
  H   H1327     1.0  0.85953  0.35193  0.35087  1.0000
  H   H1328     1.0  0.83149  0.37145  0.34330  1.0000
  C   C1643     1.0  0.79159  0.45777  0.39960  1.0000
  C   C1644     1.0  0.80076  0.47070  0.38824  1.0000
  C   C1645     1.0  0.81891  0.46977  0.38816  1.0000
  C   C1646     1.0  0.82782  0.45619  0.39981  1.0000
  C   C1647     1.0  0.81863  0.44324  0.41122  1.0000
  C   C1648     1.0  0.80063  0.44379  0.41083  1.0000
  H   H1329     1.0  0.80387  0.41501  0.32957  1.0000
  H   H1330     1.0  0.82544  0.43270  0.42025  1.0000
  H   H1331     1.0  0.79361  0.43374  0.41963  1.0000
  C   C1649     1.0  0.76184  0.25205  0.99224  1.0000
  C   C1650     1.0  0.82992  0.36131  0.29183  1.0000
  C   C1651     1.0  0.83789  0.37579  0.28225  1.0000
  C   C1652     1.0  0.85552  0.37611  0.28301  1.0000
  C   C1653     1.0  0.86507  0.36235  0.29401  1.0000
  C   C1654     1.0  0.85699  0.34799  0.30403  1.0000
  C   C1655     1.0  0.83950  0.34733  0.30271  1.0000
  H   H1332     1.0  0.83059  0.38676  0.27411  1.0000
  H   H1333     1.0  0.86172  0.38717  0.27513  1.0000
  H   H1334     1.0  0.86436  0.33724  0.31242  1.0000
  H   H1335     1.0  0.83341  0.33608  0.31014  1.0000
  C   C1656     1.0  0.72761  0.42602  0.31262  1.0000
  C   C1657     1.0  0.74157  0.42409  0.32154  1.0000
  C   C1658     1.0  0.73781  0.42346  0.33987  1.0000
  C   C1659     1.0  0.72001  0.42513  0.34922  1.0000
  C   C1660     1.0  0.70601  0.42788  0.34011  1.0000
  C   C1661     1.0  0.70980  0.42844  0.32184  1.0000
  H   H1336     1.0  0.75523  0.42312  0.31431  1.0000
  H   H1337     1.0  0.74871  0.42157  0.34673  1.0000
  H   H1338     1.0  0.69221  0.42939  0.34724  1.0000
  H   H1339     1.0  0.69896  0.43049  0.31486  1.0000
  C   C1662     1.0  0.76205  0.38907  0.21035  1.0000
  C   C1663     1.0  0.76443  0.38745  0.19253  1.0000
  C   C1664     1.0  0.75355  0.37839  0.18709  1.0000
  C   C1665     1.0  0.73988  0.37070  0.19937  1.0000
  C   C1666     1.0  0.73772  0.37205  0.21724  1.0000
  C   C1667     1.0  0.74864  0.38108  0.22266  1.0000
  H   H1340     1.0  0.77473  0.39339  0.18276  1.0000
  H   H1341     1.0  0.75558  0.37760  0.17330  1.0000
  H   H1342     1.0  0.72731  0.36627  0.22700  1.0000
  H   H1343     1.0  0.74648  0.38211  0.23635  1.0000
  H   H1344     1.0  0.97301  0.25251  0.28849  1.0000
  C   C1668     1.0  0.68076  0.46974  0.99758  1.0000
  C   C1669     1.0  0.85822  0.26069  0.32972  1.0000
  C   C1670     1.0  0.71576  0.26557  0.02475  1.0000
  S   S264      1.0  0.82850  0.24582  0.06733  1.0000
  C   C1671     1.0  0.96312  0.29906  0.26495  1.0000
  C   C1672     1.0  0.94804  0.25461  0.23888  1.0000
  C   C1673     1.0  0.90082  0.24027  0.35692  1.0000
  H   H1345     1.0  0.66720  0.39921  0.99200  1.0000
  C   C1674     1.0  0.66484  0.25506  0.16632  1.0000
  C   C1675     1.0  0.72536  0.40866  0.05629  1.0000
  C   C1676     1.0  0.71761  0.39391  0.06567  1.0000
  C   C1677     1.0  0.71088  0.39226  0.08398  1.0000
  C   C1678     1.0  0.71161  0.40547  0.09280  1.0000
  C   C1679     1.0  0.71895  0.42039  0.08327  1.0000
  C   C1680     1.0  0.72592  0.42192  0.06509  1.0000
  H   H1346     1.0  0.71715  0.38362  0.05893  1.0000
  H   H1347     1.0  0.70489  0.38091  0.09123  1.0000
  H   H1348     1.0  0.71950  0.43063  0.09003  1.0000
  H   H1349     1.0  0.73182  0.43336  0.05784  1.0000
  C   C1681     1.0  0.65646  0.29295  0.10910  1.0000
  C   C1682     1.0  0.65486  0.30636  0.13466  1.0000
  C   C1683     1.0  0.67184  0.31109  0.12799  1.0000
  C   C1684     1.0  0.68101  0.30686  0.11138  1.0000
  C   C1685     1.0  0.67343  0.29786  0.10203  1.0000
  H   H1350     1.0  0.64718  0.30983  0.14705  1.0000
  H   H1351     1.0  0.69403  0.31031  0.10571  1.0000
  H   H1352     1.0  0.68074  0.29477  0.08935  1.0000
  C   C1686     1.0  0.67698  0.30395  0.01769  1.0000
  C   C1687     1.0  0.68524  0.31719  0.00557  1.0000
  C   C1688     1.0  0.68731  0.33217  0.01117  1.0000
  C   C1689     1.0  0.68125  0.33371  0.02895  1.0000
  C   C1690     1.0  0.67356  0.32014  0.04105  1.0000
  C   C1691     1.0  0.67116  0.30552  0.03540  1.0000
  H   H1353     1.0  0.69015  0.31571  0.99199  1.0000
  H   H1354     1.0  0.69352  0.34246  0.00179  1.0000
  H   H1355     1.0  0.66943  0.32081  0.05490  1.0000
  H   H1356     1.0  0.66461  0.29557  0.04486  1.0000
  C   C1692     1.0  0.75084  0.29578  0.08772  1.0000
  C   C1693     1.0  0.76851  0.29850  0.08436  1.0000
  C   C1694     1.0  0.77348  0.30822  0.09454  1.0000
  C   C1695     1.0  0.76087  0.31481  0.10836  1.0000
  C   C1696     1.0  0.74340  0.31156  0.11207  1.0000
  C   C1697     1.0  0.73834  0.30235  0.10163  1.0000
  H   H1357     1.0  0.77829  0.29336  0.07384  1.0000
  H   H1358     1.0  0.78700  0.31071  0.09171  1.0000
  H   H1359     1.0  0.73373  0.31607  0.12306  1.0000
  H   H1360     1.0  0.72463  0.30064  0.10420  1.0000
  C   C1698     1.0  0.78702  0.30795  0.98763  1.0000
  C   C1699     1.0  0.68643  0.36040  0.07731  1.0000
  C   C1700     1.0  0.94588  0.25802  0.20829  1.0000
  C   C1701     1.0  0.64470  0.26906  0.98547  1.0000
  C   C1702     1.0  0.76235  0.33256  0.99433  1.0000
  C   C1703     1.0  0.77219  0.31521  0.99948  1.0000
  C   C1704     1.0  0.97780  0.30744  0.25713  1.0000
  H   H1361     1.0  0.85066  0.44273  0.25274  1.0000
  H   H1362     1.0  0.75062  0.33791  0.00328  1.0000
  H   H1363     1.0  0.76800  0.30721  0.01232  1.0000
  H   H1364     1.0  0.79957  0.44463  0.18558  1.0000
  H   H1365     1.0  0.61589  0.37755  0.99195  1.0000
  H   H1366     1.0  0.95212  0.27550  0.26888  1.0000
  H   H1367     1.0  0.91693  0.38542  0.41855  1.0000
  C   C1705     1.0  0.87177  0.43378  0.26784  1.0000
  C   C1706     1.0  0.96858  0.24080  0.28747  1.0000
  C   C1707     1.0  0.71983  0.29349  0.02982  1.0000
  C   C1708     1.0  0.86433  0.28727  0.30810  1.0000
  H   H1368     1.0  0.86589  0.30439  0.36484  1.0000
  C   C1709     1.0  0.91262  0.44484  0.40093  1.0000
  H   H1369     1.0  0.75647  0.30788  0.42922  1.0000
  C   C1710     1.0  0.92609  0.28472  0.31219  1.0000
  C   C1711     1.0  0.85949  0.39866  0.32197  1.0000
  H   H1370     1.0  0.66048  0.34405  0.07227  1.0000
  S   S265      1.0  0.80559  0.24252  0.02837  1.0000
  C   C1712     1.0  0.55744  0.38097  0.06991  1.0000
  H   H1371     1.0  0.59183  0.37858  0.10338  1.0000
  H   H1372     1.0  0.74166  0.27722  0.19427  1.0000
  H   H1373     1.0  0.90961  0.23844  0.19578  1.0000
  C   C1713     1.0  0.57213  0.31254  0.04977  1.0000
  C   C1714     1.0  0.92709  0.24901  0.36129  1.0000
  C   C1715     1.0  0.56445  0.30386  0.99313  1.0000
  H   H1374     1.0  0.93273  0.34601  0.38560  1.0000
  S   S266      1.0  0.88315  0.24621  0.25281  1.0000
  H   H1375     1.0  0.91759  0.48756  0.28983  1.0000
  C   C1716     1.0  0.90473  0.35857  0.38954  1.0000
  H   H1376     1.0  0.99391  0.28705  0.05248  1.0000
  C   C1717     1.0  0.76625  0.47725  0.44689  1.0000
  H   H1377     1.0  0.76664  0.43400  0.44588  1.0000
  H   H1378     1.0  0.62852  0.43718  0.01714  1.0000
  H   H1379     1.0  0.78713  0.45350  0.44523  1.0000
  C   C1718     1.0  0.74850  0.37701  0.31334  1.0000
  C   C1719     1.0  0.75762  0.36084  0.30831  1.0000
  C   C1720     1.0  0.75051  0.34532  0.31553  1.0000
  C   C1721     1.0  0.73428  0.34598  0.32784  1.0000
  C   C1722     1.0  0.72498  0.36226  0.33281  1.0000
  C   C1723     1.0  0.73241  0.37767  0.32576  1.0000
  P   P56       1.0  0.70481  0.36314  0.34964  1.0000
  C   C1724     1.0  0.69360  0.34508  0.35107  1.0000
  C   C1725     1.0  0.71197  0.36182  0.36998  1.0000
  C   C1726     1.0  0.72034  0.34529  0.37882  1.0000
  C   C1727     1.0  0.72587  0.34418  0.39464  1.0000
  C   C1728     1.0  0.72328  0.35957  0.40159  1.0000
  C   C1729     1.0  0.71533  0.37610  0.39263  1.0000
  C   C1730     1.0  0.71004  0.37730  0.37672  1.0000
  C   C1731     1.0  0.68543  0.33622  0.36756  1.0000
  C   C1732     1.0  0.67636  0.32254  0.36849  1.0000
  C   C1733     1.0  0.67511  0.31784  0.35299  1.0000
  C   C1734     1.0  0.68280  0.32692  0.33651  1.0000
  C   C1735     1.0  0.69189  0.34059  0.33554  1.0000
  C   C1736     1.0  0.68844  0.38315  0.34415  1.0000
  C   C1737     1.0  0.68852  0.39178  0.32643  1.0000
  C   C1738     1.0  0.67539  0.40689  0.32223  1.0000
  C   C1739     1.0  0.66211  0.41350  0.33565  1.0000
  C   C1740     1.0  0.66172  0.40477  0.35327  1.0000
  C   C1741     1.0  0.67468  0.38951  0.35749  1.0000
  H   H1380     1.0  0.75413  0.38901  0.30791  1.0000
  H   H1381     1.0  0.77030  0.36035  0.29897  1.0000
  H   H1382     1.0  0.75771  0.33281  0.31165  1.0000
  H   H1383     1.0  0.72918  0.33378  0.33362  1.0000
  H   H1384     1.0  0.72590  0.39018  0.33003  1.0000
  H   H1385     1.0  0.72260  0.33328  0.37350  1.0000
  H   H1386     1.0  0.73225  0.33144  0.40149  1.0000
  H   H1387     1.0  0.72773  0.35885  0.41375  1.0000
  H   H1388     1.0  0.71362  0.38813  0.39783  1.0000
  H   H1389     1.0  0.70462  0.39040  0.36969  1.0000
  H   H1390     1.0  0.68581  0.34000  0.37970  1.0000
  H   H1391     1.0  0.67010  0.31573  0.38126  1.0000
  H   H1392     1.0  0.66796  0.30731  0.35374  1.0000
  H   H1393     1.0  0.68152  0.32349  0.32449  1.0000
  H   H1394     1.0  0.69747  0.34778  0.32269  1.0000
  H   H1395     1.0  0.69875  0.38701  0.31582  1.0000
  H   H1396     1.0  0.67578  0.41374  0.30858  1.0000
  H   H1397     1.0  0.65144  0.40991  0.36368  1.0000
  H   H1398     1.0  0.67404  0.38280  0.37120  1.0000
  C   C1742     1.0  0.63720  0.42274  0.04139  1.0000
  C   C1743     1.0  0.58779  0.30241  0.00912  1.0000
  C   C1744     1.0  0.53535  0.28781  0.97899  1.0000
  P   P57       1.0  0.97985  0.25000  0.25075  1.0000
  H   H1399     1.0  0.98921  0.25443  0.21176  1.0000
  C   C1745     1.0  0.87300  0.37855  0.46816  1.0000
  H   H1400     1.0  0.59681  0.30886  0.01279  1.0000
  C   C1746     1.0  0.97488  0.25484  0.21598  1.0000
  C   C1747     1.0  0.71175  0.46129  0.98259  1.0000
  C   C1748     1.0  0.57958  0.32753  0.04826  1.0000
  H   H1401     1.0  0.91128  0.30933  0.27501  1.0000
  C   C1749     1.0  0.61949  0.36551  0.00154  1.0000
  C   C1750     1.0  0.96680  0.25281  0.23400  1.0000
  H   H1402     1.0  0.90400  0.42798  0.22315  1.0000
  C   C1751     1.0  0.62193  0.33543  0.10054  1.0000
  C   C1752     1.0  0.85750  0.38984  0.47521  1.0000
  C   C1753     1.0  0.71234  0.46548  0.20077  1.0000
  C   C1754     1.0  0.63969  0.33790  0.09477  1.0000
  P   P58       1.0  0.72478  0.44306  0.19940  1.0000
  C   C1755     1.0  0.71900  0.42818  0.22033  1.0000
  C   C1756     1.0  0.71935  0.43542  0.18191  1.0000
  C   C1757     1.0  0.72116  0.41701  0.18273  1.0000
  C   C1758     1.0  0.71737  0.41085  0.16916  1.0000
  C   C1759     1.0  0.71185  0.42304  0.15456  1.0000
  C   C1760     1.0  0.71011  0.44141  0.15356  1.0000
  C   C1761     1.0  0.71386  0.44761  0.16716  1.0000
  C   C1762     1.0  0.72952  0.42423  0.23336  1.0000
  C   C1763     1.0  0.72441  0.41338  0.24975  1.0000
  C   C1764     1.0  0.70893  0.40615  0.25322  1.0000
  C   C1765     1.0  0.69851  0.40977  0.24026  1.0000
  C   C1766     1.0  0.70343  0.42083  0.22394  1.0000
  C   C1767     1.0  0.74848  0.44372  0.19473  1.0000
  C   C1768     1.0  0.76057  0.43479  0.18196  1.0000
  C   C1769     1.0  0.58211  0.39701  0.06085  1.0000
  H   H1403     1.0  0.58714  0.40920  0.05905  1.0000
  C   C1770     1.0  0.77334  0.45373  0.20049  1.0000
  C   C1771     1.0  0.75499  0.45336  0.20384  1.0000
  H   H1404     1.0  0.79514  0.24636  0.24481  1.0000
  C   C1772     1.0  0.66559  0.43629  0.09462  1.0000
  C   C1773     1.0  0.70038  0.24509  0.14360  1.0000
  H   H1405     1.0  0.69056  0.45721  0.22165  1.0000
  C   C1774     1.0  0.51749  0.28529  0.98230  1.0000
  H   H1406     1.0  0.72556  0.40739  0.19387  1.0000
  H   H1407     1.0  0.71877  0.39659  0.16994  1.0000
  H   H1408     1.0  0.70899  0.41820  0.14402  1.0000
  H   H1409     1.0  0.70590  0.45080  0.14217  1.0000
  H   H1410     1.0  0.71253  0.46186  0.16606  1.0000
  H   H1411     1.0  0.74176  0.42933  0.23103  1.0000
  H   H1412     1.0  0.73254  0.41056  0.25974  1.0000
  H   H1413     1.0  0.70507  0.39776  0.26594  1.0000
  H   H1414     1.0  0.68658  0.40405  0.24286  1.0000
  H   H1415     1.0  0.69506  0.42367  0.21414  1.0000
  C   C1775     1.0  0.71066  0.23925  0.00023  1.0000
  P   P59       1.0  0.89907  0.42238  0.28744  1.0000
  C   C1776     1.0  0.83126  0.45802  0.46743  1.0000
  H   H1416     1.0  0.77836  0.46073  0.20794  1.0000
  H   H1417     1.0  0.74593  0.46025  0.21384  1.0000
  H   H1418     1.0  0.57658  0.26164  0.01628  1.0000
  H   H1419     1.0  0.59732  0.33560  0.09288  1.0000
  H   H1420     1.0  0.64743  0.32478  0.00389  1.0000
  C   C1777     1.0  0.96448  0.25710  0.20320  1.0000
  H   H1421     1.0  0.80391  0.24781  0.27238  1.0000
  H   H1422     1.0  0.71897  0.46979  0.30120  1.0000
  C   C1778     1.0  0.68639  0.48576  0.21365  1.0000
  C   C1779     1.0  0.74665  0.27743  0.16617  1.0000
  H   H1423     1.0  0.93008  0.48772  0.33551  1.0000
  H   H1424     1.0  0.75854  0.26556  0.99462  1.0000
  C   C1780     1.0  0.57595  0.31227  0.99799  1.0000
  H   H1425     1.0  0.93721  0.31785  0.19766  1.0000
  C   C1781     1.0  0.59528  0.42168  0.10069  1.0000
  H   H1426     1.0  0.95981  0.42458  0.33378  1.0000
  C   C1782     1.0  0.73579  0.27969  0.18271  1.0000
  C   C1783     1.0  0.71721  0.28584  0.18437  1.0000
  C   C1784     1.0  0.70929  0.28988  0.16953  1.0000
  C   C1785     1.0  0.71990  0.28767  0.15303  1.0000
  C   C1786     1.0  0.73851  0.28164  0.15130  1.0000
  C   C1787     1.0  0.77995  0.28563  0.17085  1.0000
  C   C1788     1.0  0.79635  0.28019  0.17680  1.0000
  C   C1789     1.0  0.80348  0.29249  0.18190  1.0000
  C   C1790     1.0  0.79418  0.31019  0.18131  1.0000
  C   C1791     1.0  0.77809  0.31578  0.17498  1.0000
  C   C1792     1.0  0.77113  0.30359  0.16954  1.0000
  H   H1427     1.0  0.64823  0.33595  0.10425  1.0000
  C   C1793     1.0  0.63280  0.35145  0.99602  1.0000
  H   H1428     1.0  0.84889  0.41851  0.43731  1.0000
  C   C1794     1.0  0.73919  0.47331  0.31369  1.0000
  H   H1429     1.0  0.79883  0.28686  0.13815  1.0000
  H   H1430     1.0  0.86796  0.25100  0.41976  1.0000
  C   C1795     1.0  0.94638  0.37411  0.28894  1.0000
  C   C1796     1.0  0.73272  0.24186  0.13332  1.0000
  H   H1431     1.0  0.67169  0.42422  0.04867  1.0000
  H   H1432     1.0  0.84505  0.27197  0.30746  1.0000
  C   C1797     1.0  0.80174  0.27750  0.11431  1.0000
  H   H1433     1.0  0.70901  0.28802  0.19706  1.0000
  H   H1434     1.0  0.69505  0.29543  0.17063  1.0000
  H   H1435     1.0  0.71378  0.29139  0.14143  1.0000
  H   H1436     1.0  0.74640  0.28089  0.13823  1.0000
  C   C1798     1.0  0.89499  0.42950  0.23564  1.0000
  H   H1437     1.0  0.81606  0.28817  0.18661  1.0000
  H   H1438     1.0  0.79941  0.31959  0.18572  1.0000
  H   H1439     1.0  0.77100  0.32958  0.17417  1.0000
  C   C1799     1.0  0.99453  0.25864  0.05794  1.0000
  C   C1800     1.0  0.76319  0.30306  0.34715  1.0000
  C   C1801     1.0  0.77191  0.28517  0.35071  1.0000
  C   C1802     1.0  0.78597  0.28035  0.36002  1.0000
  C   C1803     1.0  0.79143  0.29344  0.36564  1.0000
  C   C1804     1.0  0.78296  0.31150  0.36184  1.0000
  C   C1805     1.0  0.76862  0.31621  0.35276  1.0000
  P   P60       1.0  0.79034  0.32828  0.36895  1.0000
  C   C1806     1.0  0.77960  0.33010  0.39147  1.0000
  C   C1807     1.0  0.81439  0.32145  0.36747  1.0000
  C   C1808     1.0  0.84395  0.31078  0.35082  1.0000
  C   C1809     1.0  0.82542  0.31668  0.35185  1.0000
  C   C1810     1.0  0.78018  0.34515  0.39781  1.0000
  C   C1811     1.0  0.77225  0.34675  0.41526  1.0000
  C   C1812     1.0  0.78452  0.34990  0.35502  1.0000
  C   C1813     1.0  0.76742  0.36055  0.35931  1.0000
  C   C1814     1.0  0.76313  0.37787  0.34965  1.0000
  C   C1815     1.0  0.77577  0.38458  0.33544  1.0000
  C   C1816     1.0  0.79252  0.37388  0.33063  1.0000
  C   C1817     1.0  0.79697  0.35664  0.34042  1.0000
  H   H1440     1.0  0.75229  0.30671  0.33996  1.0000
  H   H1441     1.0  0.72811  0.43978  0.99810  1.0000
  H   H1442     1.0  0.80234  0.28947  0.37286  1.0000
  H   H1443     1.0  0.76178  0.33001  0.34987  1.0000
  H   H1444     1.0  0.81977  0.31780  0.34036  1.0000
  H   H1445     1.0  0.78682  0.35568  0.38926  1.0000
  H   H1446     1.0  0.77278  0.35842  0.42006  1.0000
  H   H1447     1.0  0.75762  0.35583  0.37058  1.0000
  H   H1448     1.0  0.75027  0.38632  0.35358  1.0000
  H   H1449     1.0  0.77291  0.39827  0.32855  1.0000
  H   H1450     1.0  0.80246  0.37931  0.31989  1.0000
  H   H1451     1.0  0.81039  0.34920  0.33690  1.0000
  C   C1818     1.0  0.73265  0.32866  0.28615  1.0000
  C   C1819     1.0  0.72725  0.34729  0.28238  1.0000
  C   C1820     1.0  0.73942  0.35788  0.27186  1.0000
  C   C1821     1.0  0.75695  0.34990  0.26496  1.0000
  C   C1822     1.0  0.76247  0.33121  0.26862  1.0000
  C   C1823     1.0  0.75023  0.32065  0.27939  1.0000
  P   P61       1.0  0.78530  0.32061  0.26069  1.0000
  C   C1824     1.0  0.79839  0.33718  0.24780  1.0000
  C   C1825     1.0  0.79386  0.30853  0.28039  1.0000
  C   C1826     1.0  0.79411  0.31793  0.29328  1.0000
  C   C1827     1.0  0.80047  0.30893  0.30871  1.0000
  C   C1828     1.0  0.80631  0.29036  0.31159  1.0000
  C   C1829     1.0  0.80568  0.28078  0.29906  1.0000
  C   C1830     1.0  0.79936  0.28979  0.28357  1.0000
  C   C1831     1.0  0.81236  0.34084  0.25387  1.0000
  C   C1832     1.0  0.82165  0.35436  0.24404  1.0000
  C   C1833     1.0  0.81726  0.36414  0.22795  1.0000
  C   C1834     1.0  0.80370  0.36028  0.22160  1.0000
  C   C1835     1.0  0.79432  0.34685  0.23142  1.0000
  C   C1836     1.0  0.78609  0.30598  0.24599  1.0000
  C   C1837     1.0  0.80369  0.28411  0.22829  1.0000
  C   C1838     1.0  0.80276  0.29624  0.23895  1.0000
  H   H1452     1.0  0.72323  0.32043  0.29430  1.0000
  H   H1453     1.0  0.71367  0.35356  0.28761  1.0000
  H   H1454     1.0  0.73536  0.37234  0.26909  1.0000
  H   H1455     1.0  0.76612  0.35841  0.25691  1.0000
  H   H1456     1.0  0.75434  0.30620  0.28250  1.0000
  H   H1457     1.0  0.78969  0.33234  0.29120  1.0000
  H   H1458     1.0  0.80101  0.31648  0.31830  1.0000
  H   H1459     1.0  0.81142  0.28339  0.32346  1.0000
  H   H1460     1.0  0.81034  0.26635  0.30118  1.0000
  H   H1461     1.0  0.79895  0.28201  0.27417  1.0000
  H   H1462     1.0  0.81601  0.33366  0.26631  1.0000
  H   H1463     1.0  0.83189  0.35759  0.24922  1.0000
  H   H1464     1.0  0.82407  0.37500  0.22061  1.0000
  H   H1465     1.0  0.80005  0.36816  0.20930  1.0000
  H   H1466     1.0  0.78349  0.34441  0.22650  1.0000
  H   H1467     1.0  0.81650  0.27596  0.22358  1.0000
  H   H1468     1.0  0.81498  0.29777  0.24206  1.0000
  C   C1839     1.0  0.89857  0.44438  0.41567  1.0000
  C   C1840     1.0  0.82583  0.47436  0.27530  1.0000
  H   H1469     1.0  0.89579  0.45426  0.42393  1.0000
  C   C1841     1.0  0.66878  0.36098  0.10682  1.0000
  C   C1842     1.0  0.65711  0.37628  0.10017  1.0000
  H   H1470     1.0  0.64271  0.37993  0.02264  1.0000
  H   H1471     1.0  0.64926  0.37729  0.05205  1.0000
  H   H1472     1.0  0.66665  0.35544  0.12087  1.0000
  H   H1473     1.0  0.64609  0.38250  0.10931  1.0000
  C   C1843     1.0  0.87180  0.24833  0.39264  1.0000
  H   H1474     1.0  0.83812  0.27113  0.41968  1.0000
  C   C1844     1.0  0.71493  0.27678  0.03636  1.0000
  H   H1475     1.0  0.84672  0.38540  0.42462  1.0000
  C   C1845     1.0  0.66001  0.38365  0.08199  1.0000
  C   C1846     1.0  0.64091  0.39189  0.02797  1.0000
  H   H1476     1.0  0.83655  0.27323  0.26843  1.0000
  H   H1477     1.0  0.85070  0.24996  0.33439  1.0000
  C   C1847     1.0  0.74685  0.40324  0.46250  1.0000
  H   H1478     1.0  0.85351  0.24344  0.19664  1.0000
  H   H1479     1.0  0.80359  0.26643  0.17758  1.0000
  C   C1848     1.0  0.63586  0.34445  0.06431  1.0000
  P   P62       1.0  0.72540  0.25535  0.99184  1.0000
  C   C1849     1.0  0.65790  0.28387  0.17526  1.0000
  C   C1850     1.0  0.67037  0.27029  0.16785  1.0000
  C   C1851     1.0  0.78530  0.44468  0.18787  1.0000
  H   H1480     1.0  0.82505  0.27961  0.39264  1.0000
  H   H1481     1.0  0.66490  0.43871  0.10767  1.0000
  H   H1482     1.0  0.87115  0.43872  0.22422  1.0000
  H   H1483     1.0  0.93374  0.43473  0.27815  1.0000
  H   H1484     1.0  0.66215  0.29584  0.17595  1.0000
  C   C1852     1.0  0.56425  0.25697  0.97985  1.0000
  C   C1853     1.0  0.81738  0.30445  0.06072  1.0000
  C   C1854     1.0  0.82930  0.30858  0.06904  1.0000
  C   C1855     1.0  0.82727  0.32606  0.07152  1.0000
  C   C1856     1.0  0.81316  0.33936  0.06592  1.0000
  C   C1857     1.0  0.80070  0.33516  0.05814  1.0000
  C   C1858     1.0  0.80324  0.31773  0.05514  1.0000
  P   P63       1.0  0.78238  0.35226  0.05090  1.0000
  C   C1859     1.0  0.77720  0.36993  0.06343  1.0000
  C   C1860     1.0  0.78773  0.36016  0.02728  1.0000
  C   C1861     1.0  0.77415  0.37106  0.01853  1.0000
  C   C1862     1.0  0.77705  0.37496  0.00006  1.0000
  C   C1863     1.0  0.79351  0.36800  0.99016  1.0000
  C   C1864     1.0  0.80725  0.35743  0.99874  1.0000
  C   C1865     1.0  0.80441  0.35352  0.01724  1.0000
  C   C1866     1.0  0.77374  0.38805  0.05522  1.0000
  C   C1867     1.0  0.76855  0.40140  0.06539  1.0000
  C   C1868     1.0  0.76656  0.39679  0.08380  1.0000
  C   C1869     1.0  0.77028  0.37880  0.09204  1.0000
  C   C1870     1.0  0.77575  0.36546  0.08190  1.0000
  C   C1871     1.0  0.76253  0.34269  0.05465  1.0000
  C   C1872     1.0  0.74840  0.34528  0.06915  1.0000
  C   C1873     1.0  0.73293  0.33838  0.07142  1.0000
  C   C1874     1.0  0.73122  0.32899  0.05923  1.0000
  C   C1875     1.0  0.74521  0.32623  0.04485  1.0000
  C   C1876     1.0  0.76077  0.33308  0.04251  1.0000
  H   H1485     1.0  0.81904  0.29089  0.05872  1.0000
  H   H1486     1.0  0.84013  0.29821  0.07347  1.0000
  H   H1487     1.0  0.83659  0.32931  0.07784  1.0000
  H   H1488     1.0  0.81194  0.35285  0.06780  1.0000
  H   H1489     1.0  0.79417  0.31435  0.04870  1.0000
  H   H1490     1.0  0.76106  0.37599  0.02603  1.0000
  H   H1491     1.0  0.76624  0.38279  0.99346  1.0000
  H   H1492     1.0  0.94033  0.36270  0.40481  1.0000
  H   H1493     1.0  0.81990  0.35177  0.99105  1.0000
  H   H1494     1.0  0.81501  0.34480  0.02360  1.0000
  H   H1495     1.0  0.77457  0.39201  0.04108  1.0000
  H   H1496     1.0  0.76541  0.41531  0.05899  1.0000
  H   H1497     1.0  0.76182  0.40710  0.09170  1.0000
  H   H1498     1.0  0.76849  0.37510  0.10634  1.0000
  H   H1499     1.0  0.77817  0.35155  0.08852  1.0000
  H   H1500     1.0  0.74911  0.35243  0.07890  1.0000
  H   H1501     1.0  0.72250  0.33989  0.08299  1.0000
  H   H1502     1.0  0.71932  0.32335  0.06123  1.0000
  H   H1503     1.0  0.74403  0.31862  0.03564  1.0000
  H   H1504     1.0  0.77138  0.33090  0.03116  1.0000
  H   H1505     1.0  0.70097  0.28823  0.97906  1.0000
  H   H1506     1.0  0.68424  0.27177  0.16320  1.0000
  H   H1507     1.0  0.75954  0.44358  0.98052  1.0000
  H   H1508     1.0  0.92076  0.45503  0.39779  1.0000
  H   H1509     1.0  0.79091  0.47018  0.35422  1.0000
  H   H1510     1.0  0.93389  0.36472  0.27240  1.0000
  C   C1877     1.0  0.73309  0.46987  0.29988  1.0000
  C   C1878     1.0  0.63734  0.33582  0.00823  1.0000
  H   H1511     1.0  0.81152  0.28565  0.10693  1.0000
  C   C1879     1.0  0.61551  0.34844  0.03174  1.0000
  H   H1512     1.0  0.84948  0.31425  0.15213  1.0000
  H   H1513     1.0  0.55462  0.40888  0.07046  1.0000
  H   H1514     1.0  0.93787  0.25935  0.19848  1.0000
  S   S267      1.0  0.88293  0.24042  0.29511  1.0000
  Fe  Fe136     1.0  0.86456  0.46926  0.37469  1.0000
  C   C1880     1.0  0.91910  0.39012  0.27850  1.0000
  C   C1881     1.0  0.77292  0.45908  0.44631  1.0000
  C   C1882     1.0  0.74287  0.45474  0.44775  1.0000
  C   C1883     1.0  0.73016  0.25754  0.12063  1.0000
  C   C1884     1.0  0.78295  0.25676  0.11512  1.0000
  C   C1885     1.0  0.71880  0.48029  0.18939  1.0000
  H   H1515     1.0  0.61798  0.26389  0.99610  1.0000
  C   C1886     1.0  0.90184  0.42546  0.25119  1.0000
  C   C1887     1.0  0.70109  0.44566  0.01231  1.0000
  H   H1516     1.0  0.66746  0.47795  0.99748  1.0000
  C   C1888     1.0  0.99373  0.28109  0.24507  1.0000
  C   C1889     1.0  0.74773  0.48402  0.44803  1.0000
  C   C1890     1.0  0.74862  0.24373  0.99017  1.0000
  C   C1891     1.0  0.89020  0.42716  0.26747  1.0000
  C   C1892     1.0  0.63428  0.26716  0.17980  1.0000
  H   H1517     1.0  0.87778  0.45569  0.29725  1.0000
  H   H1518     1.0  0.80083  0.26728  0.09176  1.0000
  C   C1893     1.0  0.76967  0.46920  0.29673  1.0000
  H   H1519     1.0  0.93936  0.47333  0.36400  1.0000
  C   C1894     1.0  0.87086  0.40524  0.30646  1.0000
  H   H1520     1.0  0.82189  0.41769  0.35006  1.0000
  C   C1895     1.0  0.76127  0.44790  0.44671  1.0000
  C   C1896     1.0  0.56383  0.39680  0.06734  1.0000
  C   C1897     1.0  0.72559  0.29901  0.01164  1.0000
  H   H1521     1.0  0.92950  0.25602  0.31992  1.0000
  C   C1898     1.0  0.77965  0.24287  0.99151  1.0000
  C   C1899     1.0  0.91781  0.40371  0.28772  1.0000
  H   H1522     1.0  0.84217  0.45369  0.44074  1.0000
  H   H1523     1.0  0.51112  0.27255  0.05123  1.0000
  H   H1524     1.0  0.73391  0.44605  0.44789  1.0000
  H   H1525     1.0  0.51263  0.27530  0.99329  1.0000
  C   C1900     1.0  0.76351  0.46591  0.28292  1.0000
  H   H1526     1.0  0.64304  0.24170  0.11473  1.0000
  C   C1901     1.0  0.68395  0.45627  0.01222  1.0000
  H   H1527     1.0  0.63543  0.43477  0.04654  1.0000
  H   H1528     1.0  0.87800  0.37369  0.39449  1.0000
  C   C1902     1.0  0.61546  0.38978  0.09078  1.0000
  C   C1903     1.0  0.67950  0.43955  0.06358  1.0000
  H   H1529     1.0  0.96046  0.26682  0.10108  1.0000
  C   C1904     1.0  0.71498  0.44820  0.99762  1.0000
  C   C1905     1.0  0.87989  0.38162  0.44993  1.0000
  C   C1906     1.0  0.73610  0.47279  0.44848  1.0000
  C   C1907     1.0  0.80889  0.24128  0.24652  1.0000
  H   H1530     1.0  0.76586  0.24919  0.14008  1.0000
  C   C1908     1.0  0.87652  0.43558  0.23621  1.0000
  C   C1909     1.0  0.84491  0.41936  0.38034  1.0000
  C   C1910     1.0  0.93119  0.42613  0.34180  1.0000
  C   C1911     1.0  0.91420  0.31923  0.18644  1.0000
  C   C1912     1.0  0.92578  0.26761  0.31001  1.0000
  H   H1531     1.0  0.83980  0.32602  0.21279  1.0000
  H   H1532     1.0  0.70363  0.43523  0.02366  1.0000
  H   H1533     1.0  0.56179  0.31340  0.04245  1.0000
  C   C1913     1.0  0.77444  0.24881  0.17987  1.0000
  H   H1534     1.0  0.59702  0.28225  0.07746  1.0000
  C   C1914     1.0  0.78148  0.26784  0.14165  1.0000
  C   C1915     1.0  0.92764  0.46122  0.28360  1.0000
  H   H1535     1.0  0.95456  0.38586  0.30683  1.0000
  H   H1536     1.0  0.82551  0.43334  0.30152  1.0000
  C   C1916     1.0  0.64741  0.29741  0.12552  1.0000
  H   H1537     1.0  0.64678  0.41856  0.10397  1.0000
  C   C1917     1.0  0.82756  0.44698  0.29697  1.0000
  C   C1918     1.0  0.76358  0.33340  0.42652  1.0000
  C   C1919     1.0  0.59192  0.29500  0.06955  1.0000
  C   C1920     1.0  0.73798  0.46611  0.35728  1.0000
  S   S268      1.0  0.85012  0.45582  0.40075  1.0000
  H   H1538     1.0  0.83965  0.44679  0.31918  1.0000
  C   C1921     1.0  0.62881  0.33432  0.02604  1.0000
  C   C1922     1.0  0.83115  0.33385  0.18792  1.0000
  S   S269      1.0  0.63479  0.27631  0.05121  1.0000
  C   C1923     1.0  0.85470  0.27337  0.31457  1.0000
  H   H1539     1.0  0.69761  0.35427  0.06828  1.0000
  S   S270      1.0  0.92716  0.44954  0.34001  1.0000
  H   H1540     1.0  0.71055  0.27252  0.05047  1.0000
  C   C1924     1.0  0.63985  0.28237  0.18114  1.0000
  H   H1541     1.0  0.95718  0.36250  0.28980  1.0000
  H   H1542     1.0  0.97209  0.29208  0.08011  1.0000
  C   C1925     1.0  0.65921  0.23937  0.13388  1.0000
  C   C1926     1.0  0.82248  0.45684  0.28091  1.0000
  C   C1927     1.0  0.83579  0.45463  0.30699  1.0000
  S   S271      1.0  0.64537  0.28156  0.09857  1.0000
  H   H1543     1.0  0.88450  0.29958  0.31199  1.0000
  C   C1928     1.0  0.93578  0.24631  0.14487  1.0000
  H   H1544     1.0  0.85249  0.30804  0.33850  1.0000
  C   C1929     1.0  0.82213  0.31960  0.38221  1.0000
  H   H1545     1.0  0.81512  0.44535  0.36267  1.0000
  C   C1930     1.0  0.87244  0.41255  0.33871  1.0000
  C   C1931     1.0  0.77044  0.30438  0.24117  1.0000
  H   H1546     1.0  0.62306  0.37740  0.08677  1.0000
  Fe  Fe137     1.0  0.64814  0.26675  0.07533  1.0000
  H   H1547     1.0  0.63432  0.29399  0.13126  1.0000
  H   H1548     1.0  0.87718  0.43132  0.43106  1.0000
  C   C1932     1.0  0.85150  0.30882  0.36559  1.0000
  H   H1549     1.0  0.77064  0.30475  0.39840  1.0000
  C   C1933     1.0  0.87133  0.39608  0.43864  1.0000
  H   H1550     1.0  0.75898  0.30826  0.16416  1.0000
  C   C1934     1.0  0.78389  0.45719  0.33638  1.0000
  H   H1551     1.0  0.75749  0.31234  0.24568  1.0000
  C   C1935     1.0  0.58760  0.36557  0.05899  1.0000
  H   H1552     1.0  0.83746  0.29918  0.28064  1.0000
  H   H1553     1.0  0.62027  0.26601  0.18433  1.0000
  H   H1554     1.0  0.86207  0.29688  0.29613  1.0000
  C   C1936     1.0  0.88793  0.43136  0.41960  1.0000
  H   H1555     1.0  0.65219  0.42545  0.33241  1.0000
  C   C1937     1.0  0.84307  0.28386  0.26012  1.0000
  H   H1556     1.0  0.85048  0.39030  0.32147  1.0000
  H   H1557     1.0  0.85055  0.27123  0.23763  1.0000
  H   H1558     1.0  0.90142  0.35139  0.38112  1.0000
  C   C1938     1.0  0.67507  0.37595  0.07073  1.0000
  C   C1939     1.0  0.68330  0.35291  0.09536  1.0000
  H   H1559     1.0  0.78393  0.46881  0.29532  1.0000
  C   C1940     1.0  0.84055  0.31301  0.38132  1.0000
  H   H1560     1.0  0.82220  0.48228  0.26303  1.0000
  C   C1941     1.0  0.71273  0.26648  0.11883  1.0000
  H   H1561     1.0  0.67809  0.38185  0.05683  1.0000
  C   C1942     1.0  0.91468  0.28062  0.28273  1.0000
  C   C1943     1.0  0.63304  0.42414  0.02487  1.0000
  C   C1944     1.0  0.76306  0.31827  0.42038  1.0000
  H   H1562     1.0  0.73804  0.45579  0.35034  1.0000
  C   C1945     1.0  0.86037  0.40452  0.40462  1.0000
  H   H1563     1.0  0.87708  0.24680  0.07155  1.0000
  C   C1946     1.0  0.64493  0.39045  0.04455  1.0000
  C   C1947     1.0  0.83145  0.39819  0.40439  1.0000
  C   C1948     1.0  0.61302  0.42107  0.09133  1.0000
  H   H1564     1.0  0.90358  0.42313  0.35080  1.0000
  C   C1949     1.0  0.77143  0.29238  0.23029  1.0000
  C   C1950     1.0  0.78800  0.28199  0.22417  1.0000
  H   H1565     1.0  0.82042  0.39126  0.41069  1.0000
  H   H1566     1.0  0.63249  0.32205  0.03531  1.0000
  P   P64       1.0  0.77077  0.26975  0.16425  1.0000
  C   C1951     1.0  0.84365  0.29845  0.26701  1.0000
  C   C1952     1.0  0.85103  0.28283  0.24252  1.0000
  H   H1567     1.0  0.90872  0.39049  0.27143  1.0000
  H   H1568     1.0  0.63017  0.29306  0.18659  1.0000
  H   H1569     1.0  0.75734  0.33489  0.44001  1.0000
  H   H1570     1.0  0.71736  0.45741  0.37897  1.0000
  C   C1953     1.0  0.61076  0.36401  0.01930  1.0000
  H   H1571     1.0  0.89751  0.28845  0.23060  1.0000
  C   C1954     1.0  0.91730  0.41633  0.34715  1.0000
  H   H1572     1.0  0.68603  0.45197  0.08202  1.0000
  P   P65       1.0  0.87679  0.24487  0.35750  1.0000
  C   C1955     1.0  0.64675  0.25348  0.17253  1.0000
  C   C1956     1.0  0.92089  0.29972  0.29952  1.0000
  H   H1573     1.0  0.84650  0.31180  0.39267  1.0000
  C   C1957     1.0  0.93764  0.25700  0.22610  1.0000
  C   C1958     1.0  0.72170  0.27090  0.00652  1.0000
  C   C1959     1.0  0.56502  0.28535  0.99906  1.0000
  H   H1574     1.0  0.58742  0.43406  0.10449  1.0000
  H   H1575     1.0  0.74162  0.26229  0.11156  1.0000
  C   C1960     1.0  0.97653  0.27871  0.07723  1.0000
  H   H1576     1.0  0.92614  0.43341  0.37798  1.0000
  C   C1961     1.0  0.91561  0.43272  0.38972  1.0000
  C   C1962     1.0  0.61108  0.33755  0.08822  1.0000
  H   H1577     1.0  0.61675  0.33152  0.11456  1.0000
  H   H1578     1.0  0.78879  0.27223  0.21625  1.0000
  H   H1579     1.0  0.92908  0.41151  0.30653  1.0000
  C   C1963     1.0  0.81574  0.47027  0.44291  1.0000
  C   C1964     1.0  0.86440  0.24899  0.19811  1.0000
  C   C1965     1.0  0.94101  0.48698  0.35812  1.0000
  C   C1966     1.0  0.80758  0.44424  0.35332  1.0000
  C   C1967     1.0  0.77890  0.43531  0.17854  1.0000
  C   C1968     1.0  0.91839  0.30258  0.21557  1.0000
  C   C1969     1.0  0.74472  0.38582  0.46315  1.0000
  H   H1580     1.0  0.63133  0.40987  0.00552  1.0000
  C   C1970     1.0  0.79572  0.26712  0.10575  1.0000
  C   C1971     1.0  0.95296  0.39857  0.33886  1.0000
  H   H1581     1.0  0.75935  0.29104  0.22669  1.0000
  C   C1972     1.0  0.89604  0.24624  0.19756  1.0000
  C   C1973     1.0  0.90486  0.41984  0.39349  1.0000
  C   C1974     1.0  0.79381  0.45835  0.34849  1.0000
  C   C1975     1.0  0.90200  0.29714  0.21824  1.0000
  C   C1976     1.0  0.74526  0.46601  0.28457  1.0000
  C   C1977     1.0  0.86226  0.25474  0.40791  1.0000
  C   C1978     1.0  0.89139  0.37133  0.39726  1.0000
  Fe  Fe138     1.0  0.63161  0.24783  0.05257  1.0000
  C   C1979     1.0  0.93337  0.37543  0.27906  1.0000
  C   C1980     1.0  0.89121  0.41874  0.40873  1.0000
  C   C1981     1.0  0.64333  0.40588  0.05129  1.0000
  P   P66       1.0  0.64579  0.40409  0.07369  1.0000
  C   C1982     1.0  0.86083  0.26578  0.20277  1.0000
  H   H1582     1.0  0.97727  0.32089  0.25879  1.0000
  C   C1983     1.0  0.65688  0.42095  0.07574  1.0000
  H   H1583     1.0  0.91620  0.42103  0.25054  1.0000
  C   C1984     1.0  0.63470  0.40872  0.01826  1.0000
  C   C1985     1.0  0.52824  0.27293  0.02542  1.0000
  C   C1986     1.0  0.85236  0.31203  0.25637  1.0000
  C   C1987     1.0  0.85977  0.29644  0.23172  1.0000
  C   C1988     1.0  0.89255  0.26294  0.20233  1.0000
  H   H1584     1.0  0.84712  0.27317  0.20463  1.0000
  H   H1585     1.0  0.60020  0.37491  0.02310  1.0000
  H   H1586     1.0  0.67313  0.45399  0.02345  1.0000
  H   H1587     1.0  0.71898  0.30216  0.03887  1.0000
  H   H1588     1.0  0.96681  0.39179  0.33572  1.0000
  C   C1989     1.0  0.87490  0.27294  0.20485  1.0000
  C   C1990     1.0  0.51906  0.26463  0.04157  1.0000
  H   H1589     1.0  0.90368  0.26788  0.20399  1.0000
  H   H1590     1.0  0.73998  0.24912  0.08200  1.0000
  C   C1991     1.0  0.91992  0.26556  0.29535  1.0000
  C   C1992     1.0  0.85976  0.41640  0.38838  1.0000
  C   C1993     1.0  0.86028  0.31112  0.23875  1.0000
  H   H1591     1.0  0.61049  0.30830  0.07472  1.0000
  H   H1592     1.0  0.85311  0.32321  0.26182  1.0000
  H   H1593     1.0  0.61863  0.43311  0.08772  1.0000
  C   C1994     1.0  0.72638  0.28782  0.00003  1.0000
  Fe  Fe139     1.0  0.80524  0.25125  0.05336  1.0000
  C   C1995     1.0  0.83075  0.41025  0.38835  1.0000
  P   P67       1.0  0.87040  0.29544  0.20900  1.0000
  C   C1996     1.0  0.89151  0.30277  0.20509  1.0000
  C   C1997     1.0  0.80119  0.42726  0.33461  1.0000
  C   C1998     1.0  0.85575  0.40733  0.44584  1.0000
  C   C1999     1.0  0.88289  0.41574  0.30695  1.0000
  P   P68       1.0  0.87958  0.40008  0.41500  1.0000
  H   H1594     1.0  0.64159  0.34793  0.05038  1.0000
  H   H1595     1.0  0.79269  0.26646  0.36284  1.0000
  H   H1596     1.0  0.81908  0.41267  0.38235  1.0000
  H   H1597     1.0  0.86926  0.29571  0.17243  1.0000
  C   C2000     1.0  0.77598  0.25700  0.13304  1.0000
  C   C2001     1.0  0.89177  0.45705  0.29346  1.0000
  C   C2002     1.0  0.88103  0.27585  0.33183  1.0000
  C   C2003     1.0  0.52024  0.24606  0.04533  1.0000
  Fe  Fe140     1.0  0.89964  0.25153  0.26964  1.0000
  C   C2004     1.0  0.86036  0.40221  0.33814  1.0000
  H   H1598     1.0  0.87062  0.40168  0.29421  1.0000
  H   H1599     1.0  0.52734  0.28731  0.02270  1.0000
  C   C2005     1.0  0.87184  0.26150  0.33817  1.0000
  H   H1600     1.0  0.87049  0.42374  0.38215  1.0000
  C   C2006     1.0  0.89773  0.31383  0.18912  1.0000
  H   H1601     1.0  0.86706  0.32175  0.23071  1.0000
  H   H1602     1.0  0.69228  0.34105  0.10057  1.0000
  C   C2007     1.0  0.88200  0.23921  0.19557  1.0000
  C   C2008     1.0  0.84542  0.26603  0.40789  1.0000
  C   C2009     1.0  0.83381  0.33064  0.17081  1.0000
  C   C2010     1.0  0.96998  0.26430  0.08912  1.0000
  H   H1603     1.0  0.84425  0.42902  0.36810  1.0000
  H   H1604     1.0  0.73082  0.29223  0.98605  1.0000
  C   C2011     1.0  0.64660  0.34246  0.07671  1.0000
  H   H1605     1.0  0.85203  0.39657  0.35027  1.0000
  C   C2012     1.0  0.61806  0.34183  0.06999  1.0000
  H   H1606     1.0  0.77955  0.43971  0.32096  1.0000
  C   C2013     1.0  0.85609  0.30947  0.19414  1.0000
  S   S272      1.0  0.87317  0.45578  0.35121  1.0000
  C   C2014     1.0  0.84768  0.26465  0.37723  1.0000
  H   H1607     1.0  0.71072  0.27778  0.10810  1.0000
  C   C2015     1.0  0.84220  0.32331  0.19959  1.0000
  H   H1608     1.0  0.90745  0.41054  0.38466  1.0000
  C   C2016     1.0  0.84751  0.31685  0.16534  1.0000
  C   C2017     1.0  0.69789  0.26039  0.13033  1.0000
  C   C2018     1.0  0.85867  0.30634  0.17691  1.0000
  H   H1609     1.0  0.69150  0.25278  0.98328  1.0000
  H   H1610     1.0  0.68447  0.26746  0.12867  1.0000
  C   C2019     1.0  0.87725  0.28864  0.31689  1.0000
  C   C2020     1.0  0.86495  0.43780  0.25229  1.0000
  C   C2021     1.0  0.58773  0.28425  0.01585  1.0000
  H   H1611     1.0  0.76777  0.27503  0.34625  1.0000
  C   C2022     1.0  0.94900  0.41714  0.33775  1.0000
  C   C2023     1.0  0.78743  0.44137  0.32971  1.0000
  H   H1612     1.0  0.95123  0.30605  0.27261  1.0000
  C   C2024     1.0  0.88356  0.41941  0.32317  1.0000
  C   C2025     1.0  0.56929  0.36535  0.06588  1.0000
  H   H1613     1.0  0.91943  0.25233  0.29388  1.0000
  H   H1614     1.0  0.57291  0.28450  0.06123  1.0000
  C   C2026     1.0  0.91540  0.29766  0.28470  1.0000
  S   S273      1.0  0.90714  0.27838  0.26449  1.0000
  C   C2027     1.0  0.75764  0.47246  0.31242  1.0000
  C   C2028     1.0  0.53863  0.26271  0.01291  1.0000
  C   C2029     1.0  0.72635  0.46685  0.37364  1.0000
  H   H1615     1.0  0.93298  0.25871  0.36456  1.0000
  H   H1616     1.0  0.82048  0.34453  0.19212  1.0000
  H   H1617     1.0  0.74845  0.41240  0.44992  1.0000
  C   C2030     1.0  0.69596  0.46834  0.21281  1.0000
  H   H1618     1.0  0.89174  0.37259  0.44472  1.0000
  H   H1619     1.0  0.57394  0.40685  0.11240  1.0000
  H   H1620     1.0  0.92322  0.25775  0.23015  1.0000
  C   C2031     1.0  0.94488  0.38729  0.29859  1.0000
  H   H1621     1.0  0.92095  0.31298  0.30117  1.0000
  H   H1622     1.0  0.83677  0.41291  0.46945  1.0000
  H   H1623     1.0  0.82516  0.33879  0.16183  1.0000
  C   C2032     1.0  0.83806  0.27081  0.39262  1.0000
  H   H1624     1.0  0.89135  0.27720  0.33811  1.0000
  H   H1625     1.0  0.92171  0.25189  0.14926  1.0000
  C   C2033     1.0  0.57637  0.27578  0.01093  1.0000
  H   H1626     1.0  0.86266  0.43591  0.28011  1.0000
  H   H1627     1.0  0.60814  0.38172  0.05200  1.0000
  C   C2034     1.0  0.92235  0.35548  0.39220  1.0000
  C   C2035     1.0  0.59396  0.38144  0.05680  1.0000
  H   H1628     1.0  0.84188  0.26867  0.36545  1.0000
  S   S274      1.0  0.89160  0.47519  0.37321  1.0000
  H   H1629     1.0  0.76786  0.26139  0.20273  1.0000
  P   P69       1.0  0.55102  0.27362  0.99252  1.0000
  H   H1630     1.0  0.91895  0.32782  0.17413  1.0000
  C   C2036     1.0  0.57834  0.29627  0.06037  1.0000
  H   H1631     1.0  0.59661  0.27664  0.02483  1.0000
  C   C2037     1.0  0.58766  0.40636  0.10513  1.0000
  C   C2038     1.0  0.89622  0.47319  0.29373  1.0000
  C   C2039     1.0  0.59304  0.32645  0.05768  1.0000
  H   H1632     1.0  0.87725  0.25038  0.10179  1.0000
  C   C2040     1.0  0.83085  0.46005  0.44955  1.0000
  H   H1633     1.0  0.70700  0.25301  0.08594  1.0000
  C   C2041     1.0  0.96373  0.28169  0.26292  1.0000
  C   C2042     1.0  0.93047  0.40187  0.29829  1.0000
  H   H1634     1.0  0.68952  0.44455  0.05267  1.0000
  C   C2043     1.0  0.90526  0.44279  0.28841  1.0000
  H   H1635     1.0  0.54329  0.38077  0.07511  1.0000
  H   H1636     1.0  0.89303  0.42717  0.32386  1.0000
  H   H1637     1.0  0.56411  0.35317  0.06839  1.0000
  H   H1638     1.0  0.92625  0.29821  0.22596  1.0000
  C   C2044     1.0  0.81136  0.42875  0.34626  1.0000
  C   C2045     1.0  0.74994  0.47804  0.35041  1.0000
  H   H1639     1.0  0.59007  0.25698  0.98564  1.0000
  C   C2046     1.0  0.59774  0.39043  0.10011  1.0000
  H   H1640     1.0  0.72183  0.47816  0.44948  1.0000
  H   H1641     1.0  0.64226  0.24171  0.17169  1.0000
  C   C2047     1.0  0.84889  0.40423  0.46404  1.0000
  C   C2048     1.0  0.65532  0.42490  0.09245  1.0000
  H   H1642     1.0  0.94155  0.46278  0.27996  1.0000
  H   H1643     1.0  0.72925  0.31205  0.00655  1.0000
  C   C2049     1.0  0.62329  0.40502  0.08656  1.0000
  C   C2050     1.0  0.92660  0.36492  0.40297  1.0000
  Fe  Fe141     1.0  0.89909  0.46487  0.34793  1.0000
  C   C2051     1.0  0.62664  0.27058  0.98490  1.0000
  C   C2052     1.0  0.71474  0.24042  0.09168  1.0000
  C   C2053     1.0  0.86471  0.25348  0.37709  1.0000
  H   H1644     1.0  0.75601  0.42705  0.17492  1.0000
  H   H1645     1.0  0.74058  0.46288  0.27409  1.0000
  H   H1646     1.0  0.77842  0.24868  0.10840  1.0000
  H   H1647     1.0  0.78968  0.24935  0.99338  1.0000
  H   H1648     1.0  0.64698  0.38568  0.98191  1.0000
  C   C2054     1.0  0.90857  0.25233  0.36182  1.0000
  H   H1649     1.0  0.77302  0.46301  0.27106  1.0000
  H   H1650     1.0  0.79385  0.48139  0.37941  1.0000
  S   S275      1.0  0.77926  0.24284  0.06743  1.0000
  H   H1651     1.0  0.70621  0.45723  0.47396  1.0000
  H   H1652     1.0  0.84026  0.24652  0.09869  1.0000
  H   H1653     1.0  0.78823  0.42795  0.16906  1.0000
  C   C2055     1.0  0.80137  0.47639  0.47204  1.0000
  C   C2056     1.0  0.83884  0.47238  0.30125  1.0000
  Fe  Fe142     1.0  0.86375  0.48293  0.33556  1.0000
  H   H1654     1.0  0.72947  0.47648  0.32527  1.0000
  H   H1655     1.0  0.64992  0.26148  0.99715  1.0000
  C   C2057     1.0  0.81382  0.24206  0.26213  1.0000
  C   C2058     1.0  0.69463  0.47237  0.98288  1.0000
  C   C2059     1.0  0.99306  0.29851  0.24707  1.0000
  P   P70       1.0  0.76635  0.47575  0.33027  1.0000
  H   H1656     1.0  0.81555  0.47145  0.42910  1.0000
  C   C2060     1.0  0.66250  0.40554  0.97981  1.0000
  C   C2061     1.0  0.83371  0.48197  0.28526  1.0000
  H   H1657     1.0  0.55506  0.31201  0.98503  1.0000
  C   C2062     1.0  0.58290  0.25132  0.97902  1.0000
  C   C2063     1.0  0.98882  0.27588  0.06166  1.0000
  H   H1658     1.0  0.71845  0.47919  0.39652  1.0000
  S   S276      1.0  0.60670  0.24104  0.04576  1.0000
  C   C2064     1.0  0.72691  0.47916  0.38352  1.0000
  C   C2065     1.0  0.91417  0.47519  0.28911  1.0000
  H   H1659     1.0  0.73130  0.47840  0.17985  1.0000
  H   H1660     1.0  0.82578  0.47990  0.37946  1.0000
  C   C2066     1.0  0.80098  0.47875  0.45401  1.0000
  H   H1661     1.0  0.80337  0.48301  0.31880  1.0000
  C   C2067     1.0  0.97575  0.24691  0.08554  1.0000
  C   C2068     1.0  0.94772  0.24214  0.15652  1.0000
  S   S277      1.0  0.84842  0.48392  0.31307  1.0000
  H   H1662     1.0  0.88570  0.48411  0.29767  1.0000
  C   C2069     1.0  0.94169  0.24222  0.12794  1.0000
  C   C2070     1.0  0.98801  0.24421  0.06979  1.0000
  S   S278      1.0  0.65884  0.24020  0.03612  1.0000
  C   C2071     1.0  0.69537  0.24114  0.99303  1.0000
  H   H1663     1.0  0.67385  0.48789  0.22308  1.0000
  H   H1664     1.0  0.77966  0.41449  0.97758  1.0000
  H   H1665     1.0  0.51328  0.23957  0.05790  1.0000
  H   H1666     1.0  0.88470  0.23935  0.39299  1.0000
  C   C2072     1.0  0.76741  0.34264  0.97740  1.0000
  S   S279      1.0  0.64184  0.23902  0.07854  1.0000
  H   H1667     1.0  0.87959  0.36731  0.47682  1.0000
  Fe  Fe143     1.0  0.72701  0.45292  0.54434  1.0000
  S   S280      1.0  0.73821  0.47711  0.52905  1.0000
  S   S281      1.0  0.70668  0.45314  0.56955  1.0000
  Fe  Fe144     1.0  0.74440  0.43096  0.51580  1.0000
  S   S282      1.0  0.75739  0.45314  0.49765  1.0000
  S   S283      1.0  0.74484  0.40253  0.51441  1.0000
  Fe  Fe145     1.0  0.76366  0.45728  0.52246  1.0000
  S   S284      1.0  0.79050  0.46076  0.52549  1.0000
  Fe  Fe146     1.0  0.73086  0.47131  0.50572  1.0000
  H   H1668     1.0  0.73194  0.43770  0.94183  1.0000
  S   S285      1.0  0.75294  0.43358  0.53990  1.0000
  S   S286      1.0  0.71757  0.44863  0.52161  1.0000
  Fe  Fe147     1.0  0.68364  0.46755  0.66586  1.0000
  H   H1669     1.0  0.61877  0.40887  0.68795  1.0000
  H   H1670     1.0  0.58205  0.48730  0.87138  1.0000
  Fe  Fe148     1.0  0.71545  0.43711  0.66069  1.0000
  S   S287      1.0  0.72501  0.43779  0.68500  1.0000
  S   S288      1.0  0.73049  0.41816  0.64257  1.0000
  Fe  Fe149     1.0  0.69565  0.44077  0.69738  1.0000
  S   S289      1.0  0.68341  0.43002  0.72539  1.0000
  Fe  Fe150     1.0  0.71924  0.46763  0.67557  1.0000
  H   H1671     1.0  0.52842  0.46297  0.87341  1.0000
  S   S290      1.0  0.68645  0.43772  0.67386  1.0000
  S   S291      1.0  0.71189  0.46678  0.65031  1.0000
  H   H1672     1.0  0.70837  0.41347  0.95236  1.0000
  S   S292      1.0  0.65094  0.40221  0.86946  1.0000
  Fe  Fe151     1.0  0.66967  0.39098  0.88854  1.0000
  S   S293      1.0  0.69876  0.38008  0.87843  1.0000
  C   C2073     1.0  0.59230  0.24321  0.89912  1.0000
  Fe  Fe152     1.0  0.66763  0.34435  0.78469  1.0000
  S   S294      1.0  0.67697  0.35695  0.80245  1.0000
  S   S295      1.0  0.67899  0.34851  0.75533  1.0000
  Fe  Fe153     1.0  0.64005  0.32858  0.81482  1.0000
  S   S296      1.0  0.64687  0.34009  0.83505  1.0000
  S   S297      1.0  0.61942  0.31093  0.82229  1.0000
  Fe  Fe154     1.0  0.64773  0.36468  0.81374  1.0000
  C   C2074     1.0  0.59809  0.28333  0.93791  1.0000
  Fe  Fe155     1.0  0.67553  0.33132  0.82201  1.0000
  S   S298      1.0  0.69832  0.32089  0.83686  1.0000
  S   S299      1.0  0.63828  0.35407  0.79445  1.0000
  S   S300      1.0  0.66881  0.31764  0.80331  1.0000
  C   C2075     1.0  0.71095  0.34426  0.93400  1.0000
  C   C2076     1.0  0.61699  0.32627  0.94478  1.0000
  C   C2077     1.0  0.56975  0.35813  0.89645  1.0000
  C   C2078     1.0  0.68891  0.42804  0.50944  1.0000
  H   H1673     1.0  0.65099  0.47516  0.79238  1.0000
  H   H1674     1.0  0.57086  0.40224  0.91284  1.0000
  H   H1675     1.0  0.61306  0.43845  0.85912  1.0000
  C   C2079     1.0  0.72252  0.40495  0.90446  1.0000
  C   C2080     1.0  0.70298  0.36115  0.92550  1.0000
  H   H1676     1.0  0.51021  0.41323  0.86782  1.0000
  C   C2081     1.0  0.59714  0.32128  0.82980  1.0000
  C   C2082     1.0  0.58322  0.31292  0.82976  1.0000
  C   C2083     1.0  0.56524  0.32102  0.83482  1.0000
  C   C2084     1.0  0.59299  0.33768  0.83547  1.0000
  H   H1677     1.0  0.58637  0.30042  0.82519  1.0000
  H   H1678     1.0  0.55461  0.31466  0.83418  1.0000
  H   H1679     1.0  0.60369  0.34421  0.83557  1.0000
  H   H1680     1.0  0.54548  0.34895  0.76378  1.0000
  H   H1681     1.0  0.61113  0.37370  0.81677  1.0000
  C   C2085     1.0  0.69895  0.36393  0.86635  1.0000
  C   C2086     1.0  0.71516  0.35511  0.85741  1.0000
  C   C2087     1.0  0.71508  0.34168  0.84848  1.0000
  C   C2088     1.0  0.69873  0.33759  0.84791  1.0000
  C   C2089     1.0  0.68261  0.34680  0.85637  1.0000
  C   C2090     1.0  0.68272  0.35967  0.86581  1.0000
  H   H1682     1.0  0.72774  0.35864  0.85727  1.0000
  H   H1683     1.0  0.72758  0.33472  0.84174  1.0000
  H   H1684     1.0  0.66998  0.34382  0.85589  1.0000
  H   H1685     1.0  0.67012  0.36627  0.87260  1.0000
  C   C2091     1.0  0.68312  0.40716  0.73302  1.0000
  C   C2092     1.0  0.67612  0.40152  0.75092  1.0000
  C   C2093     1.0  0.67503  0.38354  0.75773  1.0000
  C   C2094     1.0  0.68093  0.37100  0.74669  1.0000
  C   C2095     1.0  0.68803  0.37660  0.72869  1.0000
  C   C2096     1.0  0.68913  0.39473  0.72182  1.0000
  H   H1686     1.0  0.67127  0.41114  0.75951  1.0000
  H   H1687     1.0  0.66905  0.37957  0.77144  1.0000
  H   H1688     1.0  0.69262  0.36694  0.72009  1.0000
  H   H1689     1.0  0.69453  0.39906  0.70795  1.0000
  C   C2097     1.0  0.68727  0.37085  0.93411  1.0000
  C   C2098     1.0  0.55486  0.26024  0.91936  1.0000
  C   C2099     1.0  0.64915  0.28795  0.95631  1.0000
  H   H1690     1.0  0.72787  0.39442  0.58574  1.0000
  H   H1691     1.0  0.50197  0.37147  0.83804  1.0000
  H   H1692     1.0  0.58684  0.41788  0.95404  1.0000
  C   C2100     1.0  0.57049  0.43882  0.93828  1.0000
  C   C2101     1.0  0.53524  0.34437  0.77472  1.0000
  C   C2102     1.0  0.50649  0.44198  0.86075  1.0000
  C   C2103     1.0  0.63099  0.28959  0.95563  1.0000
  Fe  Fe156     1.0  0.49590  0.37977  0.88958  1.0000
  C   C2104     1.0  0.65091  0.39797  0.97417  1.0000
  H   H1693     1.0  0.67557  0.37802  0.67266  1.0000
  C   C2105     1.0  0.71450  0.44375  0.58931  1.0000
  C   C2106     1.0  0.73100  0.43182  0.58984  1.0000
  C   C2107     1.0  0.73599  0.42357  0.60624  1.0000
  C   C2108     1.0  0.72479  0.42790  0.62190  1.0000
  C   C2109     1.0  0.70871  0.44022  0.62119  1.0000
  C   C2110     1.0  0.70337  0.44778  0.60501  1.0000
  H   H1694     1.0  0.73962  0.42859  0.57775  1.0000
  H   H1695     1.0  0.74852  0.41406  0.60677  1.0000
  H   H1696     1.0  0.70002  0.44346  0.63327  1.0000
  H   H1697     1.0  0.69064  0.45694  0.60463  1.0000
  C   C2111     1.0  0.67917  0.36362  0.95116  1.0000
  S   S301      1.0  0.63259  0.39475  0.95033  1.0000
  C   C2112     1.0  0.57576  0.36534  0.79062  1.0000
  C   C2113     1.0  0.62664  0.42139  0.60608  1.0000
  H   H1698     1.0  0.68035  0.34143  0.97294  1.0000
  C   C2114     1.0  0.74262  0.37934  0.49496  1.0000
  C   C2115     1.0  0.70821  0.28218  0.96782  1.0000
  C   C2116     1.0  0.76540  0.28886  0.95672  1.0000
  C   C2117     1.0  0.75553  0.47112  0.87429  1.0000
  S   S302      1.0  0.63494  0.45311  0.87553  1.0000
  C   C2118     1.0  0.72433  0.42349  0.85986  1.0000
  C   C2119     1.0  0.50941  0.40934  0.91515  1.0000
  H   H1699     1.0  0.73997  0.24629  0.95681  1.0000
  S   S303      1.0  0.69068  0.47071  0.69045  1.0000
  C   C2120     1.0  0.52662  0.41331  0.90902  1.0000
  C   C2121     1.0  0.61201  0.41602  0.60297  1.0000
  H   H1700     1.0  0.63809  0.35907  0.94613  1.0000
  H   H1701     1.0  0.79004  0.48226  0.48112  1.0000
  H   H1702     1.0  0.52612  0.27655  0.87504  1.0000
  C   C2122     1.0  0.65442  0.47897  0.89782  1.0000
  C   C2123     1.0  0.54489  0.45198  0.76043  1.0000
  H   H1703     1.0  0.59014  0.44368  0.75562  1.0000
  H   H1704     1.0  0.75377  0.48670  0.55481  1.0000
  C   C2124     1.0  0.75093  0.29711  0.93135  1.0000
  H   H1705     1.0  0.64039  0.39119  0.75510  1.0000
  P   P71       1.0  0.62181  0.30516  0.93771  1.0000
  S   S304      1.0  0.62010  0.36759  0.88120  1.0000
  H   H1706     1.0  0.54961  0.37394  0.80520  1.0000
  P   P72       1.0  0.67977  0.44313  0.79248  1.0000
  C   C2125     1.0  0.68222  0.45423  0.80893  1.0000
  C   C2126     1.0  0.69231  0.45180  0.77106  1.0000
  H   H1707     1.0  0.55744  0.39604  0.85370  1.0000
  C   C2127     1.0  0.58552  0.46840  0.71320  1.0000
  H   H1708     1.0  0.72565  0.38399  0.94682  1.0000
  H   H1709     1.0  0.62620  0.33368  0.90654  1.0000
  H   H1710     1.0  0.75230  0.40874  0.93900  1.0000
  C   C2128     1.0  0.72728  0.45213  0.88314  1.0000
  H   H1711     1.0  0.68537  0.46834  0.53659  1.0000
  C   C2129     1.0  0.61209  0.45262  0.85372  1.0000
  C   C2130     1.0  0.65673  0.44738  0.78970  1.0000
  C   C2131     1.0  0.64971  0.43386  0.78648  1.0000
  C   C2132     1.0  0.63198  0.43723  0.78406  1.0000
  C   C2133     1.0  0.62102  0.45403  0.78505  1.0000
  C   C2134     1.0  0.51380  0.44499  0.90641  1.0000
  H   H1712     1.0  0.68225  0.47862  0.48839  1.0000
  H   H1713     1.0  0.71444  0.41813  0.78449  1.0000
  S   S305      1.0  0.52900  0.33399  0.89551  1.0000
  S   S306      1.0  0.65967  0.41353  0.90323  1.0000
  H   H1714     1.0  0.54009  0.41732  0.87289  1.0000
  C   C2135     1.0  0.57721  0.36531  0.92150  1.0000
  H   H1715     1.0  0.65762  0.36798  0.65629  1.0000
  Fe  Fe157     1.0  0.49882  0.33942  0.90245  1.0000
  H   H1716     1.0  0.65769  0.42054  0.78618  1.0000
  H   H1717     1.0  0.62658  0.42651  0.78214  1.0000
  H   H1718     1.0  0.60706  0.45635  0.78389  1.0000
  C   C2136     1.0  0.74259  0.43313  0.94932  1.0000
  C   C2137     1.0  0.65702  0.47356  0.59040  1.0000
  H   H1719     1.0  0.71796  0.47119  0.72440  1.0000
  H   H1720     1.0  0.61406  0.42958  0.53860  1.0000
  C   C2138     1.0  0.70269  0.33711  0.95123  1.0000
  H   H1721     1.0  0.77602  0.39699  0.95683  1.0000
  H   H1722     1.0  0.58337  0.43774  0.81492  1.0000
  C   C2139     1.0  0.69135  0.42402  0.85156  1.0000
  H   H1723     1.0  0.60375  0.37128  0.91722  1.0000
  C   C2140     1.0  0.62164  0.46257  0.85931  1.0000
  C   C2141     1.0  0.58991  0.31482  0.92523  1.0000
  H   H1724     1.0  0.67858  0.42398  0.84845  1.0000
  C   C2142     1.0  0.59984  0.33264  0.95420  1.0000
  C   C2143     1.0  0.79453  0.38999  0.59955  1.0000
  C   C2144     1.0  0.78809  0.38946  0.58474  1.0000
  C   C2145     1.0  0.78134  0.40540  0.57403  1.0000
  C   C2146     1.0  0.78076  0.42188  0.57823  1.0000
  C   C2147     1.0  0.78675  0.42253  0.59336  1.0000
  C   C2148     1.0  0.79404  0.40645  0.60375  1.0000
  P   P73       1.0  0.78627  0.44382  0.59870  1.0000
  C   C2149     1.0  0.80658  0.45187  0.58717  1.0000
  C   C2150     1.0  0.76701  0.45954  0.59182  1.0000
  H   H1725     1.0  0.70031  0.43775  0.92765  1.0000
  S   S307      1.0  0.75491  0.36388  0.96985  1.0000
  H   H1726     1.0  0.51519  0.45884  0.90349  1.0000
  H   H1727     1.0  0.55526  0.30164  0.96050  1.0000
  C   C2151     1.0  0.75073  0.46258  0.60391  1.0000
  C   C2152     1.0  0.70491  0.46789  0.94177  1.0000
  H   H1728     1.0  0.76650  0.47836  0.87084  1.0000
  C   C2153     1.0  0.74235  0.31367  0.93613  1.0000
  C   C2154     1.0  0.83822  0.44608  0.57332  1.0000
  C   C2155     1.0  0.82224  0.43990  0.58139  1.0000
  C   C2156     1.0  0.78400  0.44170  0.62231  1.0000
  C   C2157     1.0  0.77293  0.43052  0.63412  1.0000
  C   C2158     1.0  0.76957  0.43012  0.65230  1.0000
  C   C2159     1.0  0.77726  0.44088  0.65888  1.0000
  C   C2160     1.0  0.78864  0.45174  0.64729  1.0000
  C   C2161     1.0  0.79206  0.45213  0.62908  1.0000
  H   H1729     1.0  0.79982  0.37763  0.60784  1.0000
  H   H1730     1.0  0.78838  0.37673  0.58151  1.0000
  H   H1731     1.0  0.77648  0.40504  0.56245  1.0000
  H   H1732     1.0  0.77550  0.43402  0.56967  1.0000
  H   H1733     1.0  0.79924  0.40662  0.61518  1.0000
  C   C2162     1.0  0.71188  0.28121  0.93685  1.0000
  C   C2163     1.0  0.69929  0.44108  0.75820  1.0000
  C   C2164     1.0  0.73000  0.25852  0.95539  1.0000
  C   C2165     1.0  0.66889  0.48464  0.88527  1.0000
  H   H1734     1.0  0.74936  0.45598  0.61765  1.0000
  C   C2166     1.0  0.56882  0.25490  0.83643  1.0000
  H   H1735     1.0  0.66675  0.37087  0.95760  1.0000
  H   H1736     1.0  0.52386  0.30982  0.87107  1.0000
  H   H1737     1.0  0.85027  0.43678  0.56895  1.0000
  H   H1738     1.0  0.82219  0.42578  0.58321  1.0000
  H   H1739     1.0  0.76629  0.42264  0.62919  1.0000
  H   H1740     1.0  0.76048  0.42189  0.66118  1.0000
  H   H1741     1.0  0.77405  0.44113  0.67290  1.0000
  C   C2167     1.0  0.53824  0.26530  0.93015  1.0000
  H   H1742     1.0  0.68820  0.47763  0.84450  1.0000
  P   P74       1.0  0.66307  0.41884  0.60527  1.0000
  C   C2168     1.0  0.50616  0.24211  0.91261  1.0000
  C   C2169     1.0  0.70736  0.41618  0.84166  1.0000
  C   C2170     1.0  0.56813  0.46533  0.88261  1.0000
  H   H1743     1.0  0.55459  0.45688  0.92028  1.0000
  C   C2171     1.0  0.65780  0.44258  0.60561  1.0000
  H   H1744     1.0  0.62413  0.43197  0.61348  1.0000
  C   C2172     1.0  0.64928  0.44863  0.62143  1.0000
  H   H1745     1.0  0.58971  0.42492  0.88233  1.0000
  C   C2173     1.0  0.67353  0.45033  0.90629  1.0000
  C   C2174     1.0  0.76006  0.47941  0.95697  1.0000
  P   P75       1.0  0.72954  0.46436  0.96335  1.0000
  C   C2175     1.0  0.63248  0.39375  0.58749  1.0000
  H   H1746     1.0  0.66796  0.45122  0.57759  1.0000
  C   C2176     1.0  0.64514  0.46693  0.62179  1.0000
  H   H1747     1.0  0.60290  0.43573  0.56898  1.0000
  C   C2177     1.0  0.64906  0.47939  0.60627  1.0000
  C   C2178     1.0  0.67285  0.38586  0.65999  1.0000
  C   C2179     1.0  0.68807  0.45578  0.89352  1.0000
  C   C2180     1.0  0.71449  0.40514  0.56364  1.0000
  H   H1748     1.0  0.72661  0.40237  0.55380  1.0000
  C   C2181     1.0  0.64663  0.32216  0.88689  1.0000
  C   C2182     1.0  0.67634  0.41162  0.63640  1.0000
  H   H1749     1.0  0.79515  0.47961  0.58897  1.0000
  C   C2183     1.0  0.63585  0.32174  0.90377  1.0000
  H   H1750     1.0  0.67490  0.43695  0.91420  1.0000
  C   C2184     1.0  0.67973  0.40150  0.65275  1.0000
  C   C2185     1.0  0.66275  0.38024  0.65074  1.0000
  C   C2186     1.0  0.66640  0.40604  0.62690  1.0000
  C   C2187     1.0  0.57944  0.40809  0.93423  1.0000
  C   C2188     1.0  0.53966  0.46851  0.87396  1.0000
  C   C2189     1.0  0.50421  0.41564  0.82791  1.0000
  H   H1751     1.0  0.68812  0.47863  0.77603  1.0000
  H   H1752     1.0  0.50773  0.39552  0.91843  1.0000
  H   H1753     1.0  0.66971  0.27717  0.97203  1.0000
  C   C2190     1.0  0.70193  0.32364  0.90924  1.0000
  H   H1754     1.0  0.70692  0.40991  0.83109  1.0000
  H   H1755     1.0  0.66062  0.39190  0.58629  1.0000
  C   C2191     1.0  0.61493  0.40222  0.59366  1.0000
  H   H1756     1.0  0.64606  0.43926  0.63357  1.0000
  H   H1757     1.0  0.60360  0.39802  0.59131  1.0000
  C   C2192     1.0  0.72206  0.39454  0.93585  1.0000
  C   C2193     1.0  0.59900  0.36499  0.89399  1.0000
  H   H1758     1.0  0.51220  0.28277  0.93171  1.0000
  C   C2194     1.0  0.52559  0.33358  0.80604  1.0000
  H   H1759     1.0  0.68510  0.47128  0.92587  1.0000
  H   H1760     1.0  0.69704  0.42749  0.76072  1.0000
  H   H1761     1.0  0.54682  0.24330  0.85339  1.0000
  C   C2195     1.0  0.68754  0.41959  0.80055  1.0000
  C   C2196     1.0  0.66783  0.45819  0.82281  1.0000
  H   H1762     1.0  0.51592  0.34708  0.75848  1.0000
  H   H1763     1.0  0.55641  0.45796  0.75917  1.0000
  C   C2197     1.0  0.55277  0.45844  0.88370  1.0000
  H   H1764     1.0  0.72444  0.38603  0.79615  1.0000
  C   C2198     1.0  0.71107  0.39285  0.80130  1.0000
  H   H1765     1.0  0.71425  0.43962  0.73176  1.0000
  C   C2199     1.0  0.70667  0.30906  0.88442  1.0000
  H   H1766     1.0  0.60898  0.42245  0.71450  1.0000
  C   C2200     1.0  0.68688  0.34685  0.95975  1.0000
  C   C2201     1.0  0.64933  0.29052  0.91236  1.0000
  C   C2202     1.0  0.54138  0.30007  0.96387  1.0000
  H   H1767     1.0  0.65014  0.27804  0.92192  1.0000
  H   H1768     1.0  0.59356  0.45352  0.83696  1.0000
  H   H1769     1.0  0.73618  0.40964  0.83813  1.0000
  H   H1770     1.0  0.60538  0.28320  0.97060  1.0000
  P   P76       1.0  0.55130  0.43591  0.89553  1.0000
  H   H1771     1.0  0.70799  0.28659  0.92411  1.0000
  C   C2203     1.0  0.73222  0.31393  0.89368  1.0000
  H   H1772     1.0  0.68061  0.31948  0.89873  1.0000
  H   H1773     1.0  0.53810  0.40237  0.90781  1.0000
  C   C2204     1.0  0.58927  0.42375  0.81545  1.0000
  C   C2205     1.0  0.61698  0.43325  0.74211  1.0000
  H   H1774     1.0  0.64331  0.41848  0.73209  1.0000
  H   H1775     1.0  0.73503  0.37866  0.91624  1.0000
  P   P77       1.0  0.70895  0.44011  0.88886  1.0000
  C   C2206     1.0  0.50590  0.24186  0.93038  1.0000
  C   C2207     1.0  0.61513  0.39964  0.81775  1.0000
  H   H1776     1.0  0.57944  0.38455  0.81322  1.0000
  H   H1777     1.0  0.52139  0.38159  0.72956  1.0000
  H   H1778     1.0  0.53957  0.39038  0.74622  1.0000
  C   C2208     1.0  0.74473  0.34514  0.90772  1.0000
  C   C2209     1.0  0.74101  0.35494  0.89131  1.0000
  C   C2210     1.0  0.75222  0.36638  0.88046  1.0000
  C   C2211     1.0  0.76743  0.36800  0.88587  1.0000
  C   C2212     1.0  0.77133  0.35825  0.90218  1.0000
  C   C2213     1.0  0.76003  0.34687  0.91311  1.0000
  H   H1779     1.0  0.73415  0.30171  0.87147  1.0000
  C   C2214     1.0  0.64713  0.39897  0.59073  1.0000
  S   S308      1.0  0.61858  0.40854  0.90416  1.0000
  H   H1780     1.0  0.64527  0.33439  0.87698  1.0000
  H   H1781     1.0  0.74661  0.31320  0.89143  1.0000
  S   S309      1.0  0.63784  0.39251  0.81897  1.0000
  H   H1782     1.0  0.71046  0.45446  0.79826  1.0000
  C   C2215     1.0  0.59994  0.41701  0.76822  1.0000
  H   H1783     1.0  0.73934  0.33041  0.95524  1.0000
  C   C2216     1.0  0.62740  0.35171  0.94837  1.0000
  C   C2217     1.0  0.51403  0.41656  0.81060  1.0000
  C   C2218     1.0  0.62479  0.44327  0.70395  1.0000
  H   H1784     1.0  0.72921  0.35392  0.88707  1.0000
  H   H1785     1.0  0.74898  0.37400  0.86791  1.0000
  H   H1786     1.0  0.77616  0.37682  0.87743  1.0000
  H   H1787     1.0  0.78307  0.35953  0.90645  1.0000
  H   H1788     1.0  0.76327  0.33969  0.92575  1.0000
  C   C2219     1.0  0.71221  0.41120  0.93896  1.0000
  C   C2220     1.0  0.72734  0.39153  0.91860  1.0000
  C   C2221     1.0  0.58818  0.36816  0.77481  1.0000
  C   C2222     1.0  0.58335  0.38165  0.76074  1.0000
  C   C2223     1.0  0.56603  0.39223  0.76243  1.0000
  C   C2224     1.0  0.75411  0.41667  0.94767  1.0000
  C   C2225     1.0  0.54556  0.43374  0.76760  1.0000
  C   C2226     1.0  0.60135  0.43250  0.75527  1.0000
  C   C2227     1.0  0.70520  0.41098  0.79449  1.0000
  H   H1789     1.0  0.60169  0.36013  0.77368  1.0000
  H   H1790     1.0  0.59318  0.38410  0.74864  1.0000
  H   H1791     1.0  0.56263  0.40274  0.75145  1.0000
  H   H1792     1.0  0.59068  0.38820  0.84998  1.0000
  H   H1793     1.0  0.55766  0.42582  0.77193  1.0000
  C   C2228     1.0  0.52916  0.28842  0.90613  1.0000
  C   C2229     1.0  0.68565  0.47310  0.88310  1.0000
  H   H1794     1.0  0.64564  0.44544  0.74629  1.0000
  C   C2230     1.0  0.74459  0.44321  0.96090  1.0000
  C   C2231     1.0  0.55893  0.26968  0.90189  1.0000
  C   C2232     1.0  0.54589  0.28374  0.89536  1.0000
  P   P78       1.0  0.58046  0.26384  0.88771  1.0000
  C   C2233     1.0  0.59352  0.28142  0.88218  1.0000
  H   H1795     1.0  0.68116  0.38384  0.92741  1.0000
  Fe  Fe158     1.0  0.56414  0.47954  0.81538  1.0000
  H   H1796     1.0  0.53419  0.32004  0.94135  1.0000
  C   C2234     1.0  0.63080  0.33583  0.94206  1.0000
  C   C2235     1.0  0.65049  0.42162  0.94818  1.0000
  H   H1797     1.0  0.52013  0.44189  0.85352  1.0000
  C   C2236     1.0  0.58513  0.29929  0.88292  1.0000
  C   C2237     1.0  0.59517  0.31287  0.87742  1.0000
  C   C2238     1.0  0.61365  0.30886  0.87098  1.0000
  C   C2239     1.0  0.62217  0.29117  0.87016  1.0000
  C   C2240     1.0  0.61218  0.27749  0.87574  1.0000
  C   C2241     1.0  0.57608  0.26020  0.86761  1.0000
  H   H1798     1.0  0.70090  0.40174  0.60801  1.0000
  H   H1799     1.0  0.65792  0.29504  0.94562  1.0000
  H   H1800     1.0  0.50265  0.43156  0.76685  1.0000
  C   C2242     1.0  0.58323  0.26294  0.83560  1.0000
  C   C2243     1.0  0.58685  0.26562  0.85109  1.0000
  H   H1801     1.0  0.51899  0.29910  0.90107  1.0000
  H   H1802     1.0  0.84614  0.48681  0.53486  1.0000
  C   C2244     1.0  0.73241  0.46111  0.86567  1.0000
  H   H1803     1.0  0.75862  0.30814  0.97357  1.0000
  H   H1804     1.0  0.54869  0.29097  0.88185  1.0000
  H   H1805     1.0  0.72330  0.47635  0.60782  1.0000
  C   C2245     1.0  0.72385  0.41599  0.84572  1.0000
  S   S310      1.0  0.50112  0.47877  0.85164  1.0000
  H   H1806     1.0  0.67034  0.42470  0.56643  1.0000
  C   C2246     1.0  0.50450  0.29089  0.84046  1.0000
  H   H1807     1.0  0.57084  0.30308  0.88740  1.0000
  H   H1808     1.0  0.58850  0.32665  0.87755  1.0000
  H   H1809     1.0  0.62120  0.31959  0.86605  1.0000
  H   H1810     1.0  0.63640  0.28825  0.86451  1.0000
  H   H1811     1.0  0.61891  0.26397  0.87436  1.0000
  C   C2247     1.0  0.65678  0.46188  0.90841  1.0000
  C   C2248     1.0  0.72519  0.26580  0.93889  1.0000
  C   C2249     1.0  0.52531  0.27924  0.92351  1.0000
  H   H1812     1.0  0.59155  0.26731  0.82293  1.0000
  H   H1813     1.0  0.59792  0.27218  0.84994  1.0000
  H   H1814     1.0  0.65496  0.45455  0.82402  1.0000
  H   H1815     1.0  0.70401  0.36929  0.81975  1.0000
  H   H1816     1.0  0.66697  0.30727  0.86944  1.0000
  H   H1817     1.0  0.58788  0.41645  0.77828  1.0000
  C   C2250     1.0  0.58249  0.41861  0.87631  1.0000
  C   C2251     1.0  0.55853  0.37605  0.79247  1.0000
  H   H1818     1.0  0.57932  0.26701  0.93829  1.0000
  C   C2252     1.0  0.63536  0.42803  0.67354  1.0000
  C   C2253     1.0  0.80706  0.47012  0.58454  1.0000
  C   C2254     1.0  0.63112  0.41826  0.74217  1.0000
  H   H1819     1.0  0.65212  0.38540  0.62711  1.0000
  H   H1820     1.0  0.64538  0.45732  0.91773  1.0000
  C   C2255     1.0  0.51923  0.40130  0.80289  1.0000
  C   C2256     1.0  0.56163  0.44327  0.92398  1.0000
  C   C2257     1.0  0.76241  0.28477  0.94162  1.0000
  C   C2258     1.0  0.73634  0.45291  0.89615  1.0000
  C   C2259     1.0  0.64533  0.40568  0.95809  1.0000
  H   H1821     1.0  0.72652  0.40194  0.89132  1.0000
  C   C2260     1.0  0.64583  0.46444  0.79012  1.0000
  H   H1822     1.0  0.57968  0.35518  0.80172  1.0000
  C   C2261     1.0  0.76802  0.46842  0.57409  1.0000
  C   C2262     1.0  0.70826  0.43117  0.87009  1.0000
  C   C2263     1.0  0.60518  0.38770  0.81609  1.0000
  C   C2264     1.0  0.50533  0.33763  0.78599  1.0000
  C   C2265     1.0  0.57488  0.34572  0.84085  1.0000
  H   H1823     1.0  0.76642  0.47003  0.94822  1.0000
  C   C2266     1.0  0.59426  0.36760  0.91148  1.0000
  C   C2267     1.0  0.56100  0.33745  0.84029  1.0000
  C   C2268     1.0  0.61020  0.35824  0.95731  1.0000
  H   H1824     1.0  0.57167  0.35864  0.84470  1.0000
  H   H1825     1.0  0.72551  0.46086  0.85543  1.0000
  H   H1826     1.0  0.51412  0.26482  0.85526  1.0000
  C   C2269     1.0  0.69175  0.43151  0.86572  1.0000
  C   C2270     1.0  0.55335  0.38944  0.77828  1.0000
  H   H1827     1.0  0.80030  0.46126  0.62039  1.0000
  H   H1828     1.0  0.68172  0.42367  0.63098  1.0000
  C   C2271     1.0  0.60700  0.41753  0.81800  1.0000
  C   C2272     1.0  0.78989  0.48310  0.52613  1.0000
  S   S311      1.0  0.55790  0.41992  0.80854  1.0000
  H   H1829     1.0  0.67908  0.43731  0.87325  1.0000
  H   H1830     1.0  0.61454  0.42667  0.81979  1.0000
  C   C2273     1.0  0.61268  0.44292  0.55979  1.0000
  H   H1831     1.0  0.57339  0.36740  0.93498  1.0000
  C   C2274     1.0  0.71269  0.42186  0.90742  1.0000
  H   H1832     1.0  0.59292  0.32817  0.92095  1.0000
  Fe  Fe159     1.0  0.63977  0.39738  0.92066  1.0000
  C   C2275     1.0  0.57071  0.41254  0.91986  1.0000
  C   C2276     1.0  0.67635  0.41012  0.81437  1.0000
  H   H1833     1.0  0.66282  0.41653  0.81966  1.0000
  C   C2277     1.0  0.64155  0.44324  0.67386  1.0000
  Fe  Fe160     1.0  0.63920  0.42339  0.88573  1.0000
  C   C2278     1.0  0.61408  0.40223  0.76828  1.0000
  C   C2279     1.0  0.50885  0.33238  0.80322  1.0000
  Fe  Fe161     1.0  0.52526  0.35399  0.87058  1.0000
  S   S312      1.0  0.55169  0.45744  0.83404  1.0000
  S   S313      1.0  0.65926  0.48641  0.65690  1.0000
  C   C2280     1.0  0.69963  0.38340  0.81466  1.0000
  S   S314      1.0  0.53843  0.34859  0.84338  1.0000
  C   C2281     1.0  0.67005  0.46672  0.83550  1.0000
  C   C2282     1.0  0.63721  0.30597  0.91667  1.0000
  C   C2283     1.0  0.62958  0.40280  0.75516  1.0000
  C   C2284     1.0  0.68236  0.39209  0.82132  1.0000
  H   H1834     1.0  0.69801  0.41757  0.54432  1.0000
  H   H1835     1.0  0.63631  0.47475  0.55762  1.0000
  C   C2285     1.0  0.58688  0.35998  0.88661  1.0000
  C   C2286     1.0  0.52957  0.31029  0.95281  1.0000
  C   C2287     1.0  0.56996  0.48229  0.87251  1.0000
  H   H1836     1.0  0.73720  0.42290  0.86306  1.0000
  H   H1837     1.0  0.74104  0.37001  0.50747  1.0000
  H   H1838     1.0  0.59060  0.35803  0.87305  1.0000
  C   C2288     1.0  0.75044  0.46232  0.89172  1.0000
  H   H1839     1.0  0.73255  0.44632  0.90972  1.0000
  H   H1840     1.0  0.61307  0.39036  0.77854  1.0000
  H   H1841     1.0  0.60745  0.27207  0.94353  1.0000
  C   C2289     1.0  0.53049  0.42604  0.76972  1.0000
  C   C2290     1.0  0.57942  0.41190  0.81340  1.0000
  C   C2291     1.0  0.52891  0.43121  0.90408  1.0000
  C   C2292     1.0  0.60161  0.30076  0.93384  1.0000
  H   H1842     1.0  0.67340  0.38474  0.83161  1.0000
  H   H1843     1.0  0.66942  0.27908  0.89202  1.0000
  C   C2293     1.0  0.63642  0.45077  0.68905  1.0000
  C   C2294     1.0  0.72745  0.48648  0.93007  1.0000
  C   C2295     1.0  0.70343  0.47680  0.74994  1.0000
  C   C2296     1.0  0.58724  0.39381  0.81412  1.0000
  C   C2297     1.0  0.58228  0.28036  0.93473  1.0000
  S   S315      1.0  0.65199  0.37350  0.90788  1.0000
  P   P79       1.0  0.53068  0.40274  0.78002  1.0000
  Fe  Fe162     1.0  0.52532  0.47515  0.82983  1.0000
  C   C2298     1.0  0.66015  0.29100  0.89542  1.0000
  Fe  Fe163     1.0  0.63255  0.38607  0.88977  1.0000
  C   C2299     1.0  0.65591  0.27782  0.97123  1.0000
  C   C2300     1.0  0.74530  0.31754  0.95145  1.0000
  H   H1844     1.0  0.56497  0.32282  0.91580  1.0000
  C   C2301     1.0  0.62063  0.48080  0.85197  1.0000
  C   C2302     1.0  0.53870  0.33950  0.79187  1.0000
  C   C2303     1.0  0.65876  0.30682  0.88266  1.0000
  P   P80       1.0  0.61828  0.45227  0.72401  1.0000
  C   C2304     1.0  0.57415  0.31182  0.92211  1.0000
  H   H1845     1.0  0.55781  0.29266  0.92482  1.0000
  H   H1846     1.0  0.68462  0.47315  0.62867  1.0000
  C   C2305     1.0  0.83869  0.46420  0.57111  1.0000
  C   C2306     1.0  0.57026  0.29466  0.92699  1.0000
  C   C2307     1.0  0.75663  0.30512  0.96170  1.0000
  H   H1847     1.0  0.70812  0.32390  0.95796  1.0000
  C   C2308     1.0  0.52563  0.38988  0.75198  1.0000
  C   C2309     1.0  0.69979  0.43414  0.49341  1.0000
  H   H1848     1.0  0.66655  0.46329  0.74821  1.0000
  C   C2310     1.0  0.70764  0.42487  0.92486  1.0000
  C   C2311     1.0  0.72525  0.30741  0.88235  1.0000
  H   H1849     1.0  0.60678  0.40385  0.86271  1.0000
  H   H1850     1.0  0.66750  0.43522  0.53062  1.0000
  C   C2312     1.0  0.68272  0.41785  0.57088  1.0000
  H   H1851     1.0  0.79543  0.37041  0.97586  1.0000
  H   H1852     1.0  0.56038  0.35452  0.89050  1.0000
  H   H1853     1.0  0.76919  0.27211  0.93778  1.0000
  C   C2313     1.0  0.69828  0.41373  0.55829  1.0000
  Fe  Fe164     1.0  0.52659  0.35800  0.90715  1.0000
  H   H1854     1.0  0.68798  0.40564  0.65966  1.0000
  H   H1855     1.0  0.70852  0.36670  0.91202  1.0000
  C   C2314     1.0  0.51847  0.30432  0.86271  1.0000
  C   C2315     1.0  0.60114  0.46112  0.84110  1.0000
  H   H1856     1.0  0.55158  0.34026  0.79430  1.0000
  C   C2316     1.0  0.51997  0.28582  0.86470  1.0000
  H   H1857     1.0  0.52865  0.33011  0.81915  1.0000
  H   H1858     1.0  0.59841  0.42252  0.60788  1.0000
  C   C2317     1.0  0.61808  0.42839  0.70323  1.0000
  S   S316      1.0  0.56559  0.46963  0.79076  1.0000
  C   C2318     1.0  0.56436  0.40223  0.86022  1.0000
  C   C2319     1.0  0.59684  0.46746  0.72485  1.0000
  C   C2320     1.0  0.51182  0.30784  0.95631  1.0000
  H   H1859     1.0  0.81666  0.46440  0.49261  1.0000
  H   H1860     1.0  0.66051  0.48322  0.57854  1.0000
  C   C2321     1.0  0.66129  0.45527  0.59000  1.0000
  H   H1861     1.0  0.55286  0.24804  0.88079  1.0000
  H   H1862     1.0  0.58650  0.39450  0.93802  1.0000
  C   C2322     1.0  0.57958  0.42128  0.94327  1.0000
  P   P81       1.0  0.72969  0.33083  0.92168  1.0000
  H   H1863     1.0  0.75046  0.47735  0.84776  1.0000
  H   H1864     1.0  0.70128  0.30463  0.87517  1.0000
  S   S317      1.0  0.52347  0.46503  0.80634  1.0000
  C   C2323     1.0  0.65962  0.39021  0.63419  1.0000
  C   C2324     1.0  0.64431  0.41293  0.59994  1.0000
  C   C2325     1.0  0.72064  0.32185  0.90743  1.0000
  C   C2326     1.0  0.56490  0.36081  0.91388  1.0000
  C   C2327     1.0  0.62795  0.46765  0.78806  1.0000
  C   C2328     1.0  0.70888  0.44799  0.74163  1.0000
  C   C2329     1.0  0.58310  0.39811  0.85772  1.0000
  C   C2330     1.0  0.69503  0.31735  0.89772  1.0000
  Fe  Fe165     1.0  0.55083  0.44903  0.80930  1.0000
  C   C2331     1.0  0.59219  0.40673  0.86525  1.0000
  C   C2332     1.0  0.52915  0.46270  0.75546  1.0000
  H   H1865     1.0  0.56008  0.48088  0.70533  1.0000
  S   S318      1.0  0.52580  0.37773  0.88145  1.0000
  C   C2333     1.0  0.56885  0.48019  0.71428  1.0000
  C   C2334     1.0  0.69972  0.40488  0.59426  1.0000
  H   H1866     1.0  0.69722  0.48780  0.59843  1.0000
  H   H1867     1.0  0.74908  0.29371  0.91962  1.0000
  H   H1868     1.0  0.73162  0.25933  0.92772  1.0000
  H   H1869     1.0  0.78040  0.46623  0.56450  1.0000
  C   C2335     1.0  0.71518  0.40062  0.58162  1.0000
  H   H1870     1.0  0.63478  0.38296  0.58038  1.0000
  C   C2336     1.0  0.81651  0.46615  0.47867  1.0000
  C   C2337     1.0  0.74479  0.39667  0.49441  1.0000
  H   H1871     1.0  0.64579  0.42777  0.93598  1.0000
  C   C2338     1.0  0.54150  0.48551  0.86391  1.0000
  H   H1872     1.0  0.63936  0.47152  0.63417  1.0000
  C   C2339     1.0  0.56223  0.43026  0.91430  1.0000
  C   C2340     1.0  0.68331  0.41354  0.58901  1.0000
  C   C2341     1.0  0.78249  0.33548  0.96581  1.0000
  C   C2342     1.0  0.55460  0.41426  0.87114  1.0000
  C   C2343     1.0  0.72161  0.26670  0.96999  1.0000
  C   C2344     1.0  0.73568  0.47412  0.59829  1.0000
  C   C2345     1.0  0.56361  0.42194  0.87985  1.0000
  S   S319      1.0  0.54357  0.35818  0.92619  1.0000
  H   H1873     1.0  0.57905  0.45739  0.88902  1.0000
  C   C2346     1.0  0.69705  0.47540  0.92692  1.0000
  H   H1874     1.0  0.69249  0.33025  0.91919  1.0000
  C   C2347     1.0  0.49947  0.39428  0.77532  1.0000
  H   H1875     1.0  0.64418  0.33109  0.93503  1.0000
  C   C2348     1.0  0.62351  0.42070  0.68817  1.0000
  H   H1876     1.0  0.50857  0.33036  0.84865  1.0000
  C   C2349     1.0  0.51401  0.45523  0.75771  1.0000
  H   H1877     1.0  0.78644  0.34313  0.95271  1.0000
  H   H1878     1.0  0.79416  0.46053  0.65229  1.0000
  C   C2350     1.0  0.49977  0.39942  0.83780  1.0000
  H   H1879     1.0  0.80361  0.31262  0.96167  1.0000
  C   C2351     1.0  0.74650  0.47053  0.86128  1.0000
  H   H1880     1.0  0.51840  0.37311  0.80726  1.0000
  H   H1881     1.0  0.75741  0.46277  0.90182  1.0000
  C   C2352     1.0  0.74250  0.37395  0.47941  1.0000
  H   H1882     1.0  0.60759  0.25624  0.90992  1.0000
  H   H1883     1.0  0.65073  0.44902  0.66252  1.0000
  C   C2353     1.0  0.64557  0.45849  0.73780  1.0000
  C   C2354     1.0  0.61911  0.45557  0.56508  1.0000
  H   H1884     1.0  0.51776  0.42914  0.80344  1.0000
  C   C2355     1.0  0.69903  0.45807  0.80847  1.0000
  C   C2356     1.0  0.50974  0.31608  0.84984  1.0000
  H   H1885     1.0  0.58949  0.46009  0.70330  1.0000
  H   H1886     1.0  0.61450  0.45807  0.57844  1.0000
  H   H1887     1.0  0.69906  0.45777  0.95193  1.0000
  H   H1888     1.0  0.63991  0.42177  0.66208  1.0000
  H   H1889     1.0  0.97308  0.48300  0.56829  1.0000
  C   C2357     1.0  0.60022  0.47943  0.83380  1.0000
  H   H1890     1.0  0.69297  0.30130  0.94976  1.0000
  C   C2358     1.0  0.74218  0.47970  0.96609  1.0000
  C   C2359     1.0  0.72001  0.47357  0.94363  1.0000
  H   H1891     1.0  0.66564  0.44190  0.94657  1.0000
  C   C2360     1.0  0.70444  0.48833  0.91357  1.0000
  C   C2361     1.0  0.67231  0.45851  0.51020  1.0000
  Fe  Fe166     1.0  0.53811  0.48679  0.79027  1.0000
  H   H1892     1.0  0.85116  0.46888  0.56523  1.0000
  H   H1893     1.0  0.71414  0.46961  0.82068  1.0000
  C   C2362     1.0  0.61966  0.28118  0.97025  1.0000
  C   C2363     1.0  0.63133  0.44898  0.53068  1.0000
  C   C2364     1.0  0.65751  0.46868  0.73899  1.0000
  C   C2365     1.0  0.66157  0.42961  0.95420  1.0000
  C   C2366     1.0  0.50501  0.38415  0.83028  1.0000
  C   C2367     1.0  0.70347  0.28948  0.95127  1.0000
  H   H1894     1.0  0.69542  0.48757  0.55136  1.0000
  H   H1895     1.0  0.69650  0.47756  0.87294  1.0000
  C   C2368     1.0  0.76755  0.41003  0.95773  1.0000
  H   H1896     1.0  0.74853  0.42210  0.47778  1.0000
  C   C2369     1.0  0.50088  0.42569  0.86892  1.0000
  H   H1897     1.0  0.85209  0.38738  0.48931  1.0000
  C   C2370     1.0  0.71089  0.46584  0.73745  1.0000
  C   C2371     1.0  0.59643  0.34869  0.96025  1.0000
  C   C2372     1.0  0.51306  0.27914  0.85354  1.0000
  H   H1898     1.0  0.58305  0.35388  0.96696  1.0000
  C   C2373     1.0  0.70118  0.46657  0.82121  1.0000
  H   H1899     1.0  0.54100  0.25225  0.97256  1.0000
  H   H1900     1.0  0.60752  0.37078  0.96181  1.0000
  H   H1901     1.0  0.57046  0.44902  0.94537  1.0000
  H   H1902     1.0  0.58905  0.32534  0.95675  1.0000
  H   H1903     1.0  0.65893  0.46973  0.84618  1.0000
  H   H1904     1.0  0.52853  0.47689  0.75021  1.0000
  C   C2374     1.0  0.68663  0.47104  0.83463  1.0000
  C   C2375     1.0  0.63425  0.46494  0.72542  1.0000
  H   H1905     1.0  0.50034  0.42748  0.83373  1.0000
  H   H1906     1.0  0.64195  0.46214  0.68912  1.0000
  C   C2376     1.0  0.69412  0.46985  0.76666  1.0000
  C   C2377     1.0  0.51451  0.38510  0.81284  1.0000
  H   H1907     1.0  0.77465  0.27958  0.96448  1.0000
  C   C2378     1.0  0.51786  0.39443  0.76861  1.0000
  C   C2379     1.0  0.51465  0.43699  0.76482  1.0000
  C   C2380     1.0  0.51530  0.38496  0.74243  1.0000
  C   C2381     1.0  0.66788  0.42130  0.96984  1.0000
  C   C2382     1.0  0.82310  0.47622  0.57665  1.0000
  C   C2383     1.0  0.50275  0.30949  0.83856  1.0000
  C   C2384     1.0  0.69728  0.45239  0.48596  1.0000
  C   C2385     1.0  0.51857  0.34338  0.77178  1.0000
  C   C2386     1.0  0.67720  0.48129  0.53812  1.0000
  H   H1908     1.0  0.61930  0.48058  0.78917  1.0000
  H   H1909     1.0  0.64123  0.48758  0.89903  1.0000
  C   C2387     1.0  0.55547  0.24868  0.97152  1.0000
  C   C2388     1.0  0.74686  0.40870  0.47818  1.0000
  S   S320      1.0  0.49673  0.36183  0.91621  1.0000
  H   H1910     1.0  0.49915  0.28531  0.83210  1.0000
  H   H1911     1.0  0.74086  0.36050  0.47998  1.0000
  C   C2389     1.0  0.68363  0.46453  0.49429  1.0000
  C   C2390     1.0  0.55803  0.24950  0.85276  1.0000
  H   H1912     1.0  0.97206  0.47693  0.53931  1.0000
  C   C2391     1.0  0.76954  0.41987  0.96943  1.0000
  H   H1913     1.0  0.81047  0.47650  0.54178  1.0000
  H   H1914     1.0  0.74615  0.47733  0.64196  1.0000
  C   C2392     1.0  0.63757  0.46202  0.53574  1.0000
  C   C2393     1.0  0.61888  0.43953  0.54265  1.0000
  H   H1915     1.0  0.50279  0.31552  0.94748  1.0000
  C   C2394     1.0  0.75808  0.43636  0.97107  1.0000
  C   C2395     1.0  0.63150  0.46509  0.55313  1.0000
  C   C2396     1.0  0.73661  0.48253  0.58053  1.0000
  C   C2397     1.0  0.59131  0.47847  0.73752  1.0000
  C   C2398     1.0  0.67537  0.44018  0.51795  1.0000
  C   C2399     1.0  0.75287  0.47987  0.56849  1.0000
  H   H1916     1.0  0.63617  0.44609  0.51748  1.0000
  H   H1917     1.0  0.53515  0.25823  0.94360  1.0000
  H   H1918     1.0  0.62188  0.47604  0.50482  1.0000
  H   H1919     1.0  0.69138  0.41394  0.51543  1.0000
  C   C2400     1.0  0.60446  0.24366  0.90943  1.0000
  P   P82       1.0  0.65376  0.47409  0.52016  1.0000
  C   C2401     1.0  0.65826  0.48538  0.72790  1.0000
  H   H1920     1.0  0.69186  0.48294  0.97172  1.0000
  C   C2402     1.0  0.50582  0.29525  0.97097  1.0000
  H   H1921     1.0  0.50169  0.46373  0.75426  1.0000
  H   H1922     1.0  0.59977  0.47782  0.74676  1.0000
  S   S321      1.0  0.73671  0.48612  0.67727  1.0000
  C   C2403     1.0  0.79225  0.31822  0.97090  1.0000
  C   C2404     1.0  0.67997  0.48721  0.62408  1.0000
  C   C2405     1.0  0.56156  0.25218  0.86829  1.0000
  H   H1923     1.0  0.56595  0.25295  0.82441  1.0000
  H   H1924     1.0  0.71055  0.42479  0.48707  1.0000
  H   H1925     1.0  0.56436  0.24905  0.92480  1.0000
  C   C2406     1.0  0.63481  0.48192  0.71452  1.0000
  H   H1926     1.0  0.62609  0.48725  0.70495  1.0000
  C   C2407     1.0  0.80124  0.48717  0.53522  1.0000
  H   H1927     1.0  0.76934  0.48596  0.61586  1.0000
  C   C2408     1.0  0.75394  0.48689  0.64225  1.0000
  C   C2409     1.0  0.49656  0.44096  0.91237  1.0000
  H   H1928     1.0  0.49774  0.30309  0.79468  1.0000
  C   C2410     1.0  0.49712  0.38458  0.74936  1.0000
  H   H1929     1.0  0.49561  0.25085  0.90626  1.0000
  H   H1930     1.0  0.49508  0.25030  0.93766  1.0000
  S   S322      1.0  0.49511  0.35756  0.87665  1.0000
  C   C2411     1.0  0.66118  0.48741  0.53162  1.0000
  C   C2412     1.0  0.62836  0.48715  0.49792  1.0000
  S   S323      1.0  0.68335  0.42977  0.97654  1.0000
  S   S324      1.0  0.95254  0.72761  0.40907  1.0000
  C   C2413     1.0  0.77524  0.49605  0.32167  1.0000
  C   C2414     1.0  0.97800  0.65273  0.43550  1.0000
  Fe  Fe167     1.0  0.88185  0.50181  0.35728  1.0000
  C   C2415     1.0  0.96102  0.55548  0.35720  1.0000
  S   S325      1.0  0.88849  0.52655  0.36443  1.0000
  C   C2416     1.0  0.88390  0.52488  0.46661  1.0000
  H   H1931     1.0  0.97267  0.51584  0.31527  1.0000
  H   H1932     1.0  0.92741  0.57757  0.27657  1.0000
  C   C2417     1.0  0.84568  0.70456  0.42498  1.0000
  H   H1933     1.0  0.92298  0.59733  0.36107  1.0000
  C   C2418     1.0  0.97954  0.55763  0.31369  1.0000
  Fe  Fe168     1.0  0.92581  0.72207  0.40840  1.0000
  S   S326      1.0  0.92150  0.71100  0.38629  1.0000
  H   H1934     1.0  0.95511  0.52139  0.36621  1.0000
  Fe  Fe169     1.0  0.94351  0.56760  0.42012  1.0000
  S   S327      1.0  0.92319  0.59308  0.41675  1.0000
  S   S328      1.0  0.93834  0.54264  0.41201  1.0000
  H   H1935     1.0  0.69213  0.52072  0.46907  1.0000
  S   S329      1.0  0.94699  0.61169  0.43442  1.0000
  Fe  Fe170     1.0  0.92547  0.59507  0.44380  1.0000
  S   S330      1.0  0.90132  0.60194  0.46491  1.0000
  Fe  Fe171     1.0  0.94671  0.60708  0.40777  1.0000
  S   S331      1.0  0.94754  0.62835  0.38286  1.0000
  S   S332      1.0  0.94455  0.56883  0.44828  1.0000
  S   S333      1.0  0.96755  0.58155  0.40985  1.0000
  C   C2419     1.0  0.88090  0.64451  0.43745  1.0000
  H   H1936     1.0  0.82234  0.51861  0.39248  1.0000
  C   C2420     1.0  0.85151  0.73473  0.41675  1.0000
  H   H1937     1.0  0.76286  0.50074  0.41512  1.0000
  C   C2421     1.0  0.69302  0.50043  0.20242  1.0000
  H   H1938     1.0  0.99453  0.67265  0.46578  1.0000
  C   C2422     1.0  0.92876  0.68787  0.38613  1.0000
  C   C2423     1.0  0.93390  0.68237  0.36980  1.0000
  C   C2424     1.0  0.93977  0.66416  0.36900  1.0000
  C   C2425     1.0  0.94006  0.65114  0.38453  1.0000
  C   C2426     1.0  0.93429  0.65652  0.40090  1.0000
  C   C2427     1.0  0.92900  0.67489  0.40174  1.0000
  H   H1939     1.0  0.93362  0.69229  0.35769  1.0000
  H   H1940     1.0  0.94403  0.66014  0.35628  1.0000
  H   H1941     1.0  0.93386  0.64647  0.41287  1.0000
  H   H1942     1.0  0.92474  0.67897  0.41441  1.0000
  C   C2428     1.0  0.90181  0.53061  0.37851  1.0000
  C   C2429     1.0  0.91192  0.51682  0.38913  1.0000
  C   C2430     1.0  0.92277  0.52076  0.39927  1.0000
  C   C2431     1.0  0.92357  0.53855  0.39942  1.0000
  C   C2432     1.0  0.91291  0.55233  0.38934  1.0000
  C   C2433     1.0  0.90236  0.54841  0.37892  1.0000
  H   H1943     1.0  0.91165  0.50306  0.38928  1.0000
  H   H1944     1.0  0.93071  0.50984  0.40699  1.0000
  H   H1945     1.0  0.91293  0.56609  0.38942  1.0000
  H   H1946     1.0  0.89455  0.55933  0.37107  1.0000
  H   H1947     1.0  0.94723  0.59104  0.37806  1.0000
  H   H1948     1.0  0.98658  0.53875  0.45077  1.0000
  P   P83       1.0  0.94842  0.54488  0.33200  1.0000
  C   C2434     1.0  0.94997  0.51424  0.35910  1.0000
  H   H1949     1.0  0.95202  0.49029  0.37926  1.0000
  S   S334      1.0  0.92016  0.70860  0.43677  1.0000
  C   C2435     1.0  0.90969  0.53938  0.45676  1.0000
  H   H1950     1.0  0.93343  0.65227  0.44033  1.0000
  C   C2436     1.0  0.77571  0.50493  0.41056  1.0000
  H   H1951     1.0  0.93563  0.64519  0.47185  1.0000
  H   H1952     1.0  0.71434  0.50906  0.18155  1.0000
  H   H1953     1.0  0.76064  0.49857  0.35633  1.0000
  C   C2437     1.0  0.83613  0.65609  0.45447  1.0000
  H   H1954     1.0  0.92267  0.57712  0.34184  1.0000
  Fe  Fe172     1.0  0.94584  0.71591  0.43790  1.0000
  Fe  Fe173     1.0  0.96647  0.58547  0.43776  1.0000
  C   C2438     1.0  0.82956  0.59237  0.47149  1.0000
  C   C2439     1.0  0.78769  0.50203  0.42210  1.0000
  C   C2440     1.0  0.90554  0.57009  0.29739  1.0000
  C   C2441     1.0  0.94720  0.55881  0.34760  1.0000
  C   C2442     1.0  0.89475  0.67628  0.45767  1.0000
  H   H1955     1.0  0.94216  0.51122  0.47037  1.0000
  C   C2443     1.0  0.86687  0.71264  0.43812  1.0000
  H   H1956     1.0  0.90437  0.63308  0.39837  1.0000
  C   C2444     1.0  0.87558  0.66301  0.43171  1.0000
  C   C2445     1.0  0.96090  0.56694  0.36829  1.0000
  C   C2446     1.0  0.75066  0.49014  0.36061  1.0000
  H   H1957     1.0  0.91941  0.67656  0.46526  1.0000
  H   H1958     1.0  0.97313  0.57002  0.31826  1.0000
  H   H1959     1.0  0.81007  0.51155  0.45233  1.0000
  H   H1960     1.0  0.92330  0.53967  0.44944  1.0000
  H   H1961     1.0  0.81396  0.50530  0.42395  1.0000
  C   C2447     1.0  0.77336  0.52689  0.45156  1.0000
  H   H1962     1.0  0.83847  0.52095  0.43529  1.0000
  H   H1963     1.0  0.74015  0.49965  0.38511  1.0000
  C   C2448     1.0  0.76336  0.51258  0.31897  1.0000
  C   C2449     1.0  0.77003  0.52846  0.31244  1.0000
  C   C2450     1.0  0.78859  0.52789  0.30845  1.0000
  C   C2451     1.0  0.80048  0.51145  0.31086  1.0000
  H   H1964     1.0  0.85602  0.53364  0.44941  1.0000
  C   C2452     1.0  0.95100  0.51889  0.47255  1.0000
  H   H1965     1.0  0.90968  0.54790  0.33903  1.0000
  C   C2453     1.0  0.93759  0.51279  0.33439  1.0000
  H   H1966     1.0  0.89988  0.68048  0.44369  1.0000
  S   S335      1.0  0.99162  0.58221  0.45057  1.0000
  H   H1967     1.0  0.97156  0.68849  0.41090  1.0000
  C   C2454     1.0  0.85807  0.69968  0.43636  1.0000
  C   C2455     1.0  0.89083  0.63375  0.42538  1.0000
  H   H1968     1.0  0.68562  0.51391  0.20314  1.0000
  H   H1969     1.0  0.96688  0.52037  0.44610  1.0000
  C   C2456     1.0  0.97891  0.68710  0.36721  1.0000
  C   C2457     1.0  0.98854  0.72052  0.47414  1.0000
  C   C2458     1.0  0.99136  0.66854  0.39828  1.0000
  H   H1970     1.0  0.93353  0.51871  0.32182  1.0000
  H   H1971     1.0  0.83589  0.49556  0.28043  1.0000
  C   C2459     1.0  0.77028  0.50930  0.45774  1.0000
  H   H1972     1.0  0.76081  0.54119  0.31047  1.0000
  H   H1973     1.0  0.79381  0.54015  0.30342  1.0000
  H   H1974     1.0  0.81491  0.51092  0.30773  1.0000
  C   C2460     1.0  0.83826  0.53031  0.47516  1.0000
  P   P84       1.0  0.86293  0.67664  0.44763  1.0000
  S   S336      1.0  0.85384  0.49636  0.35964  1.0000
  C   C2461     1.0  0.90021  0.55331  0.46548  1.0000
  H   H1975     1.0  0.74896  0.51315  0.32201  1.0000
  H   H1976     1.0  0.89473  0.61950  0.42997  1.0000
  H   H1977     1.0  0.90901  0.51434  0.45059  1.0000
  C   C2462     1.0  0.99289  0.60797  0.47017  1.0000
  C   C2463     1.0  0.84074  0.57548  0.47181  1.0000
  C   C2464     1.0  0.88118  0.67069  0.41385  1.0000
  C   C2465     1.0  0.89608  0.64138  0.40759  1.0000
  C   C2466     1.0  0.97775  0.71710  0.46391  1.0000
  C   C2467     1.0  0.70920  0.49769  0.19027  1.0000
  H   H1978     1.0  0.96061  0.65611  0.41708  1.0000
  H   H1979     1.0  0.81541  0.64051  0.45998  1.0000
  H   H1980     1.0  0.89605  0.66588  0.38821  1.0000
  C   C2468     1.0  0.93359  0.58563  0.35994  1.0000
  H   H1981     1.0  0.97840  0.61092  0.47217  1.0000
  H   H1982     1.0  0.97137  0.56412  0.37595  1.0000
  H   H1983     1.0  0.87830  0.68503  0.40911  1.0000
  C   C2469     1.0  0.90593  0.67376  0.46979  1.0000
  H   H1984     1.0  0.72047  0.49271  0.98432  1.0000
  H   H1985     1.0  0.83883  0.69473  0.42337  1.0000
  C   C2470     1.0  0.80761  0.66180  0.47474  1.0000
  S   S337      1.0  0.89062  0.49178  0.33126  1.0000
  S   S338      1.0  0.96605  0.69406  0.44966  1.0000
  H   H1986     1.0  0.77125  0.51467  0.38389  1.0000
  C   C2471     1.0  0.78041  0.51290  0.39275  1.0000
  C   C2472     1.0  0.96153  0.65370  0.43082  1.0000
  H   H1987     1.0  0.90657  0.56429  0.46508  1.0000
  C   C2473     1.0  0.97970  0.69967  0.46119  1.0000
  C   C2474     1.0  0.80440  0.50738  0.41547  1.0000
  H   H1988     1.0  0.73791  0.51349  0.98792  1.0000
  C   C2475     1.0  0.89130  0.65986  0.40185  1.0000
  C   C2476     1.0  0.83388  0.52216  0.44905  1.0000
  C   C2477     1.0  0.96499  0.52395  0.45890  1.0000
  C   C2478     1.0  0.97778  0.68395  0.39856  1.0000
  C   C2479     1.0  0.87701  0.67349  0.46356  1.0000
  C   C2480     1.0  0.97922  0.52724  0.31202  1.0000
  C   C2481     1.0  0.97890  0.64908  0.45345  1.0000
  H   H1989     1.0  0.83313  0.69207  0.47283  1.0000
  H   H1990     1.0  0.93714  0.59877  0.47020  1.0000
  H   H1991     1.0  0.80107  0.52349  0.37233  1.0000
  C   C2482     1.0  0.79720  0.51784  0.38624  1.0000
  H   H1992     1.0  0.64268  0.66824  0.47343  1.0000
  H   H1993     1.0  0.83306  0.72563  0.40627  1.0000
  C   C2483     1.0  0.94821  0.49649  0.36661  1.0000
  C   C2484     1.0  0.97163  0.69317  0.38306  1.0000
  H   H1994     1.0  0.98708  0.73383  0.47647  1.0000
  C   C2485     1.0  0.99277  0.68602  0.46803  1.0000
  C   C2486     1.0  0.96367  0.64633  0.46650  1.0000
  C   C2487     1.0  0.81783  0.51692  0.45859  1.0000
  C   C2488     1.0  0.97613  0.53423  0.46153  1.0000
  Fe  Fe174     1.0  0.90750  0.73593  0.44243  1.0000
  H   H1995     1.0  0.78216  0.53046  0.43901  1.0000
  C   C2489     1.0  0.84242  0.72202  0.41522  1.0000
  C   C2490     1.0  0.93183  0.55501  0.31828  1.0000
  C   C2491     1.0  0.92359  0.57104  0.29021  1.0000
  C   C2492     1.0  0.88246  0.55327  0.47445  1.0000
  H   H1996     1.0  0.62331  0.52339  0.46443  1.0000
  H   H1997     1.0  0.84481  0.64827  0.44508  1.0000
  H   H1998     1.0  0.89537  0.57583  0.28935  1.0000
  C   C2493     1.0  0.80918  0.51508  0.39760  1.0000
  C   C2494     1.0  0.90160  0.52510  0.45743  1.0000
  H   H1999     1.0  0.76752  0.55362  0.45690  1.0000
  C   C2495     1.0  0.91368  0.55427  0.32539  1.0000
  C   C2496     1.0  0.94619  0.65137  0.44391  1.0000
  C   C2497     1.0  0.94473  0.52255  0.34286  1.0000
  C   C2498     1.0  0.84396  0.52909  0.45722  1.0000
  C   C2499     1.0  0.76508  0.54010  0.46165  1.0000
  C   C2500     1.0  0.73907  0.49079  0.37701  1.0000
  C   C2501     1.0  0.75886  0.50519  0.47416  1.0000
  H   H2000     1.0  0.88665  0.56084  0.32068  1.0000
  C   C2502     1.0  0.93347  0.57402  0.34907  1.0000
  C   C2503     1.0  0.94736  0.64743  0.46173  1.0000
  C   C2504     1.0  0.79386  0.49557  0.31731  1.0000
  H   H2001     1.0  0.83140  0.60285  0.45988  1.0000
  C   C2505     1.0  0.94725  0.58207  0.36958  1.0000
  C   C2506     1.0  0.90060  0.56170  0.31500  1.0000
  H   H2002     1.0  0.96078  0.70474  0.38339  1.0000
  H   H2003     1.0  0.85091  0.57300  0.46022  1.0000
  H   H2004     1.0  0.95061  0.56436  0.29477  1.0000
  H   H2005     1.0  0.87628  0.70951  0.44696  1.0000
  C   C2507     1.0  0.93570  0.49514  0.34203  1.0000
  C   C2508     1.0  0.93673  0.56352  0.30060  1.0000
  C   C2509     1.0  0.97076  0.54298  0.31849  1.0000
  P   P85       1.0  0.78148  0.49190  0.44523  1.0000
  C   C2510     1.0  0.82940  0.68075  0.46997  1.0000
  C   C2511     1.0  0.81935  0.65169  0.46283  1.0000
  H   H2006     1.0  0.87756  0.63838  0.45130  1.0000
  C   C2512     1.0  0.84138  0.67053  0.45817  1.0000
  H   H2007     1.0  0.97368  0.69403  0.35539  1.0000
  C   C2513     1.0  0.86368  0.73004  0.42820  1.0000
  H   H2008     1.0  0.74220  0.49798  0.44857  1.0000
  H   H2009     1.0  0.98644  0.62231  0.41967  1.0000
  H   H2010     1.0  0.99139  0.64816  0.45738  1.0000
  C   C2514     1.0  0.62900  0.51395  0.47502  1.0000
  H   H2011     1.0  0.96785  0.72779  0.45841  1.0000
  C   C2515     1.0  0.87397  0.53931  0.47462  1.0000
  C   C2516     1.0  0.99255  0.67189  0.36675  1.0000
  H   H2012     1.0  0.97200  0.54412  0.35602  1.0000
  H   H2013     1.0  0.87790  0.51358  0.46723  1.0000
  C   C2517     1.0  0.74409  0.50398  0.97926  1.0000
  H   H2014     1.0  0.65053  0.52781  0.47257  1.0000
  C   C2518     1.0  0.81163  0.51888  0.47617  1.0000
  H   H2015     1.0  0.57973  0.65618  0.57169  1.0000
  H   H2016     1.0  0.66690  0.49778  0.87684  1.0000
  H   H2017     1.0  0.61050  0.60173  0.54730  1.0000
  C   C2519     1.0  0.96112  0.61613  0.61768  1.0000
  H   H2018     1.0  0.50179  0.55842  0.76480  1.0000
  C   C2520     1.0  0.94539  0.61684  0.61186  1.0000
  C   C2521     1.0  0.63950  0.67071  0.51635  1.0000
  H   H2019     1.0  0.90493  0.57012  0.59515  1.0000
  C   C2522     1.0  0.49636  0.50484  0.77378  1.0000
  C   C2523     1.0  0.97761  0.60725  0.60944  1.0000
  Fe  Fe175     1.0  0.88434  0.67566  0.54752  1.0000
  S   S339      1.0  0.91447  0.67051  0.54064  1.0000
  S   S340      1.0  0.86610  0.70168  0.53897  1.0000
  Fe  Fe176     1.0  0.88318  0.63919  0.57166  1.0000
  S   S341      1.0  0.91314  0.63108  0.56707  1.0000
  S   S342      1.0  0.86635  0.62052  0.59072  1.0000
  Fe  Fe177     1.0  0.91303  0.65892  0.56953  1.0000
  Fe  Fe178     1.0  0.91190  0.64319  0.53870  1.0000
  S   S343      1.0  0.93146  0.62945  0.51803  1.0000
  S   S344      1.0  0.88300  0.66612  0.57670  1.0000
  S   S345      1.0  0.88171  0.64935  0.54301  1.0000
  C   C2524     1.0  0.51457  0.54192  0.80457  1.0000
  H   H2020     1.0  0.74709  0.54609  0.48572  1.0000
  S   S346      1.0  0.76334  0.59572  0.58415  1.0000
  S   S347      1.0  0.92889  0.66481  0.58688  1.0000
  C   C2525     1.0  0.69197  0.52374  0.48171  1.0000
  Fe  Fe179     1.0  0.68169  0.59003  0.55318  1.0000
  S   S348      1.0  0.65557  0.59487  0.54390  1.0000
  S   S349      1.0  0.69572  0.61334  0.54796  1.0000
  Fe  Fe180     1.0  0.68011  0.55121  0.56926  1.0000
  S   S350      1.0  0.65398  0.55306  0.56158  1.0000
  S   S351      1.0  0.69343  0.52393  0.58107  1.0000
  Fe  Fe181     1.0  0.66648  0.56817  0.53564  1.0000
  S   S352      1.0  0.66460  0.56207  0.50982  1.0000
  Fe  Fe182     1.0  0.64588  0.57917  0.57082  1.0000
  S   S353      1.0  0.61831  0.58522  0.58789  1.0000
  S   S354      1.0  0.69332  0.56474  0.54271  1.0000
  S   S355      1.0  0.67124  0.57607  0.58074  1.0000
  Fe  Fe183     1.0  0.57151  0.66699  0.62370  1.0000
  S   S356      1.0  0.55256  0.66456  0.60765  1.0000
  S   S357      1.0  0.60126  0.65834  0.61478  1.0000
  Fe  Fe184     1.0  0.54125  0.68266  0.65129  1.0000
  S   S358      1.0  0.51982  0.68054  0.63787  1.0000
  C   C2526     1.0  0.50527  0.66989  0.60139  1.0000
  Fe  Fe185     1.0  0.53678  0.65378  0.63409  1.0000
  S   S359      1.0  0.52487  0.62956  0.63731  1.0000
  Fe  Fe186     1.0  0.53769  0.69156  0.61301  1.0000
  S   S360      1.0  0.53021  0.71485  0.59149  1.0000
  S   S361      1.0  0.55667  0.65467  0.64993  1.0000
  S   S362      1.0  0.55830  0.69507  0.62660  1.0000
  C   C2527     1.0  0.75164  0.49355  0.65767  1.0000
  C   C2528     1.0  0.84990  0.49983  0.53052  1.0000
  C   C2529     1.0  0.98059  0.55652  0.59061  1.0000
  H   H2021     1.0  0.80346  0.68433  0.48730  1.0000
  C   C2530     1.0  0.97733  0.56630  0.57402  1.0000
  H   H2022     1.0  0.52860  0.55211  0.77853  1.0000
  H   H2023     1.0  0.76809  0.52538  0.51183  1.0000
  H   H2024     1.0  0.61259  0.66034  0.48602  1.0000
  H   H2025     1.0  0.64942  0.52277  0.63707  1.0000
  H   H2026     1.0  0.62582  0.51173  0.66938  1.0000
  C   C2531     1.0  0.61392  0.60504  0.59619  1.0000
  C   C2532     1.0  0.59656  0.61137  0.60508  1.0000
  C   C2533     1.0  0.59262  0.62759  0.61105  1.0000
  C   C2534     1.0  0.60610  0.63748  0.60831  1.0000
  C   C2535     1.0  0.62359  0.63079  0.60016  1.0000
  C   C2536     1.0  0.62749  0.61472  0.59386  1.0000
  H   H2027     1.0  0.58596  0.60407  0.60682  1.0000
  H   H2028     1.0  0.57913  0.63243  0.61768  1.0000
  H   H2029     1.0  0.63403  0.63826  0.59850  1.0000
  H   H2030     1.0  0.64093  0.60986  0.58709  1.0000
  C   C2537     1.0  0.74498  0.60060  0.57348  1.0000
  C   C2538     1.0  0.74260  0.58872  0.56398  1.0000
  C   C2539     1.0  0.72739  0.59251  0.55619  1.0000
  C   C2540     1.0  0.71482  0.60840  0.55750  1.0000
  C   C2541     1.0  0.71758  0.62064  0.56637  1.0000
  C   C2542     1.0  0.73242  0.61656  0.57467  1.0000
  H   H2031     1.0  0.62569  0.68886  0.56235  1.0000
  H   H2032     1.0  0.72550  0.58323  0.54900  1.0000
  H   H2033     1.0  0.70797  0.63304  0.56722  1.0000
  H   H2034     1.0  0.73423  0.62577  0.58199  1.0000
  S   S363      1.0  0.53273  0.50533  0.76474  1.0000
  C   C2543     1.0  0.60358  0.61389  0.55211  1.0000
  C   C2544     1.0  0.86169  0.60466  0.58103  1.0000
  C   C2545     1.0  0.86795  0.60454  0.56301  1.0000
  C   C2546     1.0  0.86408  0.59184  0.55544  1.0000
  C   C2547     1.0  0.97327  0.53953  0.47776  1.0000
  H   H2035     1.0  0.87610  0.61396  0.55494  1.0000
  H   H2036     1.0  0.86909  0.59184  0.54152  1.0000
  C   C2548     1.0  0.96182  0.52588  0.54646  1.0000
  C   C2549     1.0  0.92256  0.62035  0.50477  1.0000
  C   C2550     1.0  0.90402  0.62192  0.50653  1.0000
  H   H2037     1.0  0.56219  0.53150  0.72897  1.0000
  H   H2038     1.0  0.89481  0.62799  0.51690  1.0000
  C   C2551     1.0  0.89737  0.61612  0.49441  1.0000
  C   C2552     1.0  0.88606  0.70643  0.50490  1.0000
  H   H2039     1.0  0.97509  0.56222  0.60239  1.0000
  C   C2553     1.0  0.62005  0.66335  0.49446  1.0000
  C   C2554     1.0  0.97310  0.58666  0.51137  1.0000
  H   H2040     1.0  0.87541  0.56418  0.48115  1.0000
  C   C2555     1.0  0.87073  0.71266  0.51681  1.0000
  H   H2041     1.0  0.64809  0.52765  0.54471  1.0000
  P   P86       1.0  0.95507  0.54123  0.51272  1.0000
  H   H2042     1.0  0.96456  0.64306  0.48035  1.0000
  C   C2556     1.0  0.62104  0.49930  0.48418  1.0000
  H   H2043     1.0  0.89537  0.69448  0.50935  1.0000
  H   H2044     1.0  0.96648  0.51435  0.57287  1.0000
  H   H2045     1.0  0.83355  0.64510  0.49832  1.0000
  S   S364      1.0  0.81736  0.52961  0.56497  1.0000
  C   C2557     1.0  0.88235  0.66421  0.49361  1.0000
  C   C2558     1.0  0.51792  0.62043  0.65967  1.0000
  C   C2559     1.0  0.52815  0.61967  0.67215  1.0000
  C   C2560     1.0  0.52283  0.61150  0.68982  1.0000
  C   C2561     1.0  0.68046  0.53911  0.48693  1.0000
  C   C2562     1.0  0.66772  0.52366  0.61185  1.0000
  H   H2046     1.0  0.54031  0.62505  0.66817  1.0000
  H   H2047     1.0  0.53053  0.61121  0.69952  1.0000
  P   P87       1.0  0.85092  0.53936  0.48597  1.0000
  C   C2563     1.0  0.90947  0.57854  0.56685  1.0000
  H   H2048     1.0  0.51041  0.68138  0.60179  1.0000
  C   C2564     1.0  0.58655  0.64464  0.56590  1.0000
  H   H2049     1.0  0.99434  0.62686  0.48557  1.0000
  H   H2050     1.0  0.98638  0.64973  0.54656  1.0000
  C   C2565     1.0  0.89983  0.66748  0.48774  1.0000
  H   H2051     1.0  0.69148  0.53500  0.52677  1.0000
  C   C2566     1.0  0.84731  0.57953  0.58382  1.0000
  H   H2052     1.0  0.88307  0.61801  0.49539  1.0000
  H   H2053     1.0  0.97537  0.68729  0.52347  1.0000
  H   H2054     1.0  0.65989  0.67481  0.49285  1.0000
  C   C2567     1.0  0.94815  0.52408  0.48884  1.0000
  H   H2055     1.0  0.50543  0.61480  0.73888  1.0000
  H   H2056     1.0  0.65470  0.51868  0.67068  1.0000
  C   C2568     1.0  0.65167  0.50431  0.49321  1.0000
  C   C2569     1.0  0.51076  0.57843  0.57582  1.0000
  C   C2570     1.0  0.99057  0.62491  0.52276  1.0000
  C   C2571     1.0  0.61161  0.62894  0.54721  1.0000
  C   C2572     1.0  0.92103  0.58545  0.55171  1.0000
  C   C2573     1.0  0.53392  0.64530  0.70549  1.0000
  C   C2574     1.0  0.60321  0.64446  0.55411  1.0000
  C   C2575     1.0  0.73029  0.54355  0.57093  1.0000
  C   C2576     1.0  0.74116  0.52655  0.57354  1.0000
  C   C2577     1.0  0.74372  0.51788  0.59057  1.0000
  C   C2578     1.0  0.73533  0.52615  0.60499  1.0000
  C   C2579     1.0  0.72468  0.54340  0.60245  1.0000
  C   C2580     1.0  0.72209  0.55198  0.58531  1.0000
  P   P88       1.0  0.71634  0.55505  0.62076  1.0000
  C   C2581     1.0  0.70953  0.53952  0.64069  1.0000
  C   C2582     1.0  0.73449  0.56385  0.62401  1.0000
  C   C2583     1.0  0.73127  0.58076  0.62855  1.0000
  C   C2584     1.0  0.74531  0.58713  0.63161  1.0000
  C   C2585     1.0  0.76252  0.57647  0.63070  1.0000
  C   C2586     1.0  0.76566  0.55939  0.62687  1.0000
  C   C2587     1.0  0.75178  0.55316  0.62341  1.0000
  C   C2588     1.0  0.70104  0.52584  0.64016  1.0000
  C   C2589     1.0  0.69510  0.51433  0.65579  1.0000
  C   C2590     1.0  0.69758  0.51641  0.67198  1.0000
  C   C2591     1.0  0.70614  0.52991  0.67257  1.0000
  C   C2592     1.0  0.71203  0.54150  0.65700  1.0000
  C   C2593     1.0  0.69716  0.57271  0.61687  1.0000
  C   C2594     1.0  0.67962  0.57073  0.62581  1.0000
  C   C2595     1.0  0.66509  0.58500  0.62368  1.0000
  C   C2596     1.0  0.69974  0.58890  0.60529  1.0000
  H   H2057     1.0  0.72823  0.55015  0.55774  1.0000
  H   H2058     1.0  0.74772  0.52021  0.56232  1.0000
  H   H2059     1.0  0.75246  0.50489  0.59257  1.0000
  H   H2060     1.0  0.73756  0.51923  0.61806  1.0000
  H   H2061     1.0  0.71381  0.56515  0.58292  1.0000
  H   H2062     1.0  0.71800  0.58909  0.62978  1.0000
  H   H2063     1.0  0.74290  0.60041  0.63448  1.0000
  H   H2064     1.0  0.77346  0.58146  0.63283  1.0000
  H   H2065     1.0  0.77891  0.55097  0.62640  1.0000
  H   H2066     1.0  0.75465  0.53992  0.62042  1.0000
  H   H2067     1.0  0.69899  0.52406  0.62769  1.0000
  H   H2068     1.0  0.68886  0.50360  0.65529  1.0000
  H   H2069     1.0  0.69337  0.50727  0.68403  1.0000
  H   H2070     1.0  0.70861  0.53108  0.68505  1.0000
  H   H2071     1.0  0.71866  0.55186  0.65775  1.0000
  H   H2072     1.0  0.67706  0.55823  0.63436  1.0000
  H   H2073     1.0  0.65157  0.58338  0.63041  1.0000
  C   C2597     1.0  0.98365  0.69485  0.57439  1.0000
  C   C2598     1.0  0.80381  0.60941  0.58537  1.0000
  C   C2599     1.0  0.81200  0.61756  0.59427  1.0000
  C   C2600     1.0  0.82110  0.63134  0.58493  1.0000
  C   C2601     1.0  0.82197  0.63706  0.56670  1.0000
  C   C2602     1.0  0.81338  0.62923  0.55769  1.0000
  C   C2603     1.0  0.80446  0.61520  0.56718  1.0000
  P   P89       1.0  0.81281  0.63754  0.53444  1.0000
  C   C2604     1.0  0.82925  0.62347  0.52078  1.0000
  C   C2605     1.0  0.79049  0.63708  0.53198  1.0000
  C   C2606     1.0  0.78810  0.62846  0.51935  1.0000
  C   C2607     1.0  0.77538  0.64386  0.54390  1.0000
  C   C2608     1.0  0.83687  0.63089  0.50341  1.0000
  C   C2609     1.0  0.96492  0.69818  0.57931  1.0000
  C   C2610     1.0  0.85328  0.60154  0.49863  1.0000
  C   C2611     1.0  0.84542  0.59400  0.51571  1.0000
  C   C2612     1.0  0.83350  0.60491  0.52680  1.0000
  C   C2613     1.0  0.81743  0.66001  0.52800  1.0000
  C   C2614     1.0  0.83519  0.66252  0.52546  1.0000
  C   C2615     1.0  0.83898  0.67978  0.52095  1.0000
  C   C2616     1.0  0.82515  0.69468  0.51879  1.0000
  H   H2074     1.0  0.67181  0.54787  0.47830  1.0000
  C   C2617     1.0  0.80357  0.67508  0.52575  1.0000
  H   H2075     1.0  0.79686  0.59862  0.59257  1.0000
  H   H2076     1.0  0.81167  0.61293  0.60832  1.0000
  H   H2077     1.0  0.82791  0.63730  0.59176  1.0000
  H   H2078     1.0  0.82928  0.64762  0.55990  1.0000
  H   H2079     1.0  0.79770  0.60888  0.56065  1.0000
  H   H2080     1.0  0.79951  0.62267  0.51037  1.0000
  H   H2081     1.0  0.77695  0.64997  0.55418  1.0000
  H   H2082     1.0  0.51644  0.53423  0.74043  1.0000
  C   C2618     1.0  0.93537  0.70532  0.50999  1.0000
  C   C2619     1.0  0.51011  0.51308  0.76254  1.0000
  H   H2083     1.0  0.84849  0.57968  0.52043  1.0000
  H   H2084     1.0  0.82765  0.59876  0.54001  1.0000
  H   H2085     1.0  0.84606  0.65110  0.52741  1.0000
  H   H2086     1.0  0.85260  0.68169  0.51953  1.0000
  H   H2087     1.0  0.74150  0.51517  0.49666  1.0000
  H   H2088     1.0  0.75628  0.49175  0.47926  1.0000
  H   H2089     1.0  0.78978  0.67362  0.52765  1.0000
  C   C2620     1.0  0.77810  0.50341  0.62784  1.0000
  H   H2090     1.0  0.60916  0.49738  0.48064  1.0000
  H   H2091     1.0  0.92597  0.69559  0.49134  1.0000
  H   H2092     1.0  0.60958  0.50321  0.83348  1.0000
  C   C2621     1.0  0.99314  0.59930  0.54676  1.0000
  H   H2093     1.0  0.99184  0.68835  0.58426  1.0000
  H   H2094     1.0  0.92378  0.71605  0.51130  1.0000
  C   C2622     1.0  0.57848  0.62961  0.57068  1.0000
  C   C2623     1.0  0.58705  0.61420  0.56387  1.0000
  H   H2095     1.0  0.56591  0.62971  0.58020  1.0000
  H   H2096     1.0  0.58126  0.60226  0.56819  1.0000
  C   C2624     1.0  0.90215  0.55237  0.53771  1.0000
  C   C2625     1.0  0.75047  0.51845  0.48409  1.0000
  H   H2097     1.0  0.85510  0.62575  0.47920  1.0000
  C   C2626     1.0  0.96503  0.67745  0.50593  1.0000
  C   C2627     1.0  0.96422  0.68919  0.51695  1.0000
  C   C2628     1.0  0.94937  0.70328  0.51907  1.0000
  H   H2098     1.0  0.97672  0.66691  0.50395  1.0000
  C   C2629     1.0  0.61285  0.66248  0.51251  1.0000
  C   C2630     1.0  0.98398  0.55829  0.55911  1.0000
  S   S365      1.0  0.79746  0.50573  0.61116  1.0000
  H   H2099     1.0  0.96062  0.62318  0.62802  1.0000
  C   C2631     1.0  0.92279  0.56157  0.50401  1.0000
  H   H2100     1.0  0.71307  0.59052  0.59797  1.0000
  H   H2101     1.0  0.89679  0.57595  0.56581  1.0000
  C   C2632     1.0  0.99180  0.69928  0.55664  1.0000
  H   H2102     1.0  0.82819  0.70802  0.51558  1.0000
  H   H2103     1.0  0.59389  0.69406  0.52398  1.0000
  H   H2104     1.0  0.90868  0.66501  0.49708  1.0000
  C   C2633     1.0  0.49917  0.67510  0.73386  1.0000
  H   H2105     1.0  0.98780  0.71018  0.53004  1.0000
  C   C2634     1.0  0.77089  0.62651  0.51879  1.0000
  H   H2106     1.0  0.53901  0.55605  0.73998  1.0000
  C   C2635     1.0  0.67218  0.50853  0.54939  1.0000
  S   S366      1.0  0.84988  0.56291  0.55633  1.0000
  H   H2107     1.0  0.58955  0.56827  0.61548  1.0000
  H   H2108     1.0  0.65596  0.54892  0.67399  1.0000
  H   H2109     1.0  0.64733  0.67348  0.52459  1.0000
  H   H2110     1.0  0.93380  0.60961  0.59343  1.0000
  C   C2636     1.0  0.64248  0.52877  0.67205  1.0000
  H   H2111     1.0  0.65119  0.68519  0.57685  1.0000
  H   H2112     1.0  0.79896  0.51516  0.48345  1.0000
  C   C2637     1.0  0.85243  0.52676  0.50797  1.0000
  H   H2113     1.0  0.62445  0.62836  0.53812  1.0000
  C   C2638     1.0  0.64316  0.54582  0.67394  1.0000
  C   C2639     1.0  0.63471  0.67601  0.56400  1.0000
  C   C2640     1.0  0.64934  0.67407  0.57206  1.0000
  C   C2641     1.0  0.50136  0.60515  0.58872  1.0000
  C   C2642     1.0  0.75818  0.64213  0.54313  1.0000
  C   C2643     1.0  0.94210  0.58573  0.56976  1.0000
  H   H2114     1.0  0.75234  0.57653  0.56271  1.0000
  H   H2115     1.0  0.87770  0.65914  0.50745  1.0000
  C   C2644     1.0  0.76218  0.50567  0.65786  1.0000
  C   C2645     1.0  0.66146  0.65776  0.57409  1.0000
  H   H2116     1.0  0.99357  0.53172  0.60495  1.0000
  Fe  Fe187     1.0  0.78270  0.57059  0.57838  1.0000
  H   H2117     1.0  0.76934  0.49379  0.51053  1.0000
  H   H2118     1.0  0.76055  0.51083  0.66973  1.0000
  P   P90       1.0  0.61347  0.66408  0.54706  1.0000
  C   C2646     1.0  0.99169  0.58057  0.50944  1.0000
  C   C2647     1.0  0.63192  0.66150  0.55815  1.0000
  C   C2648     1.0  0.80746  0.69234  0.52115  1.0000
  S   S367      1.0  0.53374  0.69544  0.67536  1.0000
  C   C2649     1.0  0.95940  0.53426  0.49167  1.0000
  H   H2119     1.0  0.96749  0.60067  0.51172  1.0000
  C   C2650     1.0  0.96238  0.71014  0.54856  1.0000
  H   H2120     1.0  0.55926  0.63853  0.68807  1.0000
  C   C2651     1.0  0.91497  0.71405  0.55026  1.0000
  C   C2652     1.0  0.62614  0.52486  0.67136  1.0000
  H   H2121     1.0  0.60420  0.56486  0.64053  1.0000
  C   C2653     1.0  0.65897  0.64342  0.56800  1.0000
  C   C2654     1.0  0.64438  0.64528  0.55994  1.0000
  H   H2122     1.0  0.86186  0.54715  0.51548  1.0000
  C   C2655     1.0  0.65607  0.51458  0.54317  1.0000
  H   H2123     1.0  0.52755  0.65336  0.69469  1.0000
  C   C2656     1.0  0.96406  0.61825  0.54417  1.0000
  H   H2124     1.0  0.86282  0.59315  0.49018  1.0000
  H   H2125     1.0  0.57161  0.70313  0.58583  1.0000
  C   C2657     1.0  0.59672  0.68375  0.55132  1.0000
  C   C2658     1.0  0.58937  0.69591  0.53751  1.0000
  C   C2659     1.0  0.62257  0.66605  0.52362  1.0000
  H   H2126     1.0  0.99374  0.53688  0.50932  1.0000
  H   H2127     1.0  0.67272  0.65615  0.58045  1.0000
  C   C2660     1.0  0.98125  0.70699  0.54378  1.0000
  H   H2128     1.0  0.78418  0.51900  0.64376  1.0000
  C   C2661     1.0  0.63699  0.66781  0.48737  1.0000
  C   C2662     1.0  0.55198  0.63691  0.70165  1.0000
  C   C2663     1.0  0.58142  0.57109  0.62804  1.0000
  C   C2664     1.0  0.56058  0.62645  0.71528  1.0000
  C   C2665     1.0  0.68279  0.49198  0.54674  1.0000
  C   C2666     1.0  0.68724  0.49553  0.60711  1.0000
  C   C2667     1.0  0.64668  0.67153  0.49830  1.0000
  H   H2129     1.0  0.66811  0.63066  0.56989  1.0000
  H   H2130     1.0  0.64283  0.63392  0.55538  1.0000
  C   C2668     1.0  0.75594  0.63329  0.53072  1.0000
  C   C2669     1.0  0.87094  0.66722  0.48164  1.0000
  C   C2670     1.0  0.62744  0.55893  0.67542  1.0000
  H   H2131     1.0  0.62849  0.57208  0.67653  1.0000
  C   C2671     1.0  0.55670  0.49235  0.86308  1.0000
  C   C2672     1.0  0.98140  0.65088  0.58996  1.0000
  H   H2132     1.0  0.64753  0.50491  0.70695  1.0000
  C   C2673     1.0  0.81321  0.58191  0.50079  1.0000
  C   C2674     1.0  0.70275  0.51623  0.50917  1.0000
  H   H2133     1.0  0.72483  0.49139  0.57617  1.0000
  H   H2134     1.0  0.57450  0.61991  0.71229  1.0000
  H   H2135     1.0  0.96381  0.64052  0.52227  1.0000
  H   H2136     1.0  0.74662  0.64702  0.55262  1.0000
  C   C2675     1.0  0.58970  0.56911  0.64236  1.0000
  H   H2137     1.0  0.55659  0.57968  0.61834  1.0000
  H   H2138     1.0  0.69828  0.49419  0.90210  1.0000
  H   H2139     1.0  0.91722  0.58845  0.53888  1.0000
  C   C2676     1.0  0.59029  0.68655  0.56875  1.0000
  H   H2140     1.0  0.59551  0.67716  0.57966  1.0000
  H   H2141     1.0  0.57037  0.49845  0.74856  1.0000
  C   C2677     1.0  0.81573  0.59555  0.48594  1.0000
  C   C2678     1.0  0.56290  0.57757  0.62961  1.0000
  C   C2679     1.0  0.61043  0.53797  0.67266  1.0000
  C   C2680     1.0  0.84888  0.61996  0.49243  1.0000
  H   H2142     1.0  0.95210  0.67118  0.48772  1.0000
  C   C2681     1.0  0.90413  0.56752  0.50716  1.0000
  H   H2143     1.0  0.89400  0.54896  0.55075  1.0000
  C   C2682     1.0  0.61085  0.55505  0.67503  1.0000
  C   C2683     1.0  0.95235  0.65832  0.58116  1.0000
  S   S368      1.0  0.71626  0.49229  0.48623  1.0000
  C   C2684     1.0  0.80027  0.50501  0.53629  1.0000
  H   H2144     1.0  0.52708  0.67079  0.73626  1.0000
  H   H2145     1.0  0.58485  0.53799  0.70197  1.0000
  H   H2146     1.0  0.92074  0.69992  0.55127  1.0000
  C   C2685     1.0  0.55125  0.62454  0.73279  1.0000
  C   C2686     1.0  0.52432  0.64316  0.72304  1.0000
  H   H2147     1.0  0.66326  0.53784  0.60724  1.0000
  H   H2148     1.0  0.59797  0.53485  0.67162  1.0000
  C   C2687     1.0  0.95119  0.67978  0.49678  1.0000
  C   C2688     1.0  0.57677  0.70125  0.57231  1.0000
  S   S369      1.0  0.80070  0.57198  0.55172  1.0000
  C   C2689     1.0  0.68002  0.54316  0.50329  1.0000
  C   C2690     1.0  0.93440  0.61187  0.49169  1.0000
  C   C2691     1.0  0.51414  0.67978  0.73724  1.0000
  C   C2692     1.0  0.85148  0.59204  0.59146  1.0000
  C   C2693     1.0  0.50231  0.61319  0.66494  1.0000
  C   C2694     1.0  0.57942  0.57319  0.65855  1.0000
  C   C2695     1.0  0.56079  0.57964  0.66003  1.0000
  C   C2696     1.0  0.56343  0.49107  0.72696  1.0000
  C   C2697     1.0  0.83847  0.56179  0.48680  1.0000
  H   H2149     1.0  0.55796  0.61653  0.74336  1.0000
  C   C2698     1.0  0.73424  0.49213  0.97719  1.0000
  H   H2150     1.0  0.53148  0.49303  0.85615  1.0000
  C   C2699     1.0  0.53323  0.63299  0.73669  1.0000
  C   C2700     1.0  0.99008  0.64888  0.57276  1.0000
  P   P91       1.0  0.59036  0.57193  0.67658  1.0000
  C   C2701     1.0  0.55261  0.58186  0.64559  1.0000
  C   C2702     1.0  0.99096  0.53917  0.59213  1.0000
  C   C2703     1.0  0.85867  0.72811  0.51109  1.0000
  H   H2151     1.0  0.94873  0.61065  0.49019  1.0000
  H   H2152     1.0  0.74266  0.63127  0.53068  1.0000
  H   H2153     1.0  0.84665  0.59206  0.60542  1.0000
  C   C2704     1.0  0.85373  0.57933  0.56583  1.0000
  C   C2705     1.0  0.96181  0.57485  0.51237  1.0000
  H   H2154     1.0  0.53832  0.58738  0.64668  1.0000
  H   H2155     1.0  0.60237  0.58673  0.70115  1.0000
  H   H2156     1.0  0.94610  0.59411  0.54122  1.0000
  C   C2706     1.0  0.97439  0.60288  0.55268  1.0000
  H   H2157     1.0  0.95306  0.65799  0.55394  1.0000
  C   C2707     1.0  0.92079  0.54618  0.53461  1.0000
  H   H2158     1.0  0.93985  0.70747  0.57069  1.0000
  H   H2159     1.0  0.62793  0.48856  0.85624  1.0000
  H   H2160     1.0  0.71119  0.50742  0.51792  1.0000
  H   H2161     1.0  0.85684  0.49983  0.55526  1.0000
  C   C2708     1.0  0.57512  0.54901  0.70663  1.0000
  C   C2709     1.0  0.59571  0.59349  0.67510  1.0000
  C   C2710     1.0  0.60134  0.59691  0.68928  1.0000
  H   H2162     1.0  0.83945  0.56981  0.59195  1.0000
  C   C2711     1.0  0.50743  0.72414  0.59104  1.0000
  H   H2163     1.0  0.50520  0.64418  0.57264  1.0000
  H   H2164     1.0  0.52318  0.61475  0.59383  1.0000
  S   S370      1.0  0.78767  0.54129  0.52789  1.0000
  C   C2712     1.0  0.76189  0.50355  0.97023  1.0000
  H   H2165     1.0  0.50737  0.56793  0.57124  1.0000
  H   H2166     1.0  0.95602  0.65773  0.60732  1.0000
  C   C2713     1.0  0.57506  0.56677  0.69745  1.0000
  H   H2167     1.0  0.55254  0.58342  0.67212  1.0000
  H   H2168     1.0  0.59014  0.60478  0.64866  1.0000
  H   H2169     1.0  0.95854  0.69431  0.59300  1.0000
  C   C2714     1.0  0.54924  0.55906  0.72833  1.0000
  C   C2715     1.0  0.87717  0.73127  0.48162  1.0000
  H   H2170     1.0  0.88852  0.70928  0.56349  1.0000
  C   C2716     1.0  0.60599  0.61340  0.68808  1.0000
  C   C2717     1.0  0.59444  0.60691  0.65986  1.0000
  H   H2171     1.0  0.52633  0.53904  0.81051  1.0000
  H   H2172     1.0  0.61058  0.61592  0.69893  1.0000
  H   H2173     1.0  0.68733  0.61558  0.59426  1.0000
  C   C2718     1.0  0.51950  0.60504  0.58835  1.0000
  C   C2719     1.0  0.50738  0.60399  0.69499  1.0000
  C   C2720     1.0  0.56227  0.54521  0.72202  1.0000
  C   C2721     1.0  0.59878  0.62345  0.65888  1.0000
  P   P92       1.0  0.96382  0.58855  0.57172  1.0000
  C   C2722     1.0  0.50080  0.55282  0.77882  1.0000
  H   H2174     1.0  0.82336  0.49026  0.57514  1.0000
  C   C2723     1.0  0.56198  0.58060  0.70404  1.0000
  C   C2724     1.0  0.60459  0.62671  0.67292  1.0000
  H   H2175     1.0  0.59769  0.63378  0.64715  1.0000
  C   C2725     1.0  0.96613  0.51166  0.56020  1.0000
  H   H2176     1.0  0.52622  0.63155  0.75036  1.0000
  C   C2726     1.0  0.68520  0.60315  0.60325  1.0000
  H   H2177     1.0  0.56133  0.59435  0.69701  1.0000
  H   H2178     1.0  0.60799  0.63958  0.67196  1.0000
  S   S371      1.0  0.80493  0.55682  0.59340  1.0000
  C   C2727     1.0  0.96093  0.65601  0.56400  1.0000
  C   C2728     1.0  0.84841  0.50949  0.51350  1.0000
  H   H2179     1.0  0.98923  0.64888  0.60006  1.0000
  P   P93       1.0  0.94885  0.71978  0.53175  1.0000
  H   H2180     1.0  0.86495  0.52974  0.54529  1.0000
  C   C2729     1.0  0.86042  0.52406  0.53636  1.0000
  H   H2181     1.0  0.63804  0.50909  0.52963  1.0000
  H   H2182     1.0  0.66353  0.50651  0.49657  1.0000
  H   H2183     1.0  0.66788  0.49299  0.72858  1.0000
  C   C2730     1.0  0.89384  0.56291  0.52395  1.0000
  C   C2731     1.0  0.57467  0.49019  0.73856  1.0000
  C   C2732     1.0  0.96263  0.65587  0.59407  1.0000
  C   C2733     1.0  0.66793  0.60127  0.61261  1.0000
  C   C2734     1.0  0.54916  0.57675  0.71940  1.0000
  H   H2184     1.0  0.80223  0.58415  0.51187  1.0000
  H   H2185     1.0  0.93274  0.62460  0.61754  1.0000
  H   H2186     1.0  0.53877  0.58742  0.72413  1.0000
  S   S372      1.0  0.77431  0.54531  0.57802  1.0000
  H   H2187     1.0  0.98992  0.60749  0.61333  1.0000
  H   H2188     1.0  0.89760  0.57573  0.49657  1.0000
  C   C2735     1.0  0.85857  0.53392  0.51948  1.0000
  H   H2189     1.0  0.80890  0.50810  0.54345  1.0000
  H   H2190     1.0  0.98112  0.56550  0.54632  1.0000
  H   H2191     1.0  0.92676  0.53779  0.54545  1.0000
  H   H2192     1.0  0.51467  0.71303  0.64709  1.0000
  H   H2193     1.0  0.67668  0.51678  0.55595  1.0000
  H   H2194     1.0  0.72540  0.50383  0.90472  1.0000
  C   C2736     1.0  0.89678  0.71932  0.55743  1.0000
  C   C2737     1.0  0.56952  0.71327  0.55853  1.0000
  C   C2738     1.0  0.92570  0.72689  0.54197  1.0000
  C   C2739     1.0  0.50254  0.64867  0.58505  1.0000
  C   C2740     1.0  0.64431  0.51644  0.47955  1.0000
  H   H2195     1.0  0.50125  0.59946  0.62771  1.0000
  C   C2741     1.0  0.50642  0.71636  0.65927  1.0000
  H   H2196     1.0  0.55043  0.50009  0.72795  1.0000
  H   H2197     1.0  0.93402  0.57556  0.59779  1.0000
  H   H2198     1.0  0.84403  0.50340  0.50482  1.0000
  S   S373      1.0  0.53770  0.49835  0.81357  1.0000
  C   C2742     1.0  0.50586  0.52788  0.74926  1.0000
  C   C2743     1.0  0.69152  0.53189  0.51422  1.0000
  C   C2744     1.0  0.68173  0.51383  0.60124  1.0000
  C   C2745     1.0  0.51312  0.71066  0.67491  1.0000
  Fe  Fe188     1.0  0.82230  0.55613  0.56648  1.0000
  H   H2199     1.0  0.94976  0.62186  0.54904  1.0000
  H   H2200     1.0  0.55856  0.50512  0.85460  1.0000
  C   C2746     1.0  0.57583  0.71062  0.54114  1.0000
  C   C2747     1.0  0.93642  0.69370  0.49877  1.0000
  H   H2201     1.0  0.76913  0.61924  0.50952  1.0000
  H   H2202     1.0  0.85760  0.66432  0.48660  1.0000
  C   C2748     1.0  0.65996  0.51513  0.62876  1.0000
  Fe  Fe189     1.0  0.79424  0.54551  0.55243  1.0000
  H   H2203     1.0  0.50770  0.71152  0.70263  1.0000
  C   C2749     1.0  0.93050  0.57849  0.58486  1.0000
  H   H2204     1.0  0.65670  0.61231  0.61101  1.0000
  C   C2750     1.0  0.93128  0.55063  0.51765  1.0000
  S   S374      1.0  0.58684  0.49109  0.81813  1.0000
  C   C2751     1.0  0.76713  0.49180  0.62740  1.0000
  C   C2752     1.0  0.96482  0.50481  0.52755  1.0000
  C   C2753     1.0  0.97833  0.59879  0.59559  1.0000
  H   H2205     1.0  0.52420  0.69994  0.74419  1.0000
  C   C2754     1.0  0.94606  0.60834  0.59806  1.0000
  C   C2755     1.0  0.51586  0.54935  0.78656  1.0000
  P   P94       1.0  0.50091  0.65366  0.72825  1.0000
  C   C2756     1.0  0.96981  0.49403  0.55763  1.0000
  H   H2206     1.0  0.79672  0.70394  0.51967  1.0000
  C   C2757     1.0  0.78833  0.51880  0.52781  1.0000
  C   C2758     1.0  0.77544  0.51048  0.64307  1.0000
  C   C2759     1.0  0.96249  0.59893  0.59007  1.0000
  C   C2760     1.0  0.50903  0.66361  0.58563  1.0000
  C   C2761     1.0  0.65054  0.50406  0.53441  1.0000
  H   H2207     1.0  0.81653  0.52748  0.49795  1.0000
  H   H2208     1.0  0.98161  0.54820  0.47900  1.0000
  C   C2762     1.0  0.97982  0.65148  0.55977  1.0000
  H   H2209     1.0  0.55490  0.72892  0.63841  1.0000
  Fe  Fe190     1.0  0.79788  0.53144  0.59078  1.0000
  C   C2763     1.0  0.77730  0.51472  0.51841  1.0000
  C   C2764     1.0  0.91414  0.57514  0.58342  1.0000
  H   H2210     1.0  0.93704  0.52033  0.49917  1.0000
  C   C2765     1.0  0.93737  0.58885  0.55313  1.0000
  C   C2766     1.0  0.70289  0.51203  0.49295  1.0000
  H   H2211     1.0  0.51684  0.67048  0.57387  1.0000
  H   H2212     1.0  0.55878  0.72445  0.56143  1.0000
  H   H2213     1.0  0.49776  0.53180  0.82867  1.0000
  H   H2214     1.0  0.93053  0.56532  0.49084  1.0000
  C   C2767     1.0  0.49708  0.59140  0.58294  1.0000
  C   C2768     1.0  0.52880  0.57883  0.57486  1.0000
  C   C2769     1.0  0.85593  0.50711  0.54195  1.0000
  C   C2770     1.0  0.88925  0.73748  0.55671  1.0000
  C   C2771     1.0  0.82452  0.56507  0.50124  1.0000
  C   C2772     1.0  0.53315  0.59206  0.58124  1.0000
  H   H2215     1.0  0.76951  0.51271  0.97189  1.0000
  C   C2773     1.0  0.95430  0.70564  0.56647  1.0000
  H   H2216     1.0  0.95886  0.53950  0.54868  1.0000
  H   H2217     1.0  0.53374  0.73217  0.61847  1.0000
  C   C2774     1.0  0.81261  0.67638  0.47822  1.0000
  C   C2775     1.0  0.98782  0.55073  0.51006  1.0000
  H   H2218     1.0  0.94747  0.57986  0.51361  1.0000
  C   C2776     1.0  0.96920  0.49061  0.54131  1.0000
  H   H2219     1.0  0.87941  0.56751  0.52632  1.0000
  C   C2777     1.0  0.96102  0.52256  0.53007  1.0000
  H   H2220     1.0  0.49891  0.68251  0.69761  1.0000
  H   H2221     1.0  0.90108  0.71104  0.47794  1.0000
  H   H2222     1.0  0.82195  0.55451  0.51264  1.0000
  C   C2778     1.0  0.96914  0.55683  0.51158  1.0000
  C   C2779     1.0  0.97206  0.62900  0.52904  1.0000
  H   H2223     1.0  0.64644  0.49356  0.60660  1.0000
  H   H2224     1.0  0.59977  0.65885  0.51786  1.0000
  H   H2225     1.0  0.57002  0.71987  0.53053  1.0000
  H   H2226     1.0  0.99128  0.59250  0.58893  1.0000
  C   C2780     1.0  0.51258  0.69635  0.74176  1.0000
  H   H2227     1.0  0.54710  0.59215  0.58091  1.0000
  C   C2781     1.0  0.77795  0.49688  0.51772  1.0000
  C   C2782     1.0  0.88931  0.71578  0.48724  1.0000
  C   C2783     1.0  0.49708  0.60483  0.68256  1.0000
  H   H2228     1.0  0.96450  0.50181  0.51505  1.0000
  S   S375      1.0  0.50083  0.59402  0.71712  1.0000
  C   C2784     1.0  0.64686  0.49204  0.71568  1.0000
  C   C2785     1.0  0.92779  0.60557  0.47999  1.0000
  C   C2786     1.0  0.66657  0.49697  0.63505  1.0000
  H   H2229     1.0  0.53940  0.56874  0.56943  1.0000
  C   C2787     1.0  0.82170  0.52574  0.48439  1.0000
  H   H2230     1.0  0.94465  0.73758  0.49552  1.0000
  H   H2231     1.0  0.49962  0.49319  0.78379  1.0000
  H   H2232     1.0  0.80679  0.60846  0.48549  1.0000
  C   C2788     1.0  0.50255  0.71585  0.69049  1.0000
  C   C2789     1.0  0.49826  0.53778  0.81485  1.0000
  C   C2790     1.0  0.71969  0.49379  0.91509  1.0000
  C   C2791     1.0  0.64372  0.48961  0.50262  1.0000
  C   C2792     1.0  0.86183  0.73733  0.49355  1.0000
  H   H2233     1.0  0.70475  0.49072  0.74657  1.0000
  C   C2793     1.0  0.90929  0.60829  0.48087  1.0000
  C   C2794     1.0  0.75359  0.53588  0.47789  1.0000
  H   H2234     1.0  0.79461  0.65839  0.48120  1.0000
  H   H2235     1.0  0.49645  0.70635  0.61430  1.0000
  H   H2236     1.0  0.84684  0.73299  0.52028  1.0000
  C   C2795     1.0  0.61022  0.48910  0.83909  1.0000
  C   C2796     1.0  0.49606  0.70830  0.74304  1.0000
  C   C2797     1.0  0.76986  0.49128  0.95907  1.0000
  H   H2237     1.0  0.78367  0.49095  0.95208  1.0000
  H   H2238     1.0  0.73912  0.49107  0.93102  1.0000
  C   C2798     1.0  0.99441  0.54100  0.56063  1.0000
  C   C2799     1.0  0.93434  0.98092  0.34315  1.0000
  H   H2239     1.0  0.93121  0.85526  0.44784  1.0000
  S   S376      1.0  0.97237  0.89131  0.43686  1.0000
  C   C2800     1.0  0.86044  0.82509  0.46831  1.0000
  P   P95       1.0  0.89608  0.80678  0.46787  1.0000
  C   C2801     1.0  0.89553  0.80223  0.44675  1.0000
  Fe  Fe191     1.0  0.99462  0.86820  0.43049  1.0000
  C   C2802     1.0  0.89430  0.79462  0.41429  1.0000
  H   H2240     1.0  0.93166  0.87609  0.34540  1.0000
  H   H2241     1.0  0.90147  0.89416  0.34189  1.0000
  H   H2242     1.0  0.98306  0.90649  0.46575  1.0000
  C   C2803     1.0  0.97826  0.91601  0.31156  1.0000
  C   C2804     1.0  0.84508  0.83725  0.47414  1.0000
  S   S377      1.0  0.99468  0.95542  0.34595  1.0000
  P   P96       1.0  0.95827  0.92841  0.34197  1.0000
  H   H2243     1.0  0.95617  0.89081  0.34543  1.0000
  C   C2805     1.0  0.94515  0.83199  0.46326  1.0000
  C   C2806     1.0  0.95784  0.80422  0.41725  1.0000
  C   C2807     1.0  0.97513  0.77879  0.44217  1.0000
  C   C2808     1.0  0.94016  0.91772  0.34176  1.0000
  C   C2809     1.0  0.95678  0.78619  0.41971  1.0000
  C   C2810     1.0  0.96528  0.77348  0.43234  1.0000
  H   H2244     1.0  0.87601  0.77738  0.42969  1.0000
  H   H2245     1.0  0.94556  0.96979  0.38379  1.0000
  H   H2246     1.0  0.85984  0.81750  0.45882  1.0000
  H   H2247     1.0  0.96480  0.75949  0.43408  1.0000
  C   C2811     1.0  0.97316  0.89275  0.38527  1.0000
  C   C2812     1.0  0.93578  0.98280  0.35979  1.0000
  H   H2248     1.0  0.97435  0.95836  0.31801  1.0000
  C   C2813     1.0  0.90526  0.80612  0.41481  1.0000
  C   C2814     1.0  0.91581  0.83413  0.45690  1.0000
  C   C2815     1.0  0.97865  0.94692  0.40438  1.0000
  C   C2816     1.0  0.98958  0.94826  0.29507  1.0000
  H   H2249     1.0  0.89591  0.92722  0.33845  1.0000
  H   H2250     1.0  0.87079  0.73990  0.42929  1.0000
  C   C2817     1.0  0.96470  0.94486  0.41910  1.0000
  C   C2818     1.0  0.97502  0.91257  0.42413  1.0000
  C   C2819     1.0  0.96278  0.92772  0.42884  1.0000
  S   S378      1.0  0.98072  0.96851  0.39236  1.0000
  H   H2251     1.0  0.95190  0.92619  0.44014  1.0000
  H   H2252     1.0  0.94853  0.90833  0.37789  1.0000
  C   C2820     1.0  0.90601  0.80982  0.43095  1.0000
  H   H2253     1.0  0.89432  0.79124  0.40183  1.0000
  H   H2254     1.0  0.95539  0.76348  0.47527  1.0000
  C   C2821     1.0  0.94949  0.94972  0.34900  1.0000
  H   H2255     1.0  0.94027  0.96340  0.32467  1.0000
  H   H2256     1.0  0.90471  0.84189  0.45067  1.0000
  C   C2822     1.0  0.88403  0.78682  0.42995  1.0000
  H   H2257     1.0  0.95689  0.83776  0.46177  1.0000
  H   H2258     1.0  0.98265  0.93917  0.45767  1.0000
  H   H2259     1.0  0.96663  0.88658  0.39822  1.0000
  H   H2260     1.0  0.98303  0.80040  0.38303  1.0000
  C   C2823     1.0  0.96761  0.80951  0.42714  1.0000
  C   C2824     1.0  0.95091  0.95178  0.36571  1.0000
  C   C2825     1.0  0.94314  0.89899  0.34373  1.0000
  C   C2826     1.0  0.92993  0.80675  0.47417  1.0000
  C   C2827     1.0  0.94121  0.96449  0.33774  1.0000
  C   C2828     1.0  0.93071  0.84179  0.45533  1.0000
  H   H2261     1.0  0.92012  0.94220  0.33850  1.0000
  C   C2829     1.0  0.90912  0.91933  0.33987  1.0000
  C   C2830     1.0  0.97649  0.79681  0.43946  1.0000
  C   C2831     1.0  0.91543  0.81644  0.46610  1.0000
  C   C2832     1.0  0.94408  0.96825  0.37103  1.0000
  S   S379      1.0  0.94562  0.77979  0.40617  1.0000
  Fe  Fe192     1.0  0.93710  0.75322  0.41732  1.0000
  H   H2262     1.0  0.91763  0.77119  0.46622  1.0000
  H   H2263     1.0  0.91389  0.81146  0.40276  1.0000
  S   S380      1.0  0.88074  0.74362  0.45991  1.0000
  C   C2833     1.0  0.92299  0.92782  0.33986  1.0000
  S   S381      1.0  0.98967  0.84874  0.41659  1.0000
  C   C2834     1.0  0.91224  0.90072  0.34181  1.0000
  C   C2835     1.0  0.92924  0.89055  0.34375  1.0000
  H   H2264     1.0  0.97448  0.90326  0.31794  1.0000
  H   H2265     1.0  0.91521  0.81815  0.43093  1.0000
  C   C2836     1.0  0.87628  0.82287  0.47471  1.0000
  H   H2266     1.0  0.87691  0.78400  0.45814  1.0000
  H   H2267     1.0  0.95124  0.81410  0.40755  1.0000
  C   C2837     1.0  0.97158  0.91326  0.35711  1.0000
  C   C2838     1.0  0.88468  0.79053  0.44611  1.0000
  H   H2268     1.0  0.96805  0.82346  0.42533  1.0000
  H   H2269     1.0  0.95765  0.94093  0.37458  1.0000
  H   H2270     1.0  0.95527  0.95651  0.42289  1.0000
  C   C2839     1.0  0.96302  0.90512  0.37378  1.0000
  C   C2840     1.0  0.94463  0.81461  0.47284  1.0000
  H   H2271     1.0  0.98207  0.76882  0.45152  1.0000
  C   C2841     1.0  0.97217  0.93081  0.31999  1.0000
  C   C2842     1.0  0.97813  0.94689  0.31167  1.0000
  S   S382      1.0  0.91083  0.74909  0.41375  1.0000
  C   C2843     1.0  0.99183  0.88847  0.38016  1.0000
  S   S383      1.0  0.98912  0.80325  0.45171  1.0000
  C   C2844     1.0  0.98910  0.91466  0.40953  1.0000
  C   C2845     1.0  0.99080  0.93180  0.39950  1.0000
  C   C2846     1.0  0.99043  0.90932  0.35238  1.0000
  H   H2272     1.0  0.84924  0.74821  0.40902  1.0000
  H   H2273     1.0  0.98945  0.76798  0.39537  1.0000
  S   S384      1.0  0.93271  0.74194  0.44645  1.0000
  H   H2274     1.0  0.83292  0.83894  0.46910  1.0000
  C   C2847     1.0  0.98980  0.91739  0.29500  1.0000
  C   C2848     1.0  0.99481  0.91148  0.45763  1.0000
  C   C2849     1.0  0.99456  0.92989  0.45296  1.0000
  H   H2275     1.0  0.99460  0.90582  0.28874  1.0000
  H   H2276     1.0  0.99411  0.96075  0.28888  1.0000
  H   H2277     1.0  0.97522  0.77897  0.48395  1.0000
  C   C2850     1.0  0.51600  0.80665  0.62046  1.0000
  C   C2851     1.0  0.97425  0.76247  0.51002  1.0000
  H   H2278     1.0  0.89414  0.76444  0.54840  1.0000
  C   C2852     1.0  0.51187  0.76631  0.64008  1.0000
  C   C2853     1.0  0.95720  0.73864  0.51671  1.0000
  H   H2279     1.0  0.85246  0.74932  0.48926  1.0000
  C   C2854     1.0  0.95264  0.74452  0.49990  1.0000
  C   C2855     1.0  0.95878  0.75925  0.48830  1.0000
  H   H2280     1.0  0.98280  0.76933  0.51383  1.0000
  H   H2281     1.0  0.87351  0.76622  0.52296  1.0000
  H   H2282     1.0  0.87455  0.79582  0.50350  1.0000
  C   C2856     1.0  0.50160  0.80462  0.63485  1.0000
  H   H2283     1.0  0.88837  0.83103  0.49262  1.0000
  H   H2284     1.0  0.54900  0.74983  0.65892  1.0000
  H   H2285     1.0  0.49743  0.84375  0.64847  1.0000
  H   H2286     1.0  0.52267  0.84729  0.62280  1.0000
  C   C2857     1.0  0.87639  0.83275  0.48728  1.0000
  C   C2858     1.0  0.91812  0.74512  0.54142  1.0000
  C   C2859     1.0  0.50252  0.83346  0.64056  1.0000
  C   C2860     1.0  0.88405  0.78425  0.49964  1.0000
  C   C2861     1.0  0.88341  0.76749  0.51076  1.0000
  H   H2287     1.0  0.51254  0.90015  0.77624  1.0000
  H   H2288     1.0  0.86124  0.85257  0.50267  1.0000
  C   C2862     1.0  0.89996  0.75037  0.54889  1.0000
  H   H2289     1.0  0.49733  0.87438  0.78198  1.0000
  C   C2863     1.0  0.89511  0.75218  0.50590  1.0000
  H   H2290     1.0  0.49881  0.92995  0.76082  1.0000
  H   H2291     1.0  0.93002  0.79316  0.48141  1.0000
  H   H2292     1.0  0.50641  0.75534  0.61961  1.0000
  C   C2864     1.0  0.86101  0.84491  0.49306  1.0000
  C   C2865     1.0  0.51676  0.83544  0.62613  1.0000
  H   H2293     1.0  0.52212  0.77410  0.65957  1.0000
  H   H2294     1.0  0.53465  0.82346  0.60499  1.0000
  C   C2866     1.0  0.96987  0.76801  0.49323  1.0000
  C   C2867     1.0  0.52350  0.82203  0.61609  1.0000
  H   H2295     1.0  0.52147  0.79628  0.61265  1.0000
  H   H2296     1.0  0.92613  0.75529  0.53519  1.0000
  C   C2868     1.0  0.50045  0.90169  0.77116  1.0000
  H   H2297     1.0  0.91604  0.74165  0.48578  1.0000
  H   H2298     1.0  0.97111  0.74405  0.53485  1.0000
  H   H2299     1.0  0.87512  0.74148  0.56223  1.0000
  C   C2869     1.0  0.51552  0.75456  0.62824  1.0000
  C   C2870     1.0  0.53117  0.74136  0.62743  1.0000
  H   H2300     1.0  0.83345  0.85661  0.49098  1.0000
  C   C2871     1.0  0.96775  0.74798  0.52183  1.0000
  C   C2872     1.0  0.54312  0.73957  0.63860  1.0000
  H   H2301     1.0  0.89424  0.73915  0.51431  1.0000
  C   C2873     1.0  0.52437  0.76487  0.65072  1.0000
  H   H2302     1.0  0.51402  0.74421  0.56798  1.0000
  C   C2874     1.0  0.53975  0.75134  0.65021  1.0000
  C   C2875     1.0  0.90750  0.75361  0.48991  1.0000
  C   C2876     1.0  0.89644  0.78576  0.48350  1.0000
  C   C2877     1.0  0.84537  0.84718  0.48648  1.0000
  C   C2878     1.0  0.50330  0.73866  0.57747  1.0000
  C   C2879     1.0  0.90825  0.77033  0.47879  1.0000
  H   H2303     1.0  0.95591  0.80713  0.47888  1.0000
  H   H2304     1.0  0.49564  0.76251  0.67639  1.0000
  C   C2880     1.0  0.49496  0.81809  0.64496  1.0000
