data_image0
_chemical_formula_structural       FeS2FeHCFeHFeS3FeS2FeHFeHFeCS2HC2H5CHC7H4CH3C2HCHC2H2CHCHC3HPH2SCH2C4HCH4C3HCSCHCHC2HCHC5H2C2HC2SHCHCSCHCSCHC3H2CHCHC7HS2HC2H3CH3C2H2CHCPH2C3H2CH2C2H2CH4CS3HC2HCHCFeH2C2H3SCSH2CHCHC3H3C2HC2HC3HC2FeCHC4HC4H2CHSC2HCHCH2C2HCHC4HCHC2HC3H2CH3C2HC5HC2H3CPCHFeHC5PHC2HCH3CH7C4HSC3HCPH2FeCHC5FeS2FeC2FeHFeS3FeS2FeCFeSFeCS2H5CPH2CHC6H5CH2CHCHSCSH3C2HC2HCH2C4PCH2C5H6C3SC3H3CHCHCH3C2HC4HC3HCHC2H2CHCH2C3H3C11PCHC4SC4H2C3H4CH2CH2PH2C3H2C5H2C4SCSCH3CHC2H2C4H5CHCHCH2C2HCHCS4C2HC4H2CHCH2C4HC2H3CH2CHCHC2HCH2CH2CHC4H2C3HC7PCH2C3H8C5H2C2H3CH2CFeC3H4CH3CH3CHCHFeSHC6PC5SCH3CHC3H4C2H2C3HCHC2HPHCSH2C2HCFeH3SHCHC4H3C3FeHC2HC5HCH2SCH4C2H2SCHC3SHC2HSCFeH2CHC4H5CH2CSCFeCHSCFeSHFeSCSCH2C3H3CHCHCHSHC4H2C2HCS2HC2PCH4CHCHC4PC8HC2H3SH4C3HCH2C2HCHC6HPHC4HC4H2C4H3CH2C2HC3H3CFeH2C3H2C4H2CH2CSHCHC2H3CHCHC6HCPCHC3H5CH2SHFeHCH2CFeHC2HC2H3C3H2C4PC14SH2CH15CHC6PC3HC2SC11SHCH4CHSHC2HSHCHSC3HCH5C2HCSHFeH2SHFeS2CH2SC2H2CH2SHFeC2H2CHCH2C3HC12H3CH3C2FeH2CSC2HSHC2HSC5HCPC2HCHC3SCHCHC2H2CHCPHCH3CHC2H2FeCH2C2H5C2FeC2HCH2FeH2FeS2HFeC2HSC2HFeC2HC3HC2HC2HC2HC3H2CHC6H2C2H3C3HCHCSCH2C3PC3H3C7PC7H3CPH3CHCH4CH2C2HSHCFeC2HCHCSHCHC3HC4HC6H2C2H9CHCH2SFeCFeS2FeCFeCS2FeSCFeSHFeHFeSHSHCHC4HC4H2C7H5CHCH3C2SH2C2H2C2SCSCHPH2CHCH2CSC2HC3HC2PHSC2HC3HC6HC2HC4H2C2HSH2CH2C4H4CHSCHCH2CH4CSHC2SHCHC2H4CHCHC4HCHCHPHSH2CH3C3SHFeHFeHSC6HC4HC5HSH4CHCHFeC2HCHC2HCPC2H2C4H2CH2SC2HCHC5HC2PCHCH2C2HC3HPCHCHC3H2CFeHC2HC4H2CH3C2HCHC2HC5H2FeH2C3HCHSH2C2SCHCH4SCSH2SHFeCHCH2CHCHCH2SCH4C4HCFeSFeS2FeCFeS3FeSCFeSCFeSFeSHSH3CHCH2C5H2C6H5C4HSC3H2CH2CPC3H2CHC2H2C5HC4HC6PC2HC2HC3H3CHC2H3SCH6CHCHCSCHCH2C4HSHCH2C3H3C2HC2HC2HC5HCPH3CH3CH2C2H2C2HCHC2H2C3
_chemical_formula_sum              "Fe64 S128 H768 C960 P32"
_cell_length_a       43.6331
_cell_length_b       43.924
_cell_length_c       37.4699
_cell_angle_alpha    89.9566
_cell_angle_beta     89.8957
_cell_angle_gamma    110.72

_space_group_name_H-M_alt    "P 1"
_space_group_IT_number       1

loop_
  _space_group_symop_operation_xyz
  'x, y, z'

loop_
  _atom_site_type_symbol
  _atom_site_label
  _atom_site_symmetry_multiplicity
  _atom_site_fract_x
  _atom_site_fract_y
  _atom_site_fract_z
  _atom_site_occupancy
  Fe  Fe1       1.0  0.14499  0.29751  0.38195  1.0000
  S   S1        1.0  0.11860  0.32871  0.40555  1.0000
  S   S2        1.0  0.13976  0.27642  0.32478  1.0000
  Fe  Fe2       1.0  0.17260  0.28798  0.45507  1.0000
  H   H1        1.0  0.22124  0.31160  0.16602  1.0000
  C   C1        1.0  0.20929  0.26029  0.37206  1.0000
  Fe  Fe3       1.0  0.10291  0.29144  0.45011  1.0000
  H   H2        1.0  0.28387  0.18425  0.00704  1.0000
  Fe  Fe4       1.0  0.16501  0.35366  0.43741  1.0000
  S   S3        1.0  0.18796  0.41001  0.44047  1.0000
  S   S4        1.0  0.12691  0.25893  0.42517  1.0000
  S   S5        1.0  0.19225  0.32458  0.41085  1.0000
  Fe  Fe5       1.0  0.16103  0.31686  0.10699  1.0000
  S   S6        1.0  0.13463  0.33549  0.06512  1.0000
  S   S7        1.0  0.16570  0.33527  0.16529  1.0000
  Fe  Fe6       1.0  0.18775  0.28200  0.05028  1.0000
  H   H3        1.0  0.12310  0.19652  0.34312  1.0000
  Fe  Fe7       1.0  0.18031  0.34783  0.03152  1.0000
  H   H4        1.0  0.29930  0.03140  0.04104  1.0000
  Fe  Fe8       1.0  0.11830  0.28500  0.04093  1.0000
  C   C2        1.0  0.18182  0.48018  0.02187  1.0000
  S   S8        1.0  0.20778  0.33226  0.07447  1.0000
  S   S9        1.0  0.14208  0.26569  0.08517  1.0000
  H   H5        1.0  0.23604  0.33278  0.22717  1.0000
  C   C3        1.0  0.20624  0.24671  0.33805  1.0000
  C   C4        1.0  0.21929  0.24175  0.20698  1.0000
  H   H6        1.0  0.10544  0.12266  0.27979  1.0000
  H   H7        1.0  0.26257  0.21318  0.05240  1.0000
  H   H8        1.0  0.26551  0.41572  0.45327  1.0000
  H   H9        1.0  0.00902  0.32119  0.46223  1.0000
  H   H10       1.0  0.15550  0.11185  0.29718  1.0000
  C   C5        1.0  0.29032  0.99639  0.23908  1.0000
  H   H11       1.0  0.08786  0.21295  0.48518  1.0000
  C   C6        1.0  0.02990  0.23446  0.00088  1.0000
  C   C7        1.0  0.14666  0.29360  0.28074  1.0000
  C   C8        1.0  0.16248  0.32694  0.27443  1.0000
  C   C9        1.0  0.16786  0.33909  0.23906  1.0000
  C   C10       1.0  0.15783  0.31820  0.20935  1.0000
  C   C11       1.0  0.14208  0.28484  0.21568  1.0000
  C   C12       1.0  0.13634  0.27277  0.25105  1.0000
  H   H12       1.0  0.17054  0.34340  0.29678  1.0000
  H   H13       1.0  0.17998  0.36492  0.23465  1.0000
  H   H14       1.0  0.13401  0.26840  0.19332  1.0000
  H   H15       1.0  0.12339  0.24709  0.25543  1.0000
  C   C13       1.0  0.31609  0.18950  0.26318  1.0000
  H   H16       1.0  0.26125  0.37845  0.02961  1.0000
  H   H17       1.0  0.30035  0.42497  0.99776  1.0000
  H   H18       1.0  0.21353  0.21619  0.20108  1.0000
  C   C14       1.0  0.99919  0.17740  0.98656  1.0000
  C   C15       1.0  0.19059  0.19253  0.27659  1.0000
  H   H19       1.0  0.20997  0.25343  0.15298  1.0000
  C   C16       1.0  0.08639  0.17360  0.42393  1.0000
  H   H20       1.0  0.18756  0.25999  0.38625  1.0000
  C   C17       1.0  0.22227  0.22085  0.45645  1.0000
  C   C18       1.0  0.23904  0.19866  0.45450  1.0000
  H   H21       1.0  0.20703  0.22284  0.43460  1.0000
  H   H22       1.0  0.23679  0.18403  0.43077  1.0000
  C   C19       1.0  0.28030  0.37536  0.43807  1.0000
  H   H23       1.0  0.10752  0.44468  0.35750  1.0000
  C   C20       1.0  0.23399  0.24604  0.31965  1.0000
  H   H24       1.0  0.10971  0.17814  0.26050  1.0000
  C   C21       1.0  0.15903  0.17994  0.01336  1.0000
  C   C22       1.0  0.26970  0.19885  0.99875  1.0000
  C   C23       1.0  0.16208  0.19833  0.26680  1.0000
  H   H25       1.0  0.02329  0.25010  0.08960  1.0000
  P   P1        1.0  0.22952  0.22593  0.27692  1.0000
  H   H26       1.0  0.99788  0.15235  0.98648  1.0000
  H   H27       1.0  0.24562  0.42276  0.39356  1.0000
  S   S10       1.0  0.05158  0.27745  0.47643  1.0000
  C   C24       1.0  0.11156  0.16701  0.44206  1.0000
  H   H28       1.0  0.22942  0.47684  0.43057  1.0000
  H   H29       1.0  0.07133  0.18981  0.37487  1.0000
  C   C25       1.0  0.15737  0.13602  0.28863  1.0000
  C   C26       1.0  0.29888  0.18470  0.29540  1.0000
  C   C27       1.0  0.26798  0.37546  0.00234  1.0000
  C   C28       1.0  0.12916  0.14208  0.27884  1.0000
  H   H30       1.0  0.31238  0.26628  0.47083  1.0000
  C   C29       1.0  0.01799  0.20990  0.47424  1.0000
  H   H31       1.0  0.24386  0.43044  0.04763  1.0000
  H   H32       1.0  0.18210  0.23674  0.32637  1.0000
  H   H33       1.0  0.27315  0.34448  0.35358  1.0000
  H   H34       1.0  0.99731  0.07556  0.45941  1.0000
  C   C30       1.0  0.28069  0.21613  0.23867  1.0000
  C   C31       1.0  0.21717  0.26267  0.17971  1.0000
  C   C32       1.0  0.24205  0.99232  0.99269  1.0000
  H   H35       1.0  0.04776  0.19536  0.01011  1.0000
  C   C33       1.0  0.21455  0.43933  0.47061  1.0000
  S   S11       1.0  0.22297  0.25330  0.04840  1.0000
  C   C34       1.0  0.27255  0.19556  0.29931  1.0000
  H   H36       1.0  0.25972  0.19193  0.32466  1.0000
  C   C35       1.0  0.04524  0.10940  0.47325  1.0000
  H   H37       1.0  0.99425  0.28054  0.05691  1.0000
  C   C36       1.0  0.02766  0.20185  0.00006  1.0000
  C   C37       1.0  0.26802  0.27404  0.36944  1.0000
  H   H38       1.0  0.13698  0.20902  0.04242  1.0000
  C   C38       1.0  0.26835  0.47813  0.02419  1.0000
  H   H39       1.0  0.24915  0.38718  0.34354  1.0000
  C   C39       1.0  0.24009  0.27383  0.38788  1.0000
  C   C40       1.0  0.11965  0.18754  0.37035  1.0000
  C   C41       1.0  0.23220  0.30751  0.22149  1.0000
  C   C42       1.0  0.27178  0.36010  0.37541  1.0000
  C   C43       1.0  0.27775  0.00209  0.08717  1.0000
  H   H40       1.0  0.99187  0.15798  0.47370  1.0000
  H   H41       1.0  0.26570  0.01839  0.09630  1.0000
  C   C44       1.0  0.25836  0.19492  0.48309  1.0000
  C   C45       1.0  0.99689  0.23961  0.08644  1.0000
  H   H42       1.0  0.05686  0.10352  0.45000  1.0000
  C   C46       1.0  0.22838  0.25368  0.24168  1.0000
  C   C47       1.0  0.09044  0.18377  0.38828  1.0000
  S   S12       1.0  0.16307  0.29821  0.00526  1.0000
  H   H43       1.0  0.27387  0.00880  0.18876  1.0000
  C   C48       1.0  0.13154  0.17324  0.26790  1.0000
  H   H44       1.0  0.29348  0.33723  0.41300  1.0000
  C   C49       1.0  0.14462  0.18057  0.38790  1.0000
  S   S13       1.0  0.06501  0.26666  0.01844  1.0000
  C   C50       1.0  0.23854  0.23407  0.01440  1.0000
  H   H45       1.0  0.13719  0.43395  0.40964  1.0000
  C   C51       1.0  0.18799  0.16112  0.28755  1.0000
  S   S14       1.0  0.27854  0.16609  0.47899  1.0000
  C   C52       1.0  0.26726  0.39988  0.43184  1.0000
  H   H46       1.0  0.16339  0.22246  0.25887  1.0000
  C   C53       1.0  0.23458  0.28672  0.24881  1.0000
  C   C54       1.0  0.26507  0.26055  0.33522  1.0000
  C   C55       1.0  0.25837  0.38424  0.36966  1.0000
  H   H47       1.0  0.27455  0.22859  0.21647  1.0000
  H   H48       1.0  0.14916  0.43268  0.00622  1.0000
  C   C56       1.0  0.22366  0.29553  0.18697  1.0000
  H   H49       1.0  0.24210  0.28390  0.41458  1.0000
  C   C57       1.0  0.00320  0.24200  0.98745  1.0000
  H   H50       1.0  0.16061  0.16571  0.43647  1.0000
  C   C58       1.0  0.22622  0.43299  0.99457  1.0000
  C   C59       1.0  0.30593  0.31258  0.47522  1.0000
  C   C60       1.0  0.25756  0.21534  0.02444  1.0000
  C   C61       1.0  0.14065  0.17038  0.42356  1.0000
  C   C62       1.0  0.24597  0.44563  0.02435  1.0000
  C   C63       1.0  0.25632  0.40423  0.39783  1.0000
  C   C64       1.0  0.23185  0.47112  0.45820  1.0000
  H   H51       1.0  0.03764  0.20873  0.45742  1.0000
  S   S15       1.0  0.14759  0.31854  0.48300  1.0000
  S   S16       1.0  0.19697  0.39223  0.99319  1.0000
  H   H52       1.0  0.06384  0.17162  0.43748  1.0000
  C   C65       1.0  0.14175  0.20119  0.01631  1.0000
  C   C66       1.0  0.31187  0.98833  0.04381  1.0000
  H   H53       1.0  0.20935  0.15581  0.29545  1.0000
  H   H54       1.0  0.24050  0.29647  0.27546  1.0000
  H   H55       1.0  0.16736  0.18367  0.37409  1.0000
  C   C67       1.0  0.26321  0.21140  0.27098  1.0000
  H   H56       1.0  0.17053  0.47905  0.44763  1.0000
  H   H57       1.0  0.16819  0.17197  0.03712  1.0000
  H   H58       1.0  0.28701  0.26113  0.32125  1.0000
  C   C68       1.0  0.01156  0.09348  0.47849  1.0000
  C   C69       1.0  0.13850  0.45859  0.40375  1.0000
  H   H59       1.0  0.19502  0.47066  0.04068  1.0000
  H   H60       1.0  0.31389  0.01602  0.23789  1.0000
  C   C70       1.0  0.15580  0.45875  0.00254  1.0000
  H   H61       1.0  0.99232  0.19534  0.11420  1.0000
  C   C71       1.0  0.26781  0.99233  0.21139  1.0000
  P   P2        1.0  0.29637  0.37160  0.48169  1.0000
  H   H62       1.0  0.29481  0.30649  0.00508  1.0000
  H   H63       1.0  0.29189  0.28434  0.38182  1.0000
  C   C72       1.0  0.15739  0.48429  0.42531  1.0000
  C   C73       1.0  0.28288  0.35578  0.40940  1.0000
  C   C74       1.0  0.12188  0.46469  0.37434  1.0000
  H   H64       1.0  0.28391  0.01072  0.39416  1.0000
  H   H65       1.0  0.27942  0.30170  0.47417  1.0000
  C   C75       1.0  0.29680  0.00955  0.05614  1.0000
  H   H66       1.0  0.24136  0.01638  0.99720  1.0000
  H   H67       1.0  0.23664  0.32505  0.99953  1.0000
  C   C76       1.0  0.30699  0.20517  0.23483  1.0000
  C   C77       1.0  0.99176  0.18109  0.48341  1.0000
  H   H68       1.0  0.11760  0.22903  0.98863  1.0000
  H   H69       1.0  0.30609  0.17278  0.31752  1.0000
  C   C78       1.0  0.24691  0.99707  0.48248  1.0000
  H   H70       1.0  0.00448  0.26704  0.98766  1.0000
  H   H71       1.0  0.24581  0.02123  0.48049  1.0000
  H   H72       1.0  0.30236  0.99367  0.83279  1.0000
  H   H73       1.0  0.10401  0.19390  0.83913  1.0000
  C   C79       1.0  0.99600  0.10128  0.50789  1.0000
  S   S17       1.0  0.28387  0.10611  0.55652  1.0000
  S   S18       1.0  0.29101  0.10220  0.88968  1.0000
  S   S19       1.0  0.29197  0.02121  0.94231  1.0000
  H   H74       1.0  0.18929  0.05780  0.63893  1.0000
  C   C80       1.0  0.25932  0.46056  0.87482  1.0000
  C   C81       1.0  0.23466  0.35821  0.51292  1.0000
  H   H75       1.0  0.02308  0.12225  0.93268  1.0000
  C   C82       1.0  0.15869  0.28518  0.90690  1.0000
  H   H76       1.0  0.24973  0.31896  0.93625  1.0000
  C   C83       1.0  0.22938  0.45349  0.96473  1.0000
  Fe  Fe9       1.0  0.30865  0.14646  0.51729  1.0000
  H   H77       1.0  0.14287  0.35196  0.93480  1.0000
  H   H78       1.0  0.19546  0.19982  0.79162  1.0000
  C   C84       1.0  0.10481  0.21631  0.50705  1.0000
  C   C85       1.0  0.11874  0.19275  0.51482  1.0000
  H   H79       1.0  0.98724  0.14595  0.90096  1.0000
  H   H80       1.0  0.06126  0.15892  0.54633  1.0000
  H   H81       1.0  0.23331  0.45038  0.86929  1.0000
  S   S20       1.0  0.20536  0.26937  0.49047  1.0000
  C   C86       1.0  0.26309  0.20097  0.96248  1.0000
  S   S21       1.0  0.30220  0.02457  0.52614  1.0000
  H   H82       1.0  0.22903  0.37122  0.49087  1.0000
  H   H83       1.0  0.02734  0.29260  0.79304  1.0000
  C   C87       1.0  0.13415  0.24953  0.55619  1.0000
  H   H84       1.0  0.24951  0.01885  0.58403  1.0000
  C   C88       1.0  0.15413  0.18063  0.94908  1.0000
  H   H85       1.0  0.21416  0.44422  0.94162  1.0000
  C   C89       1.0  0.13953  0.19739  0.54454  1.0000
  C   C90       1.0  0.13865  0.47094  0.97838  1.0000
  C   C91       1.0  0.24756  0.32367  0.57022  1.0000
  H   H86       1.0  0.14058  0.27177  0.57155  1.0000
  H   H87       1.0  0.24205  0.45042  0.55665  1.0000
  H   H88       1.0  0.19986  0.31973  0.58967  1.0000
  C   C92       1.0  0.27180  0.99224  0.50263  1.0000
  C   C93       1.0  0.26392  0.98808  0.96743  1.0000
  H   H89       1.0  0.25241  0.30991  0.59209  1.0000
  C   C94       1.0  0.14794  0.19592  0.81198  1.0000
  C   C95       1.0  0.21798  0.32914  0.56884  1.0000
  H   H90       1.0  0.11835  0.45427  0.96356  1.0000
  C   C96       1.0  0.04787  0.14055  0.52727  1.0000
  C   C97       1.0  0.26122  0.34210  0.94955  1.0000
  C   C98       1.0  0.20619  0.04804  0.65150  1.0000
  H   H91       1.0  0.17859  0.15311  0.97750  1.0000
  C   C99       1.0  0.29197  0.99975  0.77742  1.0000
  C   C100      1.0  0.18447  0.12635  0.50937  1.0000
  Fe  Fe10      1.0  0.31049  0.07698  0.93205  1.0000
  C   C101      1.0  0.12961  0.26060  0.91807  1.0000
  H   H92       1.0  0.17755  0.17131  0.49818  1.0000
  C   C102      1.0  0.28121  0.05569  0.80019  1.0000
  C   C103      1.0  0.18060  0.22109  0.87542  1.0000
  C   C104      1.0  0.29860  0.39841  0.94857  1.0000
  C   C105      1.0  0.30816  0.45534  0.90100  1.0000
  H   H93       1.0  0.00180  0.13125  0.55452  1.0000
  C   C106      1.0  0.02683  0.18969  0.88564  1.0000
  C   C107      1.0  0.16325  0.31801  0.91258  1.0000
  C   C108      1.0  0.13881  0.32659  0.92923  1.0000
  C   C109      1.0  0.10528  0.26954  0.93496  1.0000
  H   H94       1.0  0.13530  0.18606  0.78739  1.0000
  H   H95       1.0  0.24647  0.25097  0.53918  1.0000
  C   C110      1.0  0.11219  0.24434  0.52785  1.0000
  H   H96       1.0  0.24851  0.09098  0.64118  1.0000
  S   S22       1.0  0.27645  0.17985  0.92855  1.0000
  C   C111      1.0  0.01342  0.15912  0.90177  1.0000
  C   C112      1.0  0.27100  0.33604  0.54340  1.0000
  H   H97       1.0  0.27194  0.06302  0.74528  1.0000
  C   C113      1.0  0.29015  0.40189  0.98407  1.0000
  H   H98       1.0  0.29849  0.01920  0.63099  1.0000
  C   C114      1.0  0.26462  0.35319  0.51433  1.0000
  H   H99       1.0  0.22441  0.22207  0.84803  1.0000
  H   H100      1.0  0.16475  0.23000  0.58662  1.0000
  C   C115      1.0  0.06046  0.20720  0.88806  1.0000
  C   C116      1.0  0.16544  0.14535  0.50195  1.0000
  H   H101      1.0  0.08311  0.25122  0.94505  1.0000
  C   C117      1.0  0.19817  0.21634  0.84604  1.0000
  H   H102      1.0  0.18607  0.33686  0.90499  1.0000
  C   C118      1.0  0.16954  0.09283  0.51431  1.0000
  C   C119      1.0  0.28982  0.03626  0.82490  1.0000
  C   C120      1.0  0.16498  0.16944  0.97977  1.0000
  C   C121      1.0  0.19472  0.01701  0.66685  1.0000
  H   H103      1.0  0.21814  0.25112  0.96979  1.0000
  C   C122      1.0  0.99014  0.31358  0.78469  1.0000
  H   H104      1.0  0.14952  0.17919  0.55251  1.0000
  C   C123      1.0  0.24420  0.23630  0.51548  1.0000
  C   C124      1.0  0.28269  0.01882  0.75249  1.0000
  H   H105      1.0  0.29412  0.33225  0.54557  1.0000
  C   C125      1.0  0.21838  0.43226  0.50639  1.0000
  C   C126      1.0  0.13026  0.20042  0.84146  1.0000
  C   C127      1.0  0.14645  0.21274  0.87358  1.0000
  H   H106      1.0  0.17818  0.27929  0.89444  1.0000
  H   H107      1.0  0.18900  0.35139  0.53983  1.0000
  C   C128      1.0  0.26066  0.21379  0.51375  1.0000
  H   H108      1.0  0.09121  0.30890  0.95421  1.0000
  H   H109      1.0  0.08232  0.15274  0.93735  1.0000
  H   H110      1.0  0.20468  0.40840  0.51682  1.0000
  C   C129      1.0  0.24493  0.22047  0.95237  1.0000
  C   C130      1.0  0.10976  0.30236  0.94020  1.0000
  H   H111      1.0  0.00636  0.33820  0.79040  1.0000
  C   C131      1.0  0.26148  0.05450  0.66921  1.0000
  C   C132      1.0  0.27455  0.44206  0.89324  1.0000
  C   C133      1.0  0.25032  0.02314  0.68413  1.0000
  C   C134      1.0  0.28331  0.36853  0.93112  1.0000
  C   C135      1.0  0.00195  0.28788  0.78619  1.0000
  H   H112      1.0  0.27531  0.21121  0.53602  1.0000
  C   C136      1.0  0.13548  0.07828  0.51211  1.0000
  C   C137      1.0  0.23935  0.45640  0.52910  1.0000
  H   H113      1.0  0.25988  0.41773  0.90187  1.0000
  H   H114      1.0  0.29284  0.04304  0.85285  1.0000
  H   H115      1.0  0.24003  0.22251  0.92441  1.0000
  C   C138      1.0  0.14773  0.22601  0.56462  1.0000
  P   P3        1.0  0.27883  0.00770  0.70587  1.0000
  C   C139      1.0  0.11632  0.09724  0.50476  1.0000
  H   H116      1.0  0.29002  0.14882  0.72136  1.0000
  Fe  Fe11      1.0  0.30699  0.14627  0.92634  1.0000
  H   H117      1.0  0.19354  0.23078  0.89989  1.0000
  C   C140      1.0  0.21174  0.34675  0.54050  1.0000
  C   C141      1.0  0.27777  0.04713  0.76406  1.0000
  C   C142      1.0  0.03365  0.14583  0.91993  1.0000
  C   C143      1.0  0.08084  0.19442  0.90718  1.0000
  C   C144      1.0  0.06724  0.16336  0.92267  1.0000
  P   P4        1.0  0.12394  0.21797  0.91226  1.0000
  H   H118      1.0  0.27807  0.07791  0.80896  1.0000
  C   C145      1.0  0.99183  0.24110  0.50717  1.0000
  C   C146      1.0  0.01417  0.12469  0.53229  1.0000
  H   H119      1.0  0.07044  0.23096  0.87565  1.0000
  C   C147      1.0  0.18184  0.20372  0.81432  1.0000
  H   H120      1.0  0.28716  0.06966  0.67032  1.0000
  H   H121      1.0  0.99172  0.26429  0.51671  1.0000
  H   H122      1.0  0.15858  0.17162  0.92346  1.0000
  C   C148      1.0  0.21666  0.00459  0.68316  1.0000
  H   H123      1.0  0.28856  0.36558  0.90335  1.0000
  H   H124      1.0  0.10094  0.26213  0.52176  1.0000
  H   H125      1.0  0.16880  0.00265  0.66621  1.0000
  H   H126      1.0  0.99049  0.23640  0.78015  1.0000
  H   H127      1.0  0.01105  0.20006  0.87186  1.0000
  H   H128      1.0  0.18450  0.07822  0.51978  1.0000
  H   H129      1.0  0.21092  0.13760  0.51113  1.0000
  C   C149      1.0  0.23954  0.06674  0.65273  1.0000
  C   C150      1.0  0.13116  0.13100  0.49945  1.0000
  C   C151      1.0  0.13795  0.20315  0.95175  1.0000
  C   C152      1.0  0.23567  0.99297  0.58640  1.0000
  H   H130      1.0  0.12392  0.05226  0.51598  1.0000
  S   S23       1.0  0.31285  0.13987  0.65155  1.0000
  C   C153      1.0  0.29526  0.00835  0.81351  1.0000
  C   C154      1.0  0.06363  0.13328  0.49744  1.0000
  C   C155      1.0  0.30989  0.13986  0.72527  1.0000
  H   H131      1.0  0.29241  0.41018  0.54546  1.0000
  C   C156      1.0  0.31073  0.42546  0.52732  1.0000
  P   P5        1.0  0.10662  0.15563  0.48887  1.0000
  H   H132      1.0  0.09004  0.08537  0.50326  1.0000
  H   H133      1.0  0.30703  0.14102  0.78305  1.0000
  Fe  Fe12      1.0  0.31576  0.08022  0.53355  1.0000
  C   C157      1.0  0.23264  0.23685  0.97804  1.0000
  H   H134      1.0  0.18878  0.99864  0.58408  1.0000
  C   C158      1.0  0.22497  0.24007  0.48684  1.0000
  C   C159      1.0  0.01853  0.24018  0.48643  1.0000
  C   C160      1.0  0.25181  0.48600  0.96455  1.0000
  C   C161      1.0  0.13116  0.21274  0.98568  1.0000
  C   C162      1.0  0.25375  0.34551  0.98523  1.0000
  Fe  Fe13      1.0  0.16046  0.79500  0.38198  1.0000
  S   S24       1.0  0.13345  0.82722  0.40081  1.0000
  S   S25       1.0  0.17236  0.78369  0.32463  1.0000
  Fe  Fe14      1.0  0.17869  0.78285  0.45817  1.0000
  C   C163      1.0  0.14495  0.58447  0.46063  1.0000
  C   C164      1.0  0.07047  0.58596  0.13663  1.0000
  Fe  Fe15      1.0  0.11186  0.78942  0.44390  1.0000
  H   H135      1.0  0.20604  0.92625  0.24234  1.0000
  Fe  Fe16      1.0  0.17625  0.85042  0.43799  1.0000
  S   S26       1.0  0.19348  0.90647  0.44377  1.0000
  S   S27       1.0  0.13618  0.75544  0.42272  1.0000
  S   S28       1.0  0.20472  0.82037  0.41666  1.0000
  Fe  Fe17      1.0  0.14531  0.79910  0.10855  1.0000
  S   S29       1.0  0.12526  0.82384  0.06640  1.0000
  S   S30       1.0  0.12478  0.79886  0.16548  1.0000
  Fe  Fe18      1.0  0.18659  0.77874  0.05259  1.0000
  C   C165      1.0  0.14264  0.67975  0.03248  1.0000
  Fe  Fe19      1.0  0.17694  0.84501  0.04457  1.0000
  S   S31       1.0  0.19480  0.90078  0.03383  1.0000
  Fe  Fe20      1.0  0.11852  0.78013  0.03187  1.0000
  C   C166      1.0  0.04940  0.64084  0.43838  1.0000
  S   S32       1.0  0.19717  0.82261  0.08907  1.0000
  S   S33       1.0  0.13576  0.75408  0.07495  1.0000
  H   H136      1.0  0.05385  0.74789  0.17093  1.0000
  H   H137      1.0  0.20470  0.96923  0.03210  1.0000
  H   H138      1.0  0.03525  0.69015  0.19044  1.0000
  H   H139      1.0  0.22282  0.85260  0.32966  1.0000
  H   H140      1.0  0.28611  0.68283  0.01575  1.0000
  C   C167      1.0  0.22143  0.93369  0.00721  1.0000
  P   P6        1.0  0.28298  0.91414  0.11696  1.0000
  H   H141      1.0  0.26095  0.90091  0.04278  1.0000
  H   H142      1.0  0.02919  0.62177  0.99792  1.0000
  C   C168      1.0  0.22955  0.94575  0.24212  1.0000
  H   H143      1.0  0.08722  0.58771  0.15852  1.0000
  C   C169      1.0  0.15883  0.78840  0.28063  1.0000
  C   C170      1.0  0.17784  0.78594  0.25105  1.0000
  C   C171      1.0  0.16793  0.78898  0.21570  1.0000
  C   C172      1.0  0.13862  0.79430  0.20937  1.0000
  C   C173      1.0  0.11952  0.79656  0.23893  1.0000
  C   C174      1.0  0.12948  0.79359  0.27427  1.0000
  H   H144      1.0  0.20039  0.78150  0.25547  1.0000
  H   H145      1.0  0.18290  0.78711  0.19336  1.0000
  H   H146      1.0  0.09674  0.80054  0.23446  1.0000
  H   H147      1.0  0.11429  0.79500  0.29659  1.0000
  H   H148      1.0  0.27437  0.89750  0.36528  1.0000
  C   C175      1.0  0.26930  0.55042  0.39288  1.0000
  H   H149      1.0  0.20320  0.93162  0.36642  1.0000
  H   H150      1.0  0.21929  0.51846  0.39540  1.0000
  C   C176      1.0  0.21699  0.90310  0.13013  1.0000
  H   H151      1.0  0.20438  0.97481  0.44925  1.0000
  C   C177      1.0  0.27639  0.83634  0.27360  1.0000
  H   H152      1.0  0.18642  0.87372  0.27020  1.0000
  S   S34       1.0  0.16925  0.80242  0.00712  1.0000
  C   C178      1.0  0.25673  0.71145  0.03157  1.0000
  S   S35       1.0  0.22021  0.74818  0.05334  1.0000
  H   H153      1.0  0.21896  0.72560  0.44001  1.0000
  H   H154      1.0  0.19017  0.61828  0.04082  1.0000
  H   H155      1.0  0.20877  0.61027  0.40179  1.0000
  C   C179      1.0  0.18705  0.87433  0.18175  1.0000
  C   C180      1.0  0.09249  0.67405  0.47739  1.0000
  H   H156      1.0  0.16413  0.86382  0.19615  1.0000
  C   C181      1.0  0.05155  0.72874  0.15174  1.0000
  C   C182      1.0  0.14941  0.57894  0.99277  1.0000
  H   H157      1.0  0.21171  0.52949  0.03185  1.0000
  C   C183      1.0  0.04948  0.55549  0.12511  1.0000
  H   H158      1.0  0.04994  0.53355  0.13803  1.0000
  H   H159      1.0  0.25925  0.70781  0.05980  1.0000
  C   C184      1.0  0.19136  0.51376  0.01650  1.0000
  C   C185      1.0  0.25561  0.88764  0.29327  1.0000
  C   C186      1.0  0.26497  0.85523  0.02894  1.0000
  C   C187      1.0  0.22410  0.93879  0.46696  1.0000
  P   P7        1.0  0.04787  0.64908  0.06991  1.0000
  C   C188      1.0  0.27311  0.60450  0.03755  1.0000
  H   H160      1.0  0.03825  0.63620  0.41219  1.0000
  H   H161      1.0  0.08950  0.68342  0.42130  1.0000
  C   C189      1.0  0.29055  0.86687  0.25759  1.0000
  C   C190      1.0  0.26774  0.62534  0.06295  1.0000
  C   C191      1.0  0.12420  0.49657  0.36646  1.0000
  C   C192      1.0  0.05740  0.71236  0.09120  1.0000
  C   C193      1.0  0.23852  0.73058  0.02036  1.0000
  H   H162      1.0  0.01264  0.59964  0.46315  1.0000
  H   H163      1.0  0.08770  0.56255  0.05401  1.0000
  H   H164      1.0  0.23389  0.64699  0.08299  1.0000
  H   H165      1.0  0.30061  0.97822  0.28906  1.0000
  H   H166      1.0  0.14443  0.91059  0.37871  1.0000
  H   H167      1.0  0.10579  0.87269  0.33627  1.0000
  C   C194      1.0  0.02715  0.58157  0.08030  1.0000
  C   C195      1.0  0.29499  0.96885  0.41048  1.0000
  C   C196      1.0  0.28345  0.59994  0.42744  1.0000
  S   S36       1.0  0.05890  0.77960  0.46312  1.0000
  C   C197      1.0  0.14319  0.52239  0.38795  1.0000
  C   C198      1.0  0.25190  0.94974  0.27025  1.0000
  C   C199      1.0  0.25225  0.83152  0.29971  1.0000
  H   H168      1.0  0.12703  0.85513  0.28171  1.0000
  H   H169      1.0  0.01131  0.52968  0.08824  1.0000
  H   H170      1.0  0.19149  0.65773  0.39961  1.0000
  C   C200      1.0  0.05909  0.73671  0.11593  1.0000
  H   H171      1.0  0.13177  0.56448  0.47801  1.0000
  C   C201      1.0  0.18713  0.91532  0.34721  1.0000
  H   H172      1.0  0.11710  0.65414  0.07812  1.0000
  C   C202      1.0  0.17828  0.63711  0.41639  1.0000
  H   H173      1.0  0.30945  0.87066  0.23752  1.0000
  H   H174      1.0  0.29503  0.85296  0.12590  1.0000
  H   H175      1.0  0.28835  0.80676  0.08504  1.0000
  C   C203      1.0  0.06980  0.61427  0.12009  1.0000
  C   C204      1.0  0.18830  0.61022  0.41814  1.0000
  H   H176      1.0  0.08595  0.63772  0.12972  1.0000
  C   C205      1.0  0.01070  0.63967  0.04400  1.0000
  C   C206      1.0  0.11448  0.66504  0.05310  1.0000
  C   C207      1.0  0.13183  0.88203  0.33057  1.0000
  C   C208      1.0  0.27704  0.92251  0.37055  1.0000
  H   H177      1.0  0.30100  0.92315  0.42099  1.0000
  C   C209      1.0  0.26475  0.94004  0.34667  1.0000
  C   C210      1.0  0.28803  0.95140  0.09308  1.0000
  C   C211      1.0  0.01268  0.73920  0.02620  1.0000
  H   H178      1.0  0.06697  0.76194  0.10744  1.0000
  C   C212      1.0  0.17757  0.88290  0.29331  1.0000
  H   H179      1.0  0.16537  0.89220  0.13870  1.0000
  C   C213      1.0  0.15981  0.51638  0.41763  1.0000
  C   C214      1.0  0.04827  0.61235  0.09161  1.0000
  H   H180      1.0  0.21684  0.91464  0.10462  1.0000
  H   H181      1.0  0.26598  0.87798  0.18444  1.0000
  C   C215      1.0  0.22336  0.97059  0.46479  1.0000
  H   H182      1.0  0.03117  0.64677  0.14688  1.0000
  C   C216      1.0  0.03961  0.67180  0.13797  1.0000
  H   H183      1.0  0.11382  0.61157  0.47382  1.0000
  H   H184      1.0  0.24137  0.80788  0.31230  1.0000
  C   C217      1.0  0.27201  0.69721  0.00666  1.0000
  C   C218      1.0  0.28068  0.88151  0.08657  1.0000
  C   C219      1.0  0.27358  0.97324  0.10578  1.0000
  H   H185      1.0  0.29615  0.60036  0.03695  1.0000
  H   H186      1.0  0.25092  0.68862  0.43766  1.0000
  H   H187      1.0  0.02509  0.75339  0.04889  1.0000
  C   C220      1.0  0.04866  0.67988  0.10220  1.0000
  C   C221      1.0  0.21544  0.87024  0.19444  1.0000
  C   C222      1.0  0.04142  0.69625  0.16270  1.0000
  C   C223      1.0  0.15351  0.90351  0.35431  1.0000
  C   C224      1.0  0.23686  0.54120  0.40476  1.0000
  C   C225      1.0  0.18776  0.89050  0.14947  1.0000
  C   C226      1.0  0.17236  0.58407  0.44118  1.0000
  C   C227      1.0  0.24464  0.88261  0.17500  1.0000
  C   C228      1.0  0.08239  0.68172  0.00991  1.0000
  C   C229      1.0  0.14386  0.87191  0.29999  1.0000
  C   C230      1.0  0.27147  0.49864  0.99437  1.0000
  P   P8        1.0  0.24299  0.92089  0.30686  1.0000
  C   C231      1.0  0.19948  0.90539  0.31639  1.0000
  H   H188      1.0  0.28693  0.63797  0.08164  1.0000
  C   C232      1.0  0.24871  0.58876  0.01285  1.0000
  C   C233      1.0  0.22763  0.56105  0.42870  1.0000
  C   C234      1.0  0.26853  0.88132  0.05189  1.0000
  C   C235      1.0  0.28383  0.82813  0.07562  1.0000
  S   S37       1.0  0.07482  0.75461  0.99433  1.0000
  C   C236      1.0  0.17470  0.52627  0.99170  1.0000
  C   C237      1.0  0.24578  0.89976  0.14305  1.0000
  C   C238      1.0  0.08391  0.66554  0.04181  1.0000
  C   C239      1.0  0.25123  0.59047  0.43990  1.0000
  H   H189      1.0  0.14523  0.54698  0.38109  1.0000
  H   H190      1.0  0.11160  0.50127  0.34340  1.0000
  C   C240      1.0  0.13458  0.61114  0.45824  1.0000
  C   C241      1.0  0.02777  0.55331  0.09704  1.0000
  C   C242      1.0  0.07828  0.66749  0.44351  1.0000
  H   H191      1.0  0.29749  0.94448  0.18722  1.0000
  H   H192      1.0  0.13727  0.54979  0.04092  1.0000
  H   H193      1.0  0.06342  0.71907  0.06356  1.0000
  H   H194      1.0  0.16631  0.68016  0.04178  1.0000
  C   C243      1.0  0.23780  0.63025  0.06383  1.0000
  H   H195      1.0  0.26924  0.80810  0.02322  1.0000
  H   H196      1.0  0.24466  0.60615  0.45831  1.0000
  C   C244      1.0  0.24175  0.85698  0.30945  1.0000
  H   H197      1.0  0.26548  0.51970  0.47093  1.0000
  H   H198      1.0  0.99134  0.85058  0.03627  1.0000
  P   P9        1.0  0.18582  0.54957  0.44444  1.0000
  H   H199      1.0  0.99456  0.70190  0.39526  1.0000
  H   H200      1.0  0.21449  0.85644  0.21868  1.0000
  C   C245      1.0  0.22970  0.72019  0.46409  1.0000
  C   C246      1.0  0.28041  0.89251  0.26756  1.0000
  C   C247      1.0  0.28755  0.85431  0.09860  1.0000
  H   H201      1.0  0.01003  0.57915  0.05872  1.0000
  H   H202      1.0  0.30620  0.97984  0.43537  1.0000
  C   C248      1.0  0.28254  0.97509  0.26826  1.0000
  C   C249      1.0  0.00850  0.62615  0.00968  1.0000
  C   C250      1.0  0.15160  0.63770  0.43662  1.0000
  C   C251      1.0  0.25242  0.49548  0.48104  1.0000
  C   C252      1.0  0.30788  0.95956  0.06241  1.0000
  H   H203      1.0  0.12777  0.89567  0.47644  1.0000
  H   H204      1.0  0.28411  0.81637  0.26594  1.0000
  C   C253      1.0  0.29215  0.93695  0.40228  1.0000
  C   C254      1.0  0.21811  0.59248  0.01449  1.0000
  C   C255      1.0  0.10222  0.57282  0.03057  1.0000
  C   C256      1.0  0.22121  0.96542  0.01251  1.0000
  S   S38       1.0  0.15288  0.81467  0.48172  1.0000
  C   C257      1.0  0.24787  0.69924  0.46284  1.0000
  S   S39       1.0  0.30077  0.53937  0.99585  1.0000
  C   C258      1.0  0.03498  0.62035  0.46705  1.0000
  H   H205      1.0  0.25506  0.85509  0.00241  1.0000
  H   H206      1.0  0.14431  0.65884  0.43558  1.0000
  H   H207      1.0  0.28339  0.48747  0.04744  1.0000
  C   C259      1.0  0.13030  0.56561  0.02302  1.0000
  H   H208      1.0  0.29193  0.91597  0.25509  1.0000
  C   C260      1.0  0.27283  0.82873  0.04071  1.0000
  C   C261      1.0  0.21301  0.61388  0.03973  1.0000
  H   H209      1.0  0.00519  0.56932  0.34666  1.0000
  H   H210      1.0  0.27639  0.53469  0.37500  1.0000
  C   C262      1.0  0.03099  0.73605  0.99660  1.0000
  C   C263      1.0  0.02730  0.74667  0.48413  1.0000
  C   C264      1.0  0.23752  0.96691  0.21284  1.0000
  C   C265      1.0  0.26731  0.97198  0.35539  1.0000
  H   H211      1.0  0.05974  0.68431  0.00142  1.0000
  H   H212      1.0  0.30139  0.62284  0.43623  1.0000
  H   H213      1.0  0.25878  0.96790  0.12973  1.0000
  H   H214      1.0  0.22010  0.96349  0.19124  1.0000
  H   H215      1.0  0.11490  0.69489  0.48088  1.0000
  C   C266      1.0  0.29261  0.57979  0.40423  1.0000
  H   H216      1.0  0.04692  0.70965  0.47115  1.0000
  C   C267      1.0  0.14069  0.69542  0.00062  1.0000
  H   H217      1.0  0.07135  0.59902  0.01388  1.0000
  C   C268      1.0  0.09301  0.59337  0.00798  1.0000
  H   H218      1.0  0.25338  0.57293  0.99305  1.0000
  H   H219      1.0  0.25685  0.98552  0.33814  1.0000
  C   C269      1.0  0.11057  0.69635  0.98933  1.0000
  C   C270      1.0  0.28247  0.98631  0.38712  1.0000
  H   H220      1.0  0.98418  0.65555  0.08468  1.0000
  C   C271      1.0  0.02730  0.71483  0.48432  1.0000
  H   H221      1.0  0.15426  0.61057  0.94688  1.0000
  C   C272      1.0  0.01946  0.63344  0.64066  1.0000
  S   S40       1.0  0.28264  0.51758  0.54713  1.0000
  S   S41       1.0  0.28549  0.60633  0.57404  1.0000
  S   S42       1.0  0.29264  0.59947  0.91500  1.0000
  S   S43       1.0  0.20236  0.76010  0.50003  1.0000
  C   C273      1.0  0.07373  0.63999  0.61857  1.0000
  C   C274      1.0  0.00178  0.68965  0.50143  1.0000
  H   H222      1.0  0.25037  0.90990  0.48877  1.0000
  C   C275      1.0  0.05047  0.63158  0.64609  1.0000
  C   C276      1.0  0.23582  0.73529  0.98372  1.0000
  C   C277      1.0  0.25800  0.70581  0.52625  1.0000
  C   C278      1.0  0.25217  0.97095  0.58826  1.0000
  H   H223      1.0  0.24942  0.81867  0.61219  1.0000
  H   H224      1.0  0.17127  0.91055  0.52160  1.0000
  C   C279      1.0  0.26408  0.95633  0.96208  1.0000
  H   H225      1.0  0.02773  0.71510  0.94410  1.0000
  C   C280      1.0  0.11452  0.84717  0.56523  1.0000
  H   H226      1.0  0.28067  0.95252  0.94260  1.0000
  H   H227      1.0  0.10510  0.62333  0.96079  1.0000
  C   C281      1.0  0.22393  0.59915  0.86966  1.0000
  C   C282      1.0  0.01402  0.71772  0.96724  1.0000
  C   C283      1.0  0.27260  0.96044  0.50470  1.0000
  C   C284      1.0  0.01180  0.64399  0.60781  1.0000
  H   H228      1.0  0.24340  0.90529  0.97675  1.0000
  C   C285      1.0  0.23869  0.83003  0.59259  1.0000
  C   C286      1.0  0.16977  0.60848  0.54715  1.0000
  H   H229      1.0  0.00027  0.77710  0.50009  1.0000
  H   H230      1.0  0.12702  0.48880  0.55003  1.0000
  H   H231      1.0  0.13107  0.50819  0.48781  1.0000
  C   C287      1.0  0.14846  0.89086  0.52734  1.0000
  H   H232      1.0  0.23101  0.95615  0.74760  1.0000
  H   H233      1.0  0.23465  0.56067  0.50303  1.0000
  C   C288      1.0  0.23964  0.72660  0.52753  1.0000
  H   H234      1.0  0.18713  0.59590  0.54615  1.0000
  C   C289      1.0  0.11198  0.60694  0.97797  1.0000
  H   H235      1.0  0.25876  0.81251  0.54765  1.0000
  C   C290      1.0  0.15272  0.51607  0.50445  1.0000
  C   C291      1.0  0.24006  0.94472  0.72645  1.0000
  H   H236      1.0  0.23504  0.83896  0.50273  1.0000
  C   C292      1.0  0.26942  0.70202  0.97005  1.0000
  H   H237      1.0  0.21074  0.54792  0.85951  1.0000
  H   H238      1.0  0.05664  0.62414  0.67187  1.0000
  C   C293      1.0  0.00084  0.75268  0.50039  1.0000
  H   H239      1.0  0.19101  0.53146  0.92052  1.0000
  H   H240      1.0  0.23027  0.86917  0.69518  1.0000
  C   C294      1.0  0.12378  0.88250  0.50153  1.0000
  H   H241      1.0  0.22977  0.54115  0.56469  1.0000
  C   C295      1.0  0.26219  0.69195  0.49383  1.0000
  C   C296      1.0  0.26352  0.96376  0.70199  1.0000
  C   C297      1.0  0.14006  0.59973  0.97027  1.0000
  C   C298      1.0  0.22821  0.91077  0.72398  1.0000
  H   H242      1.0  0.09799  0.63952  0.62363  1.0000
  H   H243      1.0  0.17015  0.92015  0.65435  1.0000
  C   C299      1.0  0.07767  0.65405  0.50649  1.0000
  C   C300      1.0  0.31085  0.50579  0.87196  1.0000
  C   C301      1.0  0.24898  0.93394  0.48713  1.0000
  H   H244      1.0  0.14769  0.90348  0.71438  1.0000
  C   C302      1.0  0.17827  0.63968  0.53267  1.0000
  C   C303      1.0  0.15955  0.75333  0.57712  1.0000
  C   C304      1.0  0.14354  0.77347  0.56391  1.0000
  C   C305      1.0  0.11282  0.75984  0.54792  1.0000
  C   C306      1.0  0.09859  0.72615  0.54414  1.0000
  C   C307      1.0  0.11521  0.70583  0.55566  1.0000
  C   C308      1.0  0.14531  0.71953  0.57337  1.0000
  P   P10       1.0  0.09618  0.66243  0.55010  1.0000
  C   C309      1.0  0.06583  0.64964  0.58515  1.0000
  H   H245      1.0  0.21045  0.89628  0.74325  1.0000
  H   H246      1.0  0.20191  0.65082  0.51993  1.0000
  C   C310      1.0  0.03497  0.65233  0.58030  1.0000
  C   C311      1.0  0.23081  0.84165  0.53090  1.0000
  C   C312      1.0  0.11655  0.60989  0.56367  1.0000
  H   H247      1.0  0.18366  0.76395  0.58884  1.0000
  H   H248      1.0  0.15523  0.79961  0.56523  1.0000
  H   H249      1.0  0.10033  0.77533  0.53745  1.0000
  H   H250      1.0  0.07480  0.71603  0.53174  1.0000
  H   H251      1.0  0.15822  0.70438  0.58354  1.0000
  H   H252      1.0  0.09241  0.59755  0.57480  1.0000
  H   H253      1.0  0.02893  0.66153  0.55556  1.0000
  H   H254      1.0  0.29701  0.97842  0.76900  1.0000
  C   C313      1.0  0.14838  0.88521  0.69528  1.0000
  C   C314      1.0  0.08991  0.83887  0.53927  1.0000
  C   C315      1.0  0.25118  0.72112  0.95882  1.0000
  C   C316      1.0  0.23938  0.89550  0.69687  1.0000
  C   C317      1.0  0.15026  0.50505  0.53974  1.0000
  H   H255      1.0  0.23642  0.73702  0.55277  1.0000
  H   H256      1.0  0.12787  0.80323  0.68776  1.0000
  C   C318      1.0  0.09460  0.85644  0.50741  1.0000
  C   C319      1.0  0.25641  0.48829  0.51679  1.0000
  H   H257      1.0  0.24908  0.72517  0.93060  1.0000
  H   H258      1.0  0.23662  0.64848  0.88824  1.0000
  H   H259      1.0  0.27867  0.97973  0.58667  1.0000
  C   C320      1.0  0.17800  0.51426  0.56149  1.0000
  H   H260      1.0  0.06739  0.81828  0.54332  1.0000
  H   H261      1.0  0.24811  0.92110  0.59048  1.0000
  C   C321      1.0  0.22554  0.73406  0.49648  1.0000
  Fe  Fe21      1.0  0.30947  0.57346  0.54913  1.0000
  C   C322      1.0  0.15622  0.65628  0.53407  1.0000
  C   C323      1.0  0.20146  0.98153  0.58621  1.0000
  C   C324      1.0  0.22575  0.62290  0.89515  1.0000
  H   H262      1.0  0.98809  0.64638  0.60379  1.0000
  H   H263      1.0  0.21733  0.63269  0.94964  1.0000
  H   H264      1.0  0.03784  0.61051  0.52280  1.0000
  H   H265      1.0  0.29174  0.95627  0.52000  1.0000
  C   C325      1.0  0.18376  0.94807  0.58791  1.0000
  H   H266      1.0  0.26871  0.70033  0.55032  1.0000
  H   H267      1.0  0.13424  0.51368  0.95448  1.0000
  H   H268      1.0  0.00158  0.62734  0.66212  1.0000
  C   C326      1.0  0.20120  0.58079  0.93949  1.0000
  H   H269      1.0  0.17641  0.50526  0.58862  1.0000
  H   H270      1.0  0.27128  0.90239  0.65123  1.0000
  H   H271      1.0  0.12660  0.84514  0.73147  1.0000
  C   C327      1.0  0.12542  0.64179  0.55036  1.0000
  H   H272      1.0  0.13216  0.56908  0.57318  1.0000
  C   C328      1.0  0.04921  0.62673  0.50093  1.0000
  H   H273      1.0  0.00205  0.66516  0.50116  1.0000
  Fe  Fe22      1.0  0.30985  0.64190  0.53017  1.0000
  S   S44       1.0  0.28397  0.66459  0.49044  1.0000
  H   H274      1.0  0.15724  0.93951  0.58738  1.0000
  C   C329      1.0  0.13727  0.82875  0.68032  1.0000
  C   C330      1.0  0.13653  0.85235  0.70494  1.0000
  C   C331      1.0  0.26246  0.91419  0.67219  1.0000
  C   C332      1.0  0.16103  0.89454  0.66102  1.0000
  C   C333      1.0  0.16186  0.87097  0.63603  1.0000
  C   C334      1.0  0.14979  0.83798  0.64600  1.0000
  P   P11       1.0  0.17737  0.88265  0.59127  1.0000
  C   C335      1.0  0.20027  0.92584  0.58970  1.0000
  C   C336      1.0  0.20431  0.86145  0.57794  1.0000
  C   C337      1.0  0.21894  0.84746  0.60344  1.0000
  C   C338      1.0  0.13882  0.59348  0.56241  1.0000
  C   C339      1.0  0.20812  0.53459  0.54801  1.0000
  S   S45       1.0  0.28895  0.68557  0.93720  1.0000
  C   C340      1.0  0.21116  0.85914  0.54164  1.0000
  H   H275      1.0  0.23336  0.60632  0.84295  1.0000
  H   H276      1.0  0.16322  0.68027  0.52205  1.0000
  H   H277      1.0  0.26572  0.50697  0.85027  1.0000
  C   C341      1.0  0.18301  0.53641  0.49054  1.0000
  H   H278      1.0  0.11035  0.83281  0.58932  1.0000
  C   C342      1.0  0.14415  0.87319  0.55941  1.0000
  C   C343      1.0  0.19994  0.55703  0.91383  1.0000
  C   C344      1.0  0.21121  0.56624  0.87905  1.0000
  H   H279      1.0  0.25381  0.50128  0.94137  1.0000
  H   H280      1.0  0.14996  0.81931  0.62723  1.0000
  H   H281      1.0  0.21504  0.84975  0.63162  1.0000
  H   H282      1.0  0.22216  0.75009  0.97456  1.0000
  C   C345      1.0  0.24427  0.82680  0.55629  1.0000
  C   C346      1.0  0.21483  0.61382  0.93003  1.0000
  H   H283      1.0  0.20109  0.87047  0.52140  1.0000
  H   H284      1.0  0.10922  0.70978  0.96544  1.0000
  C   C347      1.0  0.23464  0.93756  0.58992  1.0000
  C   C348      1.0  0.27453  0.94818  0.67472  1.0000
  C   C349      1.0  0.24296  0.92938  0.98158  1.0000
  H   H285      1.0  0.29250  0.96203  0.65543  1.0000
  C   C350      1.0  0.27745  0.49242  0.86424  1.0000
  H   H286      1.0  0.20721  0.98064  0.69501  1.0000
  C   C351      1.0  0.14782  0.50457  0.97323  1.0000
  C   C352      1.0  0.21074  0.54561  0.51272  1.0000
  H   H287      1.0  0.07587  0.84934  0.48691  1.0000
  P   P12       1.0  0.18597  0.56967  0.98437  1.0000
  H   H288      1.0  0.16272  0.70777  0.98535  1.0000
  C   C353      1.0  0.34046  0.34733  0.00522  1.0000
  S   S46       1.0  0.56222  0.26270  0.45164  1.0000
  H   H289      1.0  0.58575  0.25440  0.10838  1.0000
  H   H290      1.0  0.58517  0.19065  0.00897  1.0000
  C   C354      1.0  0.51464  0.21304  0.00080  1.0000
  C   C355      1.0  0.62977  0.30193  0.24399  1.0000
  H   H291      1.0  0.62897  0.30059  0.30188  1.0000
  C   C356      1.0  0.33582  0.29174  0.99336  1.0000
  Fe  Fe23      1.0  0.61802  0.27675  0.44077  1.0000
  H   H292      1.0  0.36540  0.15874  0.02302  1.0000
  H   H293      1.0  0.47573  0.17265  0.02444  1.0000
  H   H294      1.0  0.38942  0.38272  0.00510  1.0000
  S   S47       1.0  0.62639  0.32792  0.03248  1.0000
  H   H295      1.0  0.37304  0.29027  0.47365  1.0000
  C   C357      1.0  0.32133  0.34644  0.47896  1.0000
  H   H296      1.0  0.43211  0.25213  0.03048  1.0000
  C   C358      1.0  0.49690  0.23876  0.47231  1.0000
  C   C359      1.0  0.64027  0.27001  0.11836  1.0000
  C   C360      1.0  0.35565  0.35989  0.48063  1.0000
  C   C361      1.0  0.52633  0.20247  0.48352  1.0000
  H   H297      1.0  0.53214  0.21391  0.02153  1.0000
  H   H298      1.0  0.32036  0.26631  0.99162  1.0000
  H   H299      1.0  0.60846  0.30898  0.24210  1.0000
  C   C362      1.0  0.64548  0.29771  0.21247  1.0000
  C   C363      1.0  0.34404  0.21555  0.06753  1.0000
  C   C364      1.0  0.35621  0.24144  0.04352  1.0000
  Fe  Fe24      1.0  0.61299  0.28193  0.00031  1.0000
  H   H300      1.0  0.49191  0.26847  0.03397  1.0000
  C   C365      1.0  0.60802  0.30916  0.10619  1.0000
  C   C366      1.0  0.34194  0.43417  0.47228  1.0000
  H   H301      1.0  0.58506  0.31281  0.10192  1.0000
  C   C367      1.0  0.38926  0.33453  0.99371  1.0000
  C   C368      1.0  0.36999  0.23708  0.01079  1.0000
  C   C369      1.0  0.37284  0.20692  0.00338  1.0000
  C   C370      1.0  0.43272  0.28651  0.98841  1.0000
  C   C371      1.0  0.40692  0.47619  0.99066  1.0000
  H   H302      1.0  0.63823  0.36243  0.11032  1.0000
  C   C372      1.0  0.32116  0.31453  0.00125  1.0000
  H   H303      1.0  0.63098  0.38696  0.46922  1.0000
  H   H304      1.0  0.52765  0.31137  0.99421  1.0000
  S   S48       1.0  0.64648  0.24635  0.41928  1.0000
  C   C373      1.0  0.64140  0.29728  0.27800  1.0000
  H   H305      1.0  0.33807  0.16563  0.07870  1.0000
  H   H306      1.0  0.34783  0.42531  0.44717  1.0000
  H   H307      1.0  0.35505  0.26481  0.05086  1.0000
  H   H308      1.0  0.36813  0.38579  0.48392  1.0000
  C   C374      1.0  0.50125  0.30507  0.99313  1.0000
  C   C375      1.0  0.36187  0.18152  0.02819  1.0000
  H   H309      1.0  0.49640  0.26164  0.46219  1.0000
  H   H310      1.0  0.43007  0.47361  0.99713  1.0000
  S   S49       1.0  0.62984  0.30491  0.17041  1.0000
  C   C376      1.0  0.48107  0.28086  0.01560  1.0000
  H   H311      1.0  0.41564  0.34282  0.99204  1.0000
  C   C377      1.0  0.37446  0.35734  0.00138  1.0000
  C   C378      1.0  0.60838  0.27509  0.11006  1.0000
  C   C379      1.0  0.52635  0.23234  0.47033  1.0000
  S   S50       1.0  0.63087  0.25633  0.04278  1.0000
  H   H312      1.0  0.44652  0.04204  0.00438  1.0000
  C   C380      1.0  0.44699  0.27163  0.01338  1.0000
  C   C381      1.0  0.48252  0.18965  0.00239  1.0000
  H   H313      1.0  0.43582  0.09331  0.99399  1.0000
  S   S51       1.0  0.63899  0.31656  0.39951  1.0000
  C   C382      1.0  0.34694  0.18559  0.05990  1.0000
  Fe  Fe25      1.0  0.64603  0.30339  0.07878  1.0000
  H   H314      1.0  0.32596  0.99389  0.01923  1.0000
  H   H315      1.0  0.33663  0.18125  0.26026  1.0000
  C   C383      1.0  0.35867  0.30598  0.47493  1.0000
  H   H316      1.0  0.40071  0.35004  0.48007  1.0000
  C   C384      1.0  0.63945  0.33829  0.11071  1.0000
  C   C385      1.0  0.35656  0.46724  0.48057  1.0000
  C   C386      1.0  0.37006  0.30147  0.98942  1.0000
  C   C387      1.0  0.32452  0.29245  0.47326  1.0000
  H   H317      1.0  0.37389  0.48363  0.46225  1.0000
  H   H318      1.0  0.57651  0.34310  0.46462  1.0000
  H   H319      1.0  0.32049  0.20906  0.20991  1.0000
  H   H320      1.0  0.32910  0.36487  0.01193  1.0000
  H   H321      1.0  0.64042  0.24568  0.12246  1.0000
  C   C388      1.0  0.37422  0.33966  0.47858  1.0000
  H   H322      1.0  0.33281  0.21889  0.09231  1.0000
  H   H323      1.0  0.54843  0.19675  0.48186  1.0000
  C   C389      1.0  0.60311  0.29590  0.68558  1.0000
  S   S52       1.0  0.35647  0.10389  0.57299  1.0000
  C   C390      1.0  0.34976  0.25083  0.92018  1.0000
  Fe  Fe26      1.0  0.37752  0.14418  0.53238  1.0000
  C   C391      1.0  0.59651  0.30577  0.62273  1.0000
  H   H324      1.0  0.45034  0.22016  0.57529  1.0000
  S   S53       1.0  0.34924  0.17423  0.55518  1.0000
  C   C392      1.0  0.59738  0.28459  0.65045  1.0000
  Fe  Fe27      1.0  0.37292  0.13905  0.94335  1.0000
  S   S54       1.0  0.35749  0.16735  0.90154  1.0000
  H   H325      1.0  0.59835  0.35455  0.61007  1.0000
  Fe  Fe28      1.0  0.34232  0.12206  0.86754  1.0000
  S   S55       1.0  0.35947  0.11906  0.80970  1.0000
  C   C393      1.0  0.60161  0.00027  0.85537  1.0000
  S   S56       1.0  0.36133  0.09505  0.90804  1.0000
  C   C394      1.0  0.60596  0.34936  0.66595  1.0000
  H   H326      1.0  0.46882  0.13331  0.95039  1.0000
  H   H327      1.0  0.47156  0.28050  0.57143  1.0000
  C   C395      1.0  0.34538  0.12422  0.76602  1.0000
  C   C396      1.0  0.36116  0.11714  0.73596  1.0000
  C   C397      1.0  0.35148  0.12142  0.70083  1.0000
  H   H328      1.0  0.38122  0.10847  0.73987  1.0000
  H   H329      1.0  0.36402  0.11600  0.67814  1.0000
  H   H330      1.0  0.32929  0.25133  0.93603  1.0000
  C   C398      1.0  0.60087  0.24409  0.53643  1.0000
  H   H331      1.0  0.64475  0.98732  0.85465  1.0000
  C   C399      1.0  0.48850  0.26764  0.57425  1.0000
  H   H332      1.0  0.63428  0.22262  0.97389  1.0000
  C   C400      1.0  0.63116  0.34736  0.54733  1.0000
  H   H333      1.0  0.56093  0.01659  0.86321  1.0000
  S   S57       1.0  0.41953  0.15649  0.97839  1.0000
  H   H334      1.0  0.39978  0.38020  0.83048  1.0000
  C   C401      1.0  0.50875  0.18800  0.87460  1.0000
  C   C402      1.0  0.52072  0.10468  0.83694  1.0000
  C   C403      1.0  0.44378  0.15078  0.85795  1.0000
  C   C404      1.0  0.35129  0.41603  0.89513  1.0000
  H   H335      1.0  0.31790  0.46836  0.55913  1.0000
  H   H336      1.0  0.38455  0.20332  0.97902  1.0000
  C   C405      1.0  0.60753  0.32831  0.69332  1.0000
  C   C406      1.0  0.47649  0.23371  0.57672  1.0000
  H   H337      1.0  0.39299  0.43644  0.95377  1.0000
  C   C407      1.0  0.54436  0.26812  0.57709  1.0000
  S   S58       1.0  0.43325  0.15710  0.52257  1.0000
  S   S59       1.0  0.56456  0.26480  0.96811  1.0000
  H   H338      1.0  0.41851  0.13641  0.85178  1.0000
  C   C408      1.0  0.34733  0.03672  0.70455  1.0000
  C   C409      1.0  0.35591  0.45866  0.95722  1.0000
  P   P13       1.0  0.32825  0.43207  0.92519  1.0000
  C   C410      1.0  0.61084  0.26494  0.56584  1.0000
  H   H339      1.0  0.57281  0.07387  0.79528  1.0000
  H   H340      1.0  0.36507  0.23211  0.83544  1.0000
  H   H341      1.0  0.44030  0.19511  0.83742  1.0000
  H   H342      1.0  0.64936  0.28491  0.60486  1.0000
  C   C411      1.0  0.47367  0.11107  0.95435  1.0000
  H   H343      1.0  0.45116  0.20881  0.92638  1.0000
  C   C412      1.0  0.38093  0.25769  0.93528  1.0000
  H   H344      1.0  0.61184  0.33701  0.72058  1.0000
  C   C413      1.0  0.64006  0.26762  0.58345  1.0000
  C   C414      1.0  0.32594  0.13316  0.69520  1.0000
  C   C415      1.0  0.49822  0.10505  0.93455  1.0000
  C   C416      1.0  0.50462  0.07635  0.94091  1.0000
  P   P14       1.0  0.52244  0.13513  0.90302  1.0000
  C   C417      1.0  0.53793  0.11515  0.86894  1.0000
  C   C418      1.0  0.49659  0.15457  0.88249  1.0000
  C   C419      1.0  0.53322  0.08972  0.81058  1.0000
  C   C420      1.0  0.37951  0.05127  0.65021  1.0000
  C   C421      1.0  0.56298  0.08510  0.81593  1.0000
  C   C422      1.0  0.58015  0.09522  0.84778  1.0000
  C   C423      1.0  0.56759  0.10993  0.87431  1.0000
  C   C424      1.0  0.31947  0.13543  0.76038  1.0000
  H   H345      1.0  0.39987  0.05984  0.70317  1.0000
  C   C425      1.0  0.64644  0.02075  0.89761  1.0000
  C   C426      1.0  0.58476  0.01776  0.87277  1.0000
  H   H346      1.0  0.52388  0.07141  0.92661  1.0000
  H   H347      1.0  0.53608  0.15369  0.97875  1.0000
  H   H348      1.0  0.53353  0.20308  0.88158  1.0000
  S   S60       1.0  0.33841  0.11883  0.49202  1.0000
  H   H349      1.0  0.60338  0.09192  0.85182  1.0000
  H   H350      1.0  0.58119  0.11750  0.89891  1.0000
  H   H351      1.0  0.58439  0.18230  0.87695  1.0000
  H   H352      1.0  0.54831  0.22049  0.58309  1.0000
  C   C427      1.0  0.55718  0.16741  0.96286  1.0000
  C   C428      1.0  0.53202  0.23406  0.58052  1.0000
  C   C429      1.0  0.46805  0.21593  0.48731  1.0000
  H   H353      1.0  0.60389  0.27946  0.70685  1.0000
  C   C430      1.0  0.63222  0.00152  0.86791  1.0000
  H   H354      1.0  0.60600  0.05933  0.50726  1.0000
  H   H355      1.0  0.50754  0.25033  0.92363  1.0000
  C   C431      1.0  0.46387  0.13610  0.87409  1.0000
  C   C432      1.0  0.37829  0.41699  0.83810  1.0000
  H   H356      1.0  0.45372  0.11033  0.88010  1.0000
  C   C433      1.0  0.34798  0.47947  0.51195  1.0000
  H   H357      1.0  0.49775  0.10815  0.83204  1.0000
  C   C434      1.0  0.38577  0.45514  0.96600  1.0000
  C   C435      1.0  0.45610  0.18395  0.84989  1.0000
  C   C436      1.0  0.61259  0.20664  0.96042  1.0000
  C   C437      1.0  0.38637  0.39022  0.84856  1.0000
  C   C438      1.0  0.46108  0.05961  0.98506  1.0000
  C   C439      1.0  0.49822  0.21698  0.58016  1.0000
  H   H358      1.0  0.38324  0.35550  0.89034  1.0000
  P   P15       1.0  0.58797  0.29053  0.57781  1.0000
  H   H359      1.0  0.48872  0.19060  0.58145  1.0000
  C   C440      1.0  0.49761  0.17983  0.49888  1.0000
  C   C441      1.0  0.52231  0.28485  0.57481  1.0000
  C   C442      1.0  0.46858  0.20995  0.94727  1.0000
  C   C443      1.0  0.50069  0.23339  0.94572  1.0000
  H   H360      1.0  0.53125  0.31114  0.57290  1.0000
  C   C444      1.0  0.31840  0.02488  0.68437  1.0000
  C   C445      1.0  0.48857  0.20256  0.85822  1.0000
  C   C446      1.0  0.58433  0.18369  0.90580  1.0000
  C   C447      1.0  0.35971  0.38922  0.90550  1.0000
  H   H361      1.0  0.63819  0.43408  0.53836  1.0000
  H   H362      1.0  0.59346  0.25928  0.64488  1.0000
  C   C448      1.0  0.45926  0.18776  0.97558  1.0000
  C   C449      1.0  0.60023  0.33811  0.63078  1.0000
  C   C450      1.0  0.46819  0.18627  0.50096  1.0000
  C   C451      1.0  0.40054  0.24565  0.87795  1.0000
  H   H363      1.0  0.49799  0.22842  0.85258  1.0000
  H   H364      1.0  0.61136  0.20953  0.50242  1.0000
  H   H365      1.0  0.34659  0.03647  0.73343  1.0000
  C   C452      1.0  0.55684  0.16450  0.92554  1.0000
  H   H366      1.0  0.49080  0.03144  0.97073  1.0000
  H   H367      1.0  0.57952  0.24325  0.52131  1.0000
  C   C453      1.0  0.37773  0.05002  0.68747  1.0000
  C   C454      1.0  0.59845  0.03640  0.90284  1.0000
  H   H368      1.0  0.55467  0.01364  0.51842  1.0000
  C   C455      1.0  0.45501  0.08839  0.97927  1.0000
  C   C456      1.0  0.58031  0.32179  0.51538  1.0000
  C   C457      1.0  0.36081  0.42988  0.86124  1.0000
  H   H369      1.0  0.51990  0.08195  0.78585  1.0000
  H   H370      1.0  0.64758  0.34754  0.56902  1.0000
  H   H371      1.0  0.42979  0.25704  0.92511  1.0000
  C   C458      1.0  0.35086  0.03944  0.63001  1.0000
  Fe  Fe29      1.0  0.32614  0.13214  0.59337  1.0000
  H   H372      1.0  0.35212  0.04051  0.60108  1.0000
  H   H373      1.0  0.38546  0.42774  0.81193  1.0000
  C   C459      1.0  0.37709  0.37634  0.88226  1.0000
  C   C460      1.0  0.61894  0.22503  0.52566  1.0000
  C   C461      1.0  0.64748  0.22710  0.54392  1.0000
  H   H374      1.0  0.55718  0.30201  0.51181  1.0000
  H   H375      1.0  0.40300  0.06188  0.63692  1.0000
  C   C462      1.0  0.34420  0.24194  0.88428  1.0000
  C   C463      1.0  0.59993  0.32302  0.54537  1.0000
  C   C464      1.0  0.62910  0.03778  0.91536  1.0000
  C   C465      1.0  0.40604  0.25404  0.91400  1.0000
  H   H376      1.0  0.35473  0.45051  0.85244  1.0000
  H   H377      1.0  0.49818  0.15705  0.50925  1.0000
  C   C466      1.0  0.62204  0.36964  0.49085  1.0000
  H   H378      1.0  0.58520  0.04956  0.91671  1.0000
  H   H379      1.0  0.41993  0.24264  0.86188  1.0000
  C   C467      1.0  0.59127  0.34511  0.48836  1.0000
  S   S61       1.0  0.32293  0.11961  0.97011  1.0000
  H   H380      1.0  0.35271  0.37816  0.93152  1.0000
  C   C468      1.0  0.45329  0.31109  0.96612  1.0000
  H   H381      1.0  0.63895  0.05177  0.93917  1.0000
  C   C469      1.0  0.48597  0.05365  0.96600  1.0000
  C   C470      1.0  0.36967  0.23977  0.86302  1.0000
  H   H382      1.0  0.44293  0.32216  0.94587  1.0000
  H   H383      1.0  0.60891  0.37435  0.67203  1.0000
  H   H384      1.0  0.44584  0.22149  0.48875  1.0000
  C   C471      1.0  0.58503  0.18835  0.98018  1.0000
  H   H385      1.0  0.50316  0.33875  0.95082  1.0000
  C   C472      1.0  0.64206  0.37070  0.52025  1.0000
  H   H386      1.0  0.63333  0.21934  0.90804  1.0000
  C   C473      1.0  0.61211  0.20460  0.92324  1.0000
  C   C474      1.0  0.32044  0.02693  0.64701  1.0000
  C   C475      1.0  0.32519  0.45857  0.53532  1.0000
  C   C476      1.0  0.34748  0.48328  0.97377  1.0000
  C   C477      1.0  0.48738  0.32036  0.96858  1.0000
  C   C478      1.0  0.52411  0.23500  0.97225  1.0000
  H   H387      1.0  0.62850  0.47968  0.50732  1.0000
  C   C479      1.0  0.31889  0.41296  0.49558  1.0000
  P   P16       1.0  0.38874  0.27116  0.98125  1.0000
  C   C480      1.0  0.57777  0.00960  0.51901  1.0000
  H   H388      1.0  0.31975  0.23560  0.87334  1.0000
  C   C481      1.0  0.60709  0.03557  0.51273  1.0000
  C   C482      1.0  0.63732  0.99914  0.52014  1.0000
  C   C483      1.0  0.63715  0.03055  0.51324  1.0000
  H   H389      1.0  0.32457  0.48643  0.96760  1.0000
  H   H390      1.0  0.64159  0.15983  0.49787  1.0000
  H   H391      1.0  0.57985  0.65188  0.24308  1.0000
  H   H392      1.0  0.34656  0.95941  0.22570  1.0000
  H   H393      1.0  0.45414  0.64623  0.43078  1.0000
  C   C484      1.0  0.34648  0.94775  0.20020  1.0000
  H   H394      1.0  0.39590  0.94844  0.20570  1.0000
  H   H395      1.0  0.43589  0.65444  0.23371  1.0000
  S   S62       1.0  0.62633  0.81968  0.40652  1.0000
  H   H396      1.0  0.51011  0.64629  0.41957  1.0000
  Fe  Fe30      1.0  0.60150  0.77637  0.44236  1.0000
  H   H397      1.0  0.60692  0.70160  0.01019  1.0000
  C   C485      1.0  0.34677  0.91869  0.13382  1.0000
  H   H398      1.0  0.53491  0.67136  0.25775  1.0000
  H   H399      1.0  0.43041  0.67693  0.39087  1.0000
  C   C486      1.0  0.47161  0.64220  0.04959  1.0000
  Fe  Fe31      1.0  0.61834  0.78527  0.04604  1.0000
  H   H400      1.0  0.59901  0.83196  0.29622  1.0000
  C   C487      1.0  0.63361  0.67852  0.08718  1.0000
  C   C488      1.0  0.51391  0.72813  0.47108  1.0000
  H   H401      1.0  0.31980  0.94345  0.05241  1.0000
  C   C489      1.0  0.58267  0.66905  0.26469  1.0000
  C   C490      1.0  0.60647  0.69350  0.03756  1.0000
  H   H402      1.0  0.63784  0.71030  0.32752  1.0000
  H   H403      1.0  0.46974  0.66286  0.28797  1.0000
  H   H404      1.0  0.43893  0.69037  0.09506  1.0000
  C   C491      1.0  0.51761  0.67599  0.37216  1.0000
  C   C492      1.0  0.56948  0.82539  0.34358  1.0000
  C   C493      1.0  0.51869  0.69968  0.48212  1.0000
  H   H405      1.0  0.57920  0.85089  0.35086  1.0000
  H   H406      1.0  0.42738  0.65274  0.04335  1.0000
  C   C494      1.0  0.45607  0.67853  0.08807  1.0000
  C   C495      1.0  0.48505  0.68503  0.10750  1.0000
  C   C496      1.0  0.50789  0.67067  0.09755  1.0000
  C   C497      1.0  0.50056  0.64858  0.06898  1.0000
  P   P17       1.0  0.54459  0.67751  0.12345  1.0000
  C   C498      1.0  0.55686  0.71583  0.14680  1.0000
  C   C499      1.0  0.53466  0.64381  0.15423  1.0000
  C   C500      1.0  0.54373  0.61680  0.14698  1.0000
  C   C501      1.0  0.53504  0.59040  0.17060  1.0000
  C   C502      1.0  0.51668  0.59051  0.20119  1.0000
  C   C503      1.0  0.50679  0.61693  0.20805  1.0000
  C   C504      1.0  0.51562  0.64344  0.18459  1.0000
  C   C505      1.0  0.55522  0.74359  0.12960  1.0000
  C   C506      1.0  0.56641  0.77377  0.14677  1.0000
  C   C507      1.0  0.57943  0.77644  0.18116  1.0000
  C   C508      1.0  0.58172  0.74902  0.19821  1.0000
  C   C509      1.0  0.57079  0.71887  0.18097  1.0000
  C   C510      1.0  0.57904  0.68052  0.09509  1.0000
  C   C511      1.0  0.57958  0.69051  0.05945  1.0000
  S   S63       1.0  0.56290  0.76844  0.03200  1.0000
  H   H407      1.0  0.49378  0.75716  0.03106  1.0000
  H   H408      1.0  0.51610  0.75352  0.37391  1.0000
  C   C512      1.0  0.60665  0.67540  0.10912  1.0000
  H   H409      1.0  0.57927  0.77362  0.28110  1.0000
  H   H410      1.0  0.48967  0.70144  0.12998  1.0000
  H   H411      1.0  0.51742  0.63663  0.06128  1.0000
  H   H412      1.0  0.55716  0.61585  0.12291  1.0000
  H   H413      1.0  0.54224  0.56967  0.16494  1.0000
  H   H414      1.0  0.50976  0.56991  0.21930  1.0000
  H   H415      1.0  0.49204  0.61672  0.23142  1.0000
  H   H416      1.0  0.50747  0.66360  0.18993  1.0000
  H   H417      1.0  0.54617  0.74214  0.10251  1.0000
  H   H418      1.0  0.56613  0.79532  0.13284  1.0000
  H   H419      1.0  0.58901  0.80008  0.19393  1.0000
  H   H420      1.0  0.59313  0.75142  0.22422  1.0000
  H   H421      1.0  0.57418  0.69829  0.19391  1.0000
  H   H422      1.0  0.55963  0.69683  0.04881  1.0000
  H   H423      1.0  0.63157  0.67142  0.27782  1.0000
  C   C513      1.0  0.46792  0.65897  0.40775  1.0000
  H   H424      1.0  0.60765  0.66958  0.13706  1.0000
  C   C514      1.0  0.61530  0.70186  0.31227  1.0000
  C   C515      1.0  0.63333  0.68719  0.05133  1.0000
  C   C516      1.0  0.39837  0.50078  0.00676  1.0000
  C   C517      1.0  0.55725  0.68027  0.27302  1.0000
  C   C518      1.0  0.56092  0.70288  0.30068  1.0000
  C   C519      1.0  0.59011  0.71349  0.32037  1.0000
  P   P18       1.0  0.52779  0.71668  0.31224  1.0000
  C   C520      1.0  0.50184  0.71148  0.27327  1.0000
  C   C521      1.0  0.50415  0.69310  0.34904  1.0000
  C   C522      1.0  0.47251  0.69324  0.35589  1.0000
  H   H425      1.0  0.49617  0.74875  0.19483  1.0000
  C   C523      1.0  0.45452  0.67623  0.38515  1.0000
  C   C524      1.0  0.36861  0.50426  0.99834  1.0000
  S   S64       1.0  0.62902  0.74665  0.41843  1.0000
  C   C525      1.0  0.50909  0.73543  0.24648  1.0000
  C   C526      1.0  0.49020  0.73017  0.21542  1.0000
  C   C527      1.0  0.46375  0.70108  0.21088  1.0000
  C   C528      1.0  0.45638  0.67705  0.23727  1.0000
  C   C529      1.0  0.47545  0.68208  0.26820  1.0000
  C   C530      1.0  0.54465  0.75914  0.32502  1.0000
  C   C531      1.0  0.53374  0.77014  0.35611  1.0000
  C   C532      1.0  0.54626  0.80306  0.36538  1.0000
  C   C533      1.0  0.44940  0.65718  0.05909  1.0000
  C   C534      1.0  0.58086  0.81465  0.31297  1.0000
  C   C535      1.0  0.56915  0.78157  0.30417  1.0000
  S   S65       1.0  0.54572  0.76167  0.45096  1.0000
  H   H426      1.0  0.46661  0.62621  0.02658  1.0000
  C   C536      1.0  0.49946  0.65892  0.40131  1.0000
  H   H427      1.0  0.54226  0.67624  0.36830  1.0000
  H   H428      1.0  0.59353  0.73080  0.34196  1.0000
  H   H429      1.0  0.46206  0.70716  0.33914  1.0000
  H   H430      1.0  0.44897  0.69717  0.18692  1.0000
  C   C537      1.0  0.61174  0.67992  0.28427  1.0000
  H   H431      1.0  0.53828  0.81104  0.38993  1.0000
  S   S66       1.0  0.63779  0.76495  0.09281  1.0000
  H   H432      1.0  0.52941  0.75811  0.24909  1.0000
  C   C538      1.0  0.31872  0.93919  0.17841  1.0000
  C   C539      1.0  0.49735  0.73841  0.01469  1.0000
  H   H433      1.0  0.34757  0.90818  0.10784  1.0000
  S   S67       1.0  0.63844  0.79628  0.48594  1.0000
  H   H434      1.0  0.36182  0.52335  0.01063  1.0000
  C   C540      1.0  0.46994  0.71492  0.99824  1.0000
  H   H435      1.0  0.44568  0.71560  0.00245  1.0000
  S   S68       1.0  0.63982  0.83699  0.06673  1.0000
  C   C541      1.0  0.52925  0.73780  0.01040  1.0000
  C   C542      1.0  0.37448  0.92723  0.15569  1.0000
  C   C543      1.0  0.37431  0.94165  0.18891  1.0000
  H   H436      1.0  0.39623  0.92294  0.14671  1.0000
  C   C544      1.0  0.31849  0.92409  0.14534  1.0000
  H   H437      1.0  0.55392  0.85134  0.47464  1.0000
  H   H438      1.0  0.41479  0.51725  0.02566  1.0000
  H   H439      1.0  0.47837  0.75178  0.46698  1.0000
  H   H440      1.0  0.63982  0.94739  0.01663  1.0000
  H   H441      1.0  0.54244  0.69752  0.47869  1.0000
  C   C545      1.0  0.48255  0.73006  0.47551  1.0000
  C   C546      1.0  0.53325  0.71334  0.98895  1.0000
  H   H442      1.0  0.31779  0.58692  0.39525  1.0000
  C   C547      1.0  0.33407  0.59893  0.71315  1.0000
  S   S69       1.0  0.35550  0.59449  0.58252  1.0000
  H   H443      1.0  0.60474  0.85145  0.50412  1.0000
  Fe  Fe32      1.0  0.37564  0.63128  0.53805  1.0000
  H   H444      1.0  0.35841  0.50528  0.51794  1.0000
  H   H445      1.0  0.51512  0.72463  0.85579  1.0000
  S   S70       1.0  0.35558  0.66736  0.56215  1.0000
  H   H446      1.0  0.41941  0.71188  0.79885  1.0000
  Fe  Fe33      1.0  0.38476  0.64190  0.94291  1.0000
  S   S71       1.0  0.36119  0.66158  0.89908  1.0000
  S   S72       1.0  0.44015  0.65880  0.95673  1.0000
  C   C548      1.0  0.49465  0.75408  0.88745  1.0000
  H   H447      1.0  0.49982  0.81362  0.49551  1.0000
  H   H448      1.0  0.48348  0.74449  0.78991  1.0000
  S   S73       1.0  0.36356  0.59060  0.92116  1.0000
  C   C549      1.0  0.39535  0.73508  0.94694  1.0000
  C   C550      1.0  0.47875  0.76686  0.79391  1.0000
  H   H449      1.0  0.33425  0.56286  0.75239  1.0000
  H   H450      1.0  0.53323  0.74130  0.66371  1.0000
  C   C551      1.0  0.33351  0.60637  0.77838  1.0000
  H   H451      1.0  0.34870  0.74164  0.94823  1.0000
  H   H452      1.0  0.33324  0.67391  0.73319  1.0000
  S   S74       1.0  0.33489  0.64719  0.66329  1.0000
  H   H453      1.0  0.48501  0.83647  0.74948  1.0000
  Fe  Fe34      1.0  0.33275  0.62915  0.60488  1.0000
  C   C552      1.0  0.44966  0.72017  0.61452  1.0000
  C   C553      1.0  0.54783  0.74939  0.89775  1.0000
  H   H454      1.0  0.44139  0.62687  0.87042  1.0000
  H   H455      1.0  0.58693  0.73708  0.63451  1.0000
  C   C554      1.0  0.55614  0.78234  0.69770  1.0000
  H   H456      1.0  0.39650  0.75580  0.84618  1.0000
  C   C555      1.0  0.33341  0.64960  0.73724  1.0000
  H   H457      1.0  0.40962  0.61223  0.81398  1.0000
  H   H458      1.0  0.46410  0.84821  0.80757  1.0000
  C   C556      1.0  0.44360  0.68762  0.60593  1.0000
  C   C557      1.0  0.48544  0.78966  0.76619  1.0000
  C   C558      1.0  0.42575  0.69390  0.81388  1.0000
  H   H459      1.0  0.63622  0.70061  0.55537  1.0000
  C   C559      1.0  0.46810  0.82545  0.80370  1.0000
  C   C560      1.0  0.33393  0.58712  0.74838  1.0000
  C   C561      1.0  0.57478  0.81552  0.69946  1.0000
  C   C562      1.0  0.46127  0.80264  0.83141  1.0000
  C   C563      1.0  0.46584  0.77286  0.82641  1.0000
  C   C564      1.0  0.42187  0.73546  0.92572  1.0000
  C   C565      1.0  0.52192  0.81441  0.50920  1.0000
  C   C566      1.0  0.48094  0.74350  0.60935  1.0000
  C   C567      1.0  0.46101  0.67541  0.50116  1.0000
  C   C568      1.0  0.43782  0.64567  0.85402  1.0000
  C   C569      1.0  0.44461  0.70251  0.84511  1.0000
  C   C570      1.0  0.61908  0.71253  0.56229  1.0000
  H   H460      1.0  0.60826  0.71940  0.50752  1.0000
  H   H461      1.0  0.32482  0.53061  0.86395  1.0000
  H   H462      1.0  0.41930  0.66952  0.60961  1.0000
  C   C571      1.0  0.51881  0.74123  0.87805  1.0000
  H   H463      1.0  0.48274  0.78711  0.92320  1.0000
  H   H464      1.0  0.58438  0.83285  0.61099  1.0000
  H   H465      1.0  0.35208  0.49833  0.89613  1.0000
  C   C572      1.0  0.49988  0.70173  0.58621  1.0000
  C   C573      1.0  0.39692  0.75092  0.87446  1.0000
  Fe  Fe35      1.0  0.32019  0.58327  0.95720  1.0000
  H   H466      1.0  0.49638  0.65152  0.50474  1.0000
  H   H467      1.0  0.45240  0.80822  0.85670  1.0000
  C   C574      1.0  0.36967  0.74272  0.93199  1.0000
  S   S75       1.0  0.33127  0.60758  0.50356  1.0000
  C   C575      1.0  0.33303  0.63771  0.77248  1.0000
  C   C576      1.0  0.45021  0.67809  0.86526  1.0000
  H   H468      1.0  0.58157  0.82728  0.72516  1.0000
  S   S76       1.0  0.33421  0.59015  0.82228  1.0000
  H   H469      1.0  0.42995  0.72715  0.62505  1.0000
  C   C577      1.0  0.50061  0.77628  0.91586  1.0000
  C   C578      1.0  0.33391  0.63037  0.70721  1.0000
  H   H470      1.0  0.50941  0.67098  0.95634  1.0000
  S   S77       1.0  0.42836  0.64062  0.51786  1.0000
  C   C579      1.0  0.55775  0.78494  0.63278  1.0000
  C   C580      1.0  0.46876  0.67843  0.59204  1.0000
  C   C581      1.0  0.50583  0.68977  0.97264  1.0000
  C   C582      1.0  0.47998  0.81888  0.77102  1.0000
  C   C583      1.0  0.37028  0.75031  0.89570  1.0000
  H   H471      1.0  0.60165  0.81403  0.55422  1.0000
  C   C584      1.0  0.50630  0.73444  0.59513  1.0000
  P   P19       1.0  0.54692  0.76459  0.59018  1.0000
  C   C585      1.0  0.57561  0.74460  0.57960  1.0000
  C   C586      1.0  0.54757  0.76711  0.66455  1.0000
  H   H472      1.0  0.46350  0.68394  0.89015  1.0000
  C   C587      1.0  0.57633  0.81834  0.63482  1.0000
  H   H473      1.0  0.43245  0.70597  0.49357  1.0000
  C   C588      1.0  0.58161  0.73903  0.54381  1.0000
  C   C589      1.0  0.54862  0.79304  0.55459  1.0000
  C   C590      1.0  0.51998  0.79307  0.53757  1.0000
  S   S78       1.0  0.34272  0.63378  0.98135  1.0000
  C   C591      1.0  0.58104  0.83562  0.51397  1.0000
  H   H474      1.0  0.54850  0.76831  0.72204  1.0000
  C   C592      1.0  0.57917  0.81435  0.54236  1.0000
  H   H475      1.0  0.46379  0.65323  0.58485  1.0000
  C   C593      1.0  0.52960  0.78430  0.93555  1.0000
  C   C594      1.0  0.59135  0.73358  0.60670  1.0000
  H   H476      1.0  0.49618  0.77599  0.54513  1.0000
  H   H477      1.0  0.49471  0.78460  0.74090  1.0000
  C   C595      1.0  0.60334  0.72318  0.53524  1.0000
  H   H478      1.0  0.56958  0.74698  0.52238  1.0000
  C   C596      1.0  0.42331  0.74426  0.88959  1.0000
  P   P20       1.0  0.45708  0.74348  0.86218  1.0000
  H   H479      1.0  0.51862  0.69398  0.57457  1.0000
  C   C597      1.0  0.47392  0.69025  0.97711  1.0000
  H   H480      1.0  0.39418  0.72782  0.97469  1.0000
  H   H481      1.0  0.44083  0.72805  0.93724  1.0000
  H   H482      1.0  0.33269  0.65291  0.79506  1.0000
  C   C598      1.0  0.55241  0.83562  0.49737  1.0000
  H   H483      1.0  0.48533  0.76862  0.61630  1.0000
  C   C599      1.0  0.58481  0.83350  0.66804  1.0000
  C   C600      1.0  0.61301  0.71762  0.59802  1.0000
  H   H484      1.0  0.57522  0.77652  0.94250  1.0000
  H   H485      1.0  0.34958  0.75476  0.88396  1.0000
  Fe  Fe36      1.0  0.33737  0.61006  0.87986  1.0000
  C   C601      1.0  0.55314  0.77080  0.92658  1.0000
  H   H486      1.0  0.39995  0.65506  0.77786  1.0000
  H   H487      1.0  0.53363  0.80043  0.95835  1.0000
  C   C602      1.0  0.41993  0.63744  0.82237  1.0000
  C   C603      1.0  0.41422  0.66161  0.80213  1.0000
  H   H488      1.0  0.59932  0.85924  0.66940  1.0000
  H   H489      1.0  0.62519  0.70923  0.61896  1.0000
  H   H490      1.0  0.56604  0.73878  0.89106  1.0000
  H   H491      1.0  0.55751  0.71272  0.98464  1.0000
  H   H492      1.0  0.33448  0.58374  0.69058  1.0000
  C   C604      1.0  0.49242  0.67354  0.49687  1.0000
  C   C605      1.0  0.45638  0.70407  0.49066  1.0000
  Fe  Fe37      1.0  0.31761  0.65034  0.93665  1.0000
  C   C606      1.0  0.32619  0.48738  0.89020  1.0000
  C   C607      1.0  0.60798  0.97323  0.52630  1.0000
  H   H493      1.0  0.60839  0.94906  0.53129  1.0000
  C   C608      1.0  0.57821  0.97845  0.52575  1.0000
  H   H494      1.0  0.55545  0.95835  0.53041  1.0000
  H   H495      1.0  0.59082  0.98543  0.83238  1.0000
  Fe  Fe38      1.0  0.68687  0.27491  0.45689  1.0000
  H   H496      1.0  0.74776  0.99657  0.04021  1.0000
  H   H497      1.0  0.85595  0.12881  0.41716  1.0000
  Fe  Fe39      1.0  0.67978  0.34067  0.43859  1.0000
  S   S79       1.0  0.69614  0.39665  0.44236  1.0000
  S   S80       1.0  0.71162  0.31434  0.41698  1.0000
  H   H498      1.0  0.78342  0.18800  0.12816  1.0000
  Fe  Fe40      1.0  0.68028  0.27593  0.01608  1.0000
  C   C609      1.0  0.67806  0.37703  0.19482  1.0000
  C   C610      1.0  0.73292  0.37628  0.20157  1.0000
  H   H499      1.0  0.92158  0.25899  0.41089  1.0000
  S   S81       1.0  0.69668  0.32178  0.04903  1.0000
  C   C611      1.0  0.70610  0.37377  0.17947  1.0000
  C   C612      1.0  0.85767  0.20654  0.16835  1.0000
  H   H500      1.0  0.70577  0.27656  0.25145  1.0000
  Fe  Fe41      1.0  0.66947  0.28796  0.38044  1.0000
  C   C613      1.0  0.88861  0.20225  0.45820  1.0000
  C   C614      1.0  0.86501  0.21591  0.44896  1.0000
  H   H501      1.0  0.80423  0.38344  0.05490  1.0000
  C   C615      1.0  0.65684  0.14842  0.44658  1.0000
  C   C616      1.0  0.66883  0.12768  0.42748  1.0000
  C   C617      1.0  0.74607  0.18260  0.45970  1.0000
  H   H502      1.0  0.79595  0.30864  0.37170  1.0000
  C   C618      1.0  0.76299  0.37764  0.08933  1.0000
  C   C619      1.0  0.69398  0.40584  0.07763  1.0000
  H   H503      1.0  0.80978  0.20267  0.18743  1.0000
  C   C620      1.0  0.67306  0.28860  0.21553  1.0000
  C   C621      1.0  0.83797  0.19757  0.42828  1.0000
  H   H504      1.0  0.73977  0.32411  0.15883  1.0000
  C   C622      1.0  0.93300  0.27535  0.43258  1.0000
  C   C623      1.0  0.72446  0.43561  0.12827  1.0000
  H   H505      1.0  0.71791  0.46630  0.44089  1.0000
  C   C624      1.0  0.88552  0.17114  0.44639  1.0000
  C   C625      1.0  0.85869  0.15322  0.42559  1.0000
  C   C626      1.0  0.85056  0.24822  0.00174  1.0000
  H   H506      1.0  0.85586  0.32391  0.36162  1.0000
  H   H507      1.0  0.71796  0.21060  0.43877  1.0000
  C   C627      1.0  0.98247  0.31057  0.46137  1.0000
  H   H508      1.0  0.89838  0.18935  0.99056  1.0000
  C   C628      1.0  0.72634  0.46493  0.11207  1.0000
  C   C629      1.0  0.73470  0.05954  0.48135  1.0000
  C   C630      1.0  0.91395  0.28034  0.46072  1.0000
  C   C631      1.0  0.76831  0.99517  0.98813  1.0000
  C   C632      1.0  0.69521  0.43513  0.06194  1.0000
  C   C633      1.0  0.70804  0.40577  0.11127  1.0000
  H   H509      1.0  0.68408  0.43494  0.03607  1.0000
  H   H510      1.0  0.73625  0.43630  0.15381  1.0000
  C   C634      1.0  0.70167  0.38029  0.25375  1.0000
  C   C635      1.0  0.66887  0.28804  0.28098  1.0000
  H   H511      1.0  0.81343  0.15200  0.40173  1.0000
  H   H512      1.0  0.78782  0.31197  0.13809  1.0000
  H   H513      1.0  0.74301  0.16781  0.43599  1.0000
  C   C636      1.0  0.87635  0.20409  0.13883  1.0000
  C   C637      1.0  0.75366  0.33730  0.13614  1.0000
  C   C638      1.0  0.73170  0.20678  0.46124  1.0000
  H   H514      1.0  0.82018  0.34143  0.08606  1.0000
  C   C639      1.0  0.83489  0.16637  0.41667  1.0000
  H   H515      1.0  0.83684  0.26440  0.00455  1.0000
  C   C640      1.0  0.75342  0.21066  0.00281  1.0000
  S   S82       1.0  0.71173  0.24351  0.01901  1.0000
  C   C641      1.0  0.66771  0.09647  0.48143  1.0000
  H   H516      1.0  0.85574  0.05968  0.02722  1.0000
  H   H517      1.0  0.75650  0.41720  0.01549  1.0000
  C   C642      1.0  0.85940  0.23453  0.03196  1.0000
  C   C643      1.0  0.87539  0.21195  0.02826  1.0000
  C   C644      1.0  0.88489  0.20561  0.99410  1.0000
  P   P21       1.0  0.88559  0.19256  0.06678  1.0000
  C   C645      1.0  0.87646  0.14995  0.05627  1.0000
  C   C646      1.0  0.92896  0.21161  0.07558  1.0000
  C   C647      1.0  0.94557  0.19479  0.09491  1.0000
  H   H518      1.0  0.66004  0.01473  0.44714  1.0000
  H   H519      1.0  0.65315  0.16880  0.43325  1.0000
  H   H520      1.0  0.68420  0.08650  0.42955  1.0000
  C   C648      1.0  0.94661  0.24289  0.06241  1.0000
  C   C649      1.0  0.84558  0.12639  0.06390  1.0000
  C   C650      1.0  0.83838  0.09392  0.05380  1.0000
  C   C651      1.0  0.86184  0.08464  0.03609  1.0000
  C   C652      1.0  0.89269  0.10775  0.02875  1.0000
  C   C653      1.0  0.89997  0.14022  0.03875  1.0000
  C   C654      1.0  0.86163  0.19575  0.10517  1.0000
  P   P22       1.0  0.70746  0.36821  0.13163  1.0000
  C   C655      1.0  0.67158  0.29899  0.12254  1.0000
  C   C656      1.0  0.70569  0.01057  0.43143  1.0000
  C   C657      1.0  0.82422  0.20075  0.16453  1.0000
  C   C658      1.0  0.75421  0.43736  0.00065  1.0000
  C   C659      1.0  0.67434  0.10184  0.44479  1.0000
  C   C660      1.0  0.73026  0.45978  0.46301  1.0000
  C   C661      1.0  0.65035  0.14337  0.48305  1.0000
  H   H521      1.0  0.85335  0.24145  0.05797  1.0000
  H   H522      1.0  0.78625  0.18458  0.99134  1.0000
  H   H523      1.0  0.93245  0.17065  0.10533  1.0000
  C   C662      1.0  0.72433  0.42665  0.47000  1.0000
  P   P23       1.0  0.87050  0.25705  0.46251  1.0000
  H   H524      1.0  0.75468  0.01137  0.42149  1.0000
  H   H525      1.0  0.93454  0.25639  0.04733  1.0000
  H   H526      1.0  0.82663  0.13280  0.07682  1.0000
  C   C663      1.0  0.77936  0.46837  0.00210  1.0000
  H   H527      1.0  0.65729  0.37579  0.17834  1.0000
  C   C664      1.0  0.70062  0.04790  0.47707  1.0000
  H   H528      1.0  0.92373  0.15782  0.03179  1.0000
  H   H529      1.0  0.81598  0.18341  0.07595  1.0000
  H   H530      1.0  0.75053  0.37930  0.25571  1.0000
  H   H531      1.0  0.91067  0.10078  0.01420  1.0000
  C   C665      1.0  0.67140  0.33349  0.11922  1.0000
  H   H532      1.0  0.68250  0.38345  0.06312  1.0000
  H   H533      1.0  0.88858  0.30180  0.40059  1.0000
  C   C666      1.0  0.67575  0.37998  0.23179  1.0000
  C   C667      1.0  0.98044  0.25680  0.06793  1.0000
  H   H534      1.0  0.90372  0.16072  0.45384  1.0000
  S   S83       1.0  0.68444  0.28102  0.32302  1.0000
  H   H535      1.0  0.69445  0.99134  0.41237  1.0000
  C   C668      1.0  0.81330  0.26467  0.43828  1.0000
  Fe  Fe42      1.0  0.67558  0.34355  0.00523  1.0000
  C   C669      1.0  0.81032  0.29882  0.38871  1.0000
  C   C670      1.0  0.79034  0.37075  0.07783  1.0000
  H   H536      1.0  0.69356  0.29448  0.12902  1.0000
  C   C671      1.0  0.68458  0.28378  0.24951  1.0000
  H   H537      1.0  0.81881  0.20679  0.42156  1.0000
  C   C672      1.0  0.84724  0.27335  0.43310  1.0000
  S   S84       1.0  0.78055  0.14556  0.48544  1.0000
  H   H538      1.0  0.90220  0.20875  0.14247  1.0000
  C   C673      1.0  0.79929  0.34709  0.09536  1.0000
  H   H539      1.0  0.68549  0.28505  0.19191  1.0000
  C   C674      1.0  0.82793  0.18989  0.10164  1.0000
  C   C675      1.0  0.75192  0.48451  0.48441  1.0000
  C   C676      1.0  0.84405  0.30740  0.38311  1.0000
  H   H540      1.0  0.75357  0.20677  0.03131  1.0000
  C   C677      1.0  0.79498  0.27749  0.41634  1.0000
  C   C678      1.0  0.78104  0.33048  0.12461  1.0000
  C   C679      1.0  0.80937  0.19244  0.13117  1.0000
  C   C680      1.0  0.74418  0.36077  0.11842  1.0000
  H   H541      1.0  0.86916  0.21297  0.19425  1.0000
  C   C681      1.0  0.75410  0.04655  0.46115  1.0000
  C   C682      1.0  0.73043  0.37893  0.23860  1.0000
  C   C683      1.0  0.73960  0.02190  0.43642  1.0000
  C   C684      1.0  0.73492  0.22855  0.98894  1.0000
  C   C685      1.0  0.68626  0.02371  0.45144  1.0000
  C   C686      1.0  0.86252  0.29477  0.40525  1.0000
  H   H542      1.0  0.76883  0.27091  0.42088  1.0000
  H   H543      1.0  0.69928  0.38113  0.28251  1.0000
  C   C687      1.0  0.71169  0.46468  0.07890  1.0000
  C   C688      1.0  0.96713  0.29023  0.43310  1.0000
  H   H544      1.0  0.75623  0.39561  0.07485  1.0000
  H   H545      1.0  0.81420  0.07599  0.05858  1.0000
  H   H546      1.0  0.75567  0.37594  0.19063  1.0000
  H   H547      1.0  0.78035  0.05515  0.46521  1.0000
  H   H548      1.0  0.80097  0.24802  0.45945  1.0000
  H   H549      1.0  0.74331  0.07681  0.02247  1.0000
  H   H550      1.0  0.90951  0.21557  0.47452  1.0000
  H   H551      1.0  0.98187  0.28529  0.41212  1.0000
  H   H552      1.0  0.67439  0.13203  0.39932  1.0000
  C   C689      1.0  0.73225  0.07960  0.99739  1.0000
  H   H553      1.0  0.80078  0.47169  0.01831  1.0000
  C   C690      1.0  0.97944  0.20870  0.10011  1.0000
  H   H554      1.0  0.65325  0.38056  0.24351  1.0000
  H   H555      1.0  0.74602  0.13149  0.00232  1.0000
  S   S85       1.0  0.65709  0.30296  0.48097  1.0000
  Fe  Fe43      1.0  0.81035  0.12612  0.52382  1.0000
  C   C691      1.0  0.83172  0.19796  0.80546  1.0000
  Fe  Fe44      1.0  0.82919  0.11109  0.59876  1.0000
  S   S86       1.0  0.86153  0.08482  0.57745  1.0000
  S   S87       1.0  0.81621  0.12251  0.65568  1.0000
  Fe  Fe45      1.0  0.88033  0.12627  0.53754  1.0000
  C   C692      1.0  0.93582  0.18061  0.64533  1.0000
  Fe  Fe46      1.0  0.82040  0.06075  0.53828  1.0000
  C   C693      1.0  0.68677  0.46340  0.55563  1.0000
  S   S88       1.0  0.85066  0.15410  0.56138  1.0000
  S   S89       1.0  0.78719  0.08455  0.56202  1.0000
  Fe  Fe47      1.0  0.81560  0.07990  0.94625  1.0000
  S   S90       1.0  0.79313  0.09694  0.89944  1.0000
  C   C694      1.0  0.86411  0.19971  0.80087  1.0000
  Fe  Fe48      1.0  0.88318  0.13664  0.93644  1.0000
  S   S91       1.0  0.86480  0.15638  0.88868  1.0000
  H   H556      1.0  0.86914  0.21666  0.52530  1.0000
  Fe  Fe49      1.0  0.81827  0.14788  0.92049  1.0000
  H   H557      1.0  0.68117  0.25117  0.58549  1.0000
  Fe  Fe50      1.0  0.84065  0.10461  0.87042  1.0000
  S   S92       1.0  0.84645  0.08574  0.81442  1.0000
  H   H558      1.0  0.73613  0.39330  0.50458  1.0000
  S   S93       1.0  0.86183  0.08482  0.91622  1.0000
  H   H559      1.0  0.75646  0.23545  0.54441  1.0000
  C   C695      1.0  0.74247  0.01701  0.88592  1.0000
  H   H560      1.0  0.92131  0.10203  0.80394  1.0000
  C   C696      1.0  0.92943  0.18164  0.79330  1.0000
  C   C697      1.0  0.85870  0.24047  0.96773  1.0000
  C   C698      1.0  0.76189  0.44341  0.52037  1.0000
  C   C699      1.0  0.72436  0.42853  0.87477  1.0000
  H   H561      1.0  0.91552  0.30545  0.51087  1.0000
  C   C700      1.0  0.94803  0.24979  0.77027  1.0000
  C   C701      1.0  0.92714  0.12750  0.81050  1.0000
  C   C702      1.0  0.96543  0.21228  0.51617  1.0000
  C   C703      1.0  0.94147  0.17057  0.85435  1.0000
  H   H562      1.0  0.78801  0.01562  0.86489  1.0000
  H   H563      1.0  0.93877  0.17411  0.61792  1.0000
  C   C704      1.0  0.75351  0.22057  0.92941  1.0000
  C   C705      1.0  0.82372  0.11065  0.69948  1.0000
  C   C706      1.0  0.84128  0.08995  0.70560  1.0000
  C   C707      1.0  0.84795  0.08270  0.74088  1.0000
  C   C708      1.0  0.83740  0.09611  0.77057  1.0000
  C   C709      1.0  0.81972  0.11667  0.76445  1.0000
  C   C710      1.0  0.81282  0.12372  0.72919  1.0000
  H   H564      1.0  0.84993  0.07970  0.68319  1.0000
  H   H565      1.0  0.86152  0.06663  0.74521  1.0000
  H   H566      1.0  0.81122  0.12701  0.78690  1.0000
  H   H567      1.0  0.79917  0.13969  0.72488  1.0000
  H   H568      1.0  0.70923  0.05230  0.62859  1.0000
  C   C711      1.0  0.69042  0.42038  0.87362  1.0000
  H   H569      1.0  0.72132  0.24735  0.94091  1.0000
  C   C712      1.0  0.95740  0.30751  0.77585  1.0000
  H   H570      1.0  0.88293  0.21390  0.93762  1.0000
  H   H571      1.0  0.77394  0.43685  0.54273  1.0000
  H   H572      1.0  0.94154  0.21687  0.83640  1.0000
  C   C713      1.0  0.69755  0.47006  0.84092  1.0000
  C   C714      1.0  0.76786  0.19658  0.51908  1.0000
  S   S94       1.0  0.80790  0.00703  0.52122  1.0000
  H   H573      1.0  0.78178  0.19288  0.54143  1.0000
  H   H574      1.0  0.87735  0.19615  0.82383  1.0000
  C   C715      1.0  0.72396  0.45925  0.96065  1.0000
  C   C716      1.0  0.76242  0.03383  0.82611  1.0000
  H   H575      1.0  0.94707  0.17853  0.88175  1.0000
  H   H576      1.0  0.94549  0.21355  0.53257  1.0000
  C   C717      1.0  0.72939  0.10187  0.61033  1.0000
  C   C718      1.0  0.65170  0.48371  0.52047  1.0000
  S   S95       1.0  0.79359  0.18591  0.91323  1.0000
  C   C719      1.0  0.65820  0.24858  0.57258  1.0000
  S   S96       1.0  0.93742  0.15261  0.95569  1.0000
  C   C720      1.0  0.82850  0.20884  0.74253  1.0000
  H   H577      1.0  0.73768  0.99894  0.52039  1.0000
  P   P24       1.0  0.68521  0.02099  0.91455  1.0000
  H   H578      1.0  0.65316  0.99900  0.98314  1.0000
  H   H579      1.0  0.88226  0.15658  0.71451  1.0000
  C   C721      1.0  0.73518  0.22591  0.49185  1.0000
  H   H580      1.0  0.77120  0.46340  0.86117  1.0000
  C   C722      1.0  0.90399  0.17078  0.69990  1.0000
  H   H581      1.0  0.74750  0.14849  0.58408  1.0000
  H   H582      1.0  0.71661  0.47696  0.77092  1.0000
  C   C723      1.0  0.70380  0.05576  0.94292  1.0000
  S   S97       1.0  0.66153  0.29841  0.97085  1.0000
  C   C724      1.0  0.71032  0.06891  0.60683  1.0000
  C   C725      1.0  0.73178  0.47877  0.84251  1.0000
  H   H583      1.0  0.88933  0.14174  0.65234  1.0000
  C   C726      1.0  0.96534  0.18190  0.50467  1.0000
  C   C727      1.0  0.76775  0.47652  0.51340  1.0000
  C   C728      1.0  0.81387  0.20239  0.77627  1.0000
  H   H584      1.0  0.97570  0.33185  0.51107  1.0000
  C   C729      1.0  0.67699  0.44097  0.85639  1.0000
  C   C730      1.0  0.71440  0.02465  0.87913  1.0000
  P   P25       1.0  0.92106  0.20863  0.76138  1.0000
  H   H585      1.0  0.84112  0.29900  0.49988  1.0000
  S   S98       1.0  0.84116  0.10054  0.49770  1.0000
  C   C731      1.0  0.77165  0.20234  0.94326  1.0000
  C   C732      1.0  0.95569  0.21577  0.69659  1.0000
  H   H586      1.0  0.74317  0.11070  0.63462  1.0000
  C   C733      1.0  0.73524  0.04277  0.81958  1.0000
  C   C734      1.0  0.71539  0.11153  0.54991  1.0000
  C   C735      1.0  0.72154  0.11415  0.95251  1.0000
  H   H587      1.0  0.75339  0.22449  0.90092  1.0000
  C   C736      1.0  0.93835  0.19224  0.82848  1.0000
  C   C737      1.0  0.73525  0.23358  0.95203  1.0000
  C   C738      1.0  0.87893  0.20580  0.76701  1.0000
  C   C739      1.0  0.90800  0.16236  0.66468  1.0000
  C   C740      1.0  0.92375  0.14901  0.78458  1.0000
  C   C741      1.0  0.71720  0.05235  0.97602  1.0000
  H   H588      1.0  0.69106  0.44358  0.56940  1.0000
  C   C742      1.0  0.84776  0.23511  0.56789  1.0000
  C   C743      1.0  0.83394  0.25802  0.57807  1.0000
  H   H589      1.0  0.74633  0.07854  0.50037  1.0000
  C   C744      1.0  0.98101  0.25610  0.77897  1.0000
  C   C745      1.0  0.92952  0.30131  0.48874  1.0000
  C   C746      1.0  0.74500  0.45746  0.85912  1.0000
  C   C747      1.0  0.75342  0.22068  0.52068  1.0000
  H   H590      1.0  0.98122  0.22143  0.64619  1.0000
  H   H591      1.0  0.73468  0.41288  0.88897  1.0000
  C   C748      1.0  0.85566  0.25704  0.50761  1.0000
  C   C749      1.0  0.87639  0.21967  0.96397  1.0000
  H   H592      1.0  0.82078  0.29866  0.56117  1.0000
  S   S99       1.0  0.93405  0.14419  0.51727  1.0000
  H   H593      1.0  0.71853  0.12825  0.52785  1.0000
  H   H594      1.0  0.91552  0.13959  0.75830  1.0000
  C   C750      1.0  0.73191  0.12315  0.58184  1.0000
  H   H595      1.0  0.84968  0.21745  0.58713  1.0000
  H   H596      1.0  0.82497  0.25794  0.60506  1.0000
  C   C751      1.0  0.85863  0.23462  0.53279  1.0000
  C   C752      1.0  0.73416  0.11044  0.98580  1.0000
  C   C753      1.0  0.86094  0.21069  0.73789  1.0000
  C   C754      1.0  0.83162  0.28094  0.55339  1.0000
  H   H597      1.0  0.81454  0.21190  0.71981  1.0000
  H   H598      1.0  0.78865  0.20060  0.77984  1.0000
  H   H599      1.0  0.82037  0.19283  0.83169  1.0000
  H   H600      1.0  0.70240  0.45605  0.94473  1.0000
  C   C755      1.0  0.69365  0.05724  0.57493  1.0000
  H   H601      1.0  0.87178  0.21568  0.71153  1.0000
  S   S100      1.0  0.71765  0.25676  0.49556  1.0000
  C   C756      1.0  0.92766  0.19755  0.71619  1.0000
  H   H602      1.0  0.71719  0.02892  0.98500  1.0000
  C   C757      1.0  0.84286  0.28079  0.51845  1.0000
  H   H603      1.0  0.93642  0.12096  0.86586  1.0000
  H   H604      1.0  0.73316  0.05373  0.79421  1.0000
  C   C758      1.0  0.97474  0.21754  0.97390  1.0000
  H   H605      1.0  0.85097  0.25026  0.94425  1.0000
  H   H606      1.0  0.69780  0.09034  0.90483  1.0000
  H   H607      1.0  0.69116  0.04660  0.84093  1.0000
  H   H608      1.0  0.74639  0.00860  0.91209  1.0000
  C   C759      1.0  0.70666  0.08695  0.93096  1.0000
  S   S101      1.0  0.83774  0.13081  0.96931  1.0000
  H   H609      1.0  0.72393  0.13822  0.94308  1.0000
  C   C760      1.0  0.93559  0.13814  0.84544  1.0000
  C   C761      1.0  0.71140  0.03848  0.84608  1.0000
  S   S102      1.0  0.69315  0.39401  0.97739  1.0000
  H   H610      1.0  0.66662  0.38871  0.52101  1.0000
  C   C762      1.0  0.69570  0.07856  0.54630  1.0000
  H   H611      1.0  0.97438  0.23663  0.70818  1.0000
  C   C763      1.0  0.65709  0.45804  0.53811  1.0000
  C   C764      1.0  0.72623  0.43250  0.97988  1.0000
  H   H612      1.0  0.67464  0.39843  0.88689  1.0000
  H   H613      1.0  0.66206  0.21307  0.53498  1.0000
  H   H614      1.0  0.91111  0.27158  0.76184  1.0000
  H   H615      1.0  0.96969  0.08984  0.51139  1.0000
  C   C765      1.0  0.93639  0.27575  0.76860  1.0000
  H   H616      1.0  0.94823  0.32743  0.77472  1.0000
  C   C766      1.0  0.76413  0.17726  0.48860  1.0000
  H   H617      1.0  0.78116  0.03766  0.80580  1.0000
  C   C767      1.0  0.95969  0.20727  0.66131  1.0000
  C   C768      1.0  0.74040  0.41862  0.49882  1.0000
  C   C769      1.0  0.96367  0.31636  0.48899  1.0000
  C   C770      1.0  0.76615  0.02115  0.85935  1.0000
  H   H618      1.0  0.67969  0.03156  0.57267  1.0000
  C   C771      1.0  0.97245  0.18490  0.97327  1.0000
  H   H619      1.0  0.95474  0.22408  0.96374  1.0000
  C   C772      1.0  0.77178  0.19779  0.98020  1.0000
  H   H620      1.0  0.71537  0.48314  0.70575  1.0000
  P   P26       1.0  0.67534  0.06355  0.50437  1.0000
  H   H621      1.0  0.66018  0.99459  0.52053  1.0000
  S   S103      1.0  0.78773  0.03871  0.98594  1.0000
  H   H622      1.0  0.65067  0.43480  0.85598  1.0000
  H   H623      1.0  0.68685  0.48638  0.82882  1.0000
  C   C773      1.0  0.65569  0.11750  0.50043  1.0000
  H   H624      1.0  0.65081  0.11411  0.52878  1.0000
  H   H625      1.0  0.91352  0.55375  0.29398  1.0000
  H   H626      1.0  0.71985  0.93657  0.04557  1.0000
  C   C774      1.0  0.91016  0.83686  0.02373  1.0000
  C   C775      1.0  0.65920  0.81824  0.21245  1.0000
  C   C776      1.0  0.66289  0.78818  0.21794  1.0000
  S   S104      1.0  0.69694  0.81162  0.42551  1.0000
  H   H627      1.0  0.89122  0.56868  0.34890  1.0000
  Fe  Fe51      1.0  0.68364  0.77456  0.05935  1.0000
  H   H628      1.0  0.72181  0.74928  0.38364  1.0000
  Fe  Fe52      1.0  0.68556  0.84221  0.03524  1.0000
  H   H629      1.0  0.72041  0.55543  0.40224  1.0000
  S   S105      1.0  0.70849  0.82514  0.08137  1.0000
  C   C777      1.0  0.72763  0.72082  0.02852  1.0000
  C   C778      1.0  0.95421  0.70100  0.42875  1.0000
  C   C779      1.0  0.91498  0.64766  0.44290  1.0000
  C   C780      1.0  0.73169  0.89954  0.38803  1.0000
  C   C781      1.0  0.96113  0.70613  0.99682  1.0000
  C   C782      1.0  0.76060  0.81546  0.24828  1.0000
  H   H630      1.0  0.81162  0.75051  0.33517  1.0000
  C   C783      1.0  0.80878  0.81377  0.42812  1.0000
  C   C784      1.0  0.77825  0.81161  0.00160  1.0000
  C   C785      1.0  0.82544  0.73291  0.08397  1.0000
  C   C786      1.0  0.79835  0.79261  0.32504  1.0000
  H   H631      1.0  0.75276  0.79998  0.00938  1.0000
  C   C787      1.0  0.76536  0.90617  0.39084  1.0000
  C   C788      1.0  0.97203  0.68664  0.40802  1.0000
  C   C789      1.0  0.95728  0.80848  0.01040  1.0000
  C   C790      1.0  0.72879  0.86230  0.33951  1.0000
  C   C791      1.0  0.71834  0.72091  0.99282  1.0000
  H   H632      1.0  0.89348  0.63293  0.45757  1.0000
  S   S106      1.0  0.71375  0.74106  0.06270  1.0000
  H   H633      1.0  0.76790  0.79608  0.25863  1.0000
  H   H634      1.0  0.97041  0.55393  0.29257  1.0000
  H   H635      1.0  0.83703  0.85591  0.36088  1.0000
  H   H636      1.0  0.78030  0.53024  0.41849  1.0000
  C   C792      1.0  0.82561  0.52498  0.43403  1.0000
  H   H637      1.0  0.74196  0.75083  0.44971  1.0000
  C   C793      1.0  0.73400  0.94683  0.02193  1.0000
  H   H638      1.0  0.87366  0.52592  0.44653  1.0000
  Fe  Fe53      1.0  0.66138  0.81650  0.11170  1.0000
  C   C794      1.0  0.76314  0.84275  0.26925  1.0000
  C   C795      1.0  0.96622  0.83851  0.02772  1.0000
  H   H639      1.0  0.81284  0.80834  0.40078  1.0000
  C   C796      1.0  0.74854  0.70393  0.03775  1.0000
  H   H640      1.0  0.77897  0.64864  0.44504  1.0000
  C   C797      1.0  0.94265  0.85262  0.03452  1.0000
  C   C798      1.0  0.76653  0.74669  0.36161  1.0000
  H   H641      1.0  0.86768  0.61077  0.39277  1.0000
  C   C799      1.0  0.92863  0.56027  0.31770  1.0000
  P   P27       1.0  0.85924  0.78532  0.99275  1.0000
  C   C800      1.0  0.82209  0.57250  0.40426  1.0000
  C   C801      1.0  0.78347  0.82506  0.43650  1.0000
  H   H642      1.0  0.76827  0.82902  0.41555  1.0000
  H   H643      1.0  0.75581  0.70358  0.06526  1.0000
  C   C802      1.0  0.74841  0.81288  0.21346  1.0000
  C   C803      1.0  0.72780  0.55717  0.45915  1.0000
  C   C804      1.0  0.77556  0.80794  0.33160  1.0000
  C   C805      1.0  0.84645  0.86986  0.33691  1.0000
  H   H644      1.0  0.71451  0.53135  0.46208  1.0000
  H   H645      1.0  0.85358  0.67942  0.04198  1.0000
  C   C806      1.0  0.75354  0.86750  0.25470  1.0000
  H   H646      1.0  0.89637  0.88681  0.35563  1.0000
  H   H647      1.0  0.89206  0.84756  0.03043  1.0000
  S   S107      1.0  0.91729  0.68791  0.99874  1.0000
  C   C807      1.0  0.78079  0.89080  0.36804  1.0000
  C   C808      1.0  0.80677  0.54150  0.41884  1.0000
  H   H648      1.0  0.71427  0.84511  0.32004  1.0000
  C   C809      1.0  0.93259  0.63295  0.42198  1.0000
  H   H649      1.0  0.71969  0.91129  0.40586  1.0000
  C   C810      1.0  0.83266  0.75702  0.05764  1.0000
  C   C811      1.0  0.84579  0.75247  0.02465  1.0000
  C   C812      1.0  0.88007  0.88741  0.33407  1.0000
  C   C813      1.0  0.79389  0.76216  0.34015  1.0000
  C   C814      1.0  0.65652  0.83635  0.24255  1.0000
  H   H650      1.0  0.80682  0.89635  0.37088  1.0000
  C   C815      1.0  0.91603  0.56869  0.34901  1.0000
  C   C816      1.0  0.87166  0.90673  0.27572  1.0000
  P   P28       1.0  0.78173  0.84772  0.31299  1.0000
  C   C817      1.0  0.76016  0.68742  0.01171  1.0000
  H   H651      1.0  0.73302  0.88338  0.20898  1.0000
  C   C818      1.0  0.95433  0.63713  0.03882  1.0000
  H   H652      1.0  0.75557  0.88896  0.27011  1.0000
  H   H653      1.0  0.82728  0.68611  0.09858  1.0000
  C   C819      1.0  0.74475  0.73616  0.47176  1.0000
  C   C820      1.0  0.74986  0.98100  0.01874  1.0000
  H   H654      1.0  0.74597  0.79160  0.19748  1.0000
  C   C821      1.0  0.74578  0.91953  0.48287  1.0000
  C   C822      1.0  0.83802  0.88923  0.27849  1.0000
  C   C823      1.0  0.93537  0.57696  0.37992  1.0000
  H   H655      1.0  0.72881  0.83526  0.17250  1.0000
  P   P29       1.0  0.91971  0.58902  0.42006  1.0000
  C   C824      1.0  0.74125  0.86474  0.21993  1.0000
  H   H656      1.0  0.82809  0.77922  0.06318  1.0000
  C   C825      1.0  0.83253  0.70470  0.07813  1.0000
  H   H657      1.0  0.77622  0.67457  0.01926  1.0000
  C   C826      1.0  0.76094  0.60962  0.48312  1.0000
  C   C827      1.0  0.85314  0.72420  0.01915  1.0000
  C   C828      1.0  0.96129  0.65275  0.40457  1.0000
  H   H658      1.0  0.91873  0.91943  0.30124  1.0000
  H   H659      1.0  0.94951  0.87561  0.04856  1.0000
  C   C829      1.0  0.96770  0.57738  0.37877  1.0000
  Fe  Fe54      1.0  0.66533  0.83765  0.44916  1.0000
  H   H660      1.0  0.93031  0.61921  0.98904  1.0000
  C   C830      1.0  0.66431  0.77676  0.25300  1.0000
  C   C831      1.0  0.76455  0.62307  0.44886  1.0000
  H   H661      1.0  0.77943  0.92323  0.41082  1.0000
  C   C832      1.0  0.73152  0.57067  0.42487  1.0000
  C   C833      1.0  0.74964  0.60368  0.41977  1.0000
  C   C834      1.0  0.77200  0.72596  0.47319  1.0000
  C   C835      1.0  0.65788  0.82490  0.27755  1.0000
  H   H662      1.0  0.75235  0.61421  0.39327  1.0000
  H   H663      1.0  0.93352  0.64214  0.04959  1.0000
  C   C836      1.0  0.76257  0.86867  0.34213  1.0000
  H   H664      1.0  0.72938  0.80251  0.35719  1.0000
  H   H665      1.0  0.71352  0.48737  0.06599  1.0000
  H   H666      1.0  0.76309  0.72319  0.37351  1.0000
  C   C837      1.0  0.74337  0.76141  0.36749  1.0000
  C   C838      1.0  0.74778  0.79180  0.35244  1.0000
  H   H667      1.0  0.82229  0.89038  0.25663  1.0000
  C   C839      1.0  0.89268  0.90582  0.30346  1.0000
  H   H668      1.0  0.81451  0.73623  0.10895  1.0000
  C   C840      1.0  0.98025  0.56901  0.34741  1.0000
  C   C841      1.0  0.73622  0.92611  0.99444  1.0000
  H   H669      1.0  0.68723  0.87217  0.36044  1.0000
  C   C842      1.0  0.77742  0.83089  0.47204  1.0000
  C   C843      1.0  0.73887  0.83755  0.19927  1.0000
  C   C844      1.0  0.84684  0.70063  0.04598  1.0000
  C   C845      1.0  0.85627  0.58693  0.40469  1.0000
  C   C846      1.0  0.87544  0.57059  0.42017  1.0000
  H   H670      1.0  0.96433  0.72726  0.04922  1.0000
  H   H671      1.0  0.65651  0.83952  0.30027  1.0000
  Fe  Fe55      1.0  0.66782  0.76909  0.45996  1.0000
  H   H672      1.0  0.86454  0.72063  0.99455  1.0000
  H   H673      1.0  0.79007  0.73296  0.45204  1.0000
  C   C847      1.0  0.83245  0.80874  0.99279  1.0000
  C   C848      1.0  0.82515  0.87058  0.30911  1.0000
  C   C849      1.0  0.71341  0.87760  0.36237  1.0000
  H   H674      1.0  0.81949  0.80408  0.30817  1.0000
  C   C850      1.0  0.85978  0.53933  0.43456  1.0000
  H   H675      1.0  0.73943  0.48789  0.12501  1.0000
  S   S108      1.0  0.66520  0.77992  0.32668  1.0000
  H   H676      1.0  0.80743  0.58532  0.39257  1.0000
  H   H677      1.0  0.91245  0.69260  0.46322  1.0000
  C   C851      1.0  0.92491  0.79278  0.99942  1.0000
  C   C852      1.0  0.66183  0.79501  0.28308  1.0000
  S   S109      1.0  0.66283  0.79156  0.01144  1.0000
  C   C853      1.0  0.92567  0.68151  0.44615  1.0000
  H   H678      1.0  0.93353  0.52922  0.43443  1.0000
  C   C854      1.0  0.96069  0.56039  0.31690  1.0000
  H   H679      1.0  0.96304  0.72721  0.43215  1.0000
  H   H680      1.0  0.97533  0.79707  0.00578  1.0000
  H   H681      1.0  0.97576  0.64227  0.38875  1.0000
  H   H682      1.0  0.88143  0.92104  0.25198  1.0000
  S   S110      1.0  0.67823  0.88990  0.47076  1.0000
  C   C855      1.0  0.95251  0.62419  0.00454  1.0000
  S   S111      1.0  0.71561  0.88268  0.99592  1.0000
  H   H683      1.0  0.75746  0.83929  0.47798  1.0000
  H   H684      1.0  0.66506  0.77395  0.19517  1.0000
  S   S112      1.0  0.65832  0.83474  0.16895  1.0000
  H   H685      1.0  0.78935  0.76837  0.00939  1.0000
  Fe  Fe56      1.0  0.65610  0.79109  0.38505  1.0000
  C   C856      1.0  0.90124  0.80720  0.00526  1.0000
  H   H686      1.0  0.66763  0.75372  0.25681  1.0000
  C   C857      1.0  0.82880  0.80933  0.45511  1.0000
  H   H687      1.0  0.84847  0.80058  0.44869  1.0000
  H   H688      1.0  0.81367  0.50104  0.44571  1.0000
  C   C858      1.0  0.71468  0.92192  0.48498  1.0000
  H   H689      1.0  0.65387  0.85971  0.23872  1.0000
  C   C859      1.0  0.79924  0.79383  0.00206  1.0000
  H   H690      1.0  0.74828  0.89757  0.47249  1.0000
  C   C860      1.0  0.97957  0.61867  0.98997  1.0000
  H   H691      1.0  0.98327  0.58435  0.40205  1.0000
  H   H692      1.0  0.75615  0.50970  0.47876  1.0000
  S   S113      1.0  0.82721  0.62923  0.99049  1.0000
  C   C861      1.0  0.97809  0.72444  0.02621  1.0000
  H   H693      1.0  0.65443  0.69007  0.03453  1.0000
  H   H694      1.0  0.65525  0.67520  0.09801  1.0000
  H   H695      1.0  0.65367  0.90170  0.99134  1.0000
  H   H696      1.0  0.77357  0.85791  0.99051  1.0000
  C   C862      1.0  0.78997  0.84419  0.99091  1.0000
  C   C863      1.0  0.65128  0.94993  0.99059  1.0000
  C   C864      1.0  0.93549  0.57466  0.45865  1.0000
  C   C865      1.0  0.93978  0.54443  0.45801  1.0000
  H   H697      1.0  0.91833  0.76914  0.98670  1.0000
  C   C866      1.0  0.98328  0.64498  0.05846  1.0000
  Fe  Fe57      1.0  0.82741  0.66440  0.54262  1.0000
  S   S114      1.0  0.85255  0.63255  0.51863  1.0000
  Fe  Fe58      1.0  0.84165  0.64787  0.61858  1.0000
  S   S115      1.0  0.86889  0.61652  0.59930  1.0000
  S   S116      1.0  0.82689  0.65542  0.67598  1.0000
  Fe  Fe59      1.0  0.89239  0.65550  0.55843  1.0000
  C   C867      1.0  0.69426  0.78648  0.57370  1.0000
  Fe  Fe60      1.0  0.82580  0.59069  0.55900  1.0000
  S   S117      1.0  0.79403  0.50666  0.54255  1.0000
  S   S118      1.0  0.86841  0.68916  0.58090  1.0000
  S   S119      1.0  0.79949  0.62499  0.58099  1.0000
  Fe  Fe61      1.0  0.82297  0.58424  0.95872  1.0000
  S   S120      1.0  0.79760  0.59842  0.91298  1.0000
  C   C868      1.0  0.67393  0.92733  0.94288  1.0000
  Fe  Fe62      1.0  0.87608  0.65415  0.96290  1.0000
  S   S121      1.0  0.85362  0.67223  0.91702  1.0000
  C   C869      1.0  0.80544  0.81064  0.57467  1.0000
  Fe  Fe63      1.0  0.80487  0.64497  0.94323  1.0000
  S   S122      1.0  0.76326  0.66557  0.94228  1.0000
  Fe  Fe64      1.0  0.84765  0.62465  0.88979  1.0000
  S   S123      1.0  0.86174  0.61654  0.83215  1.0000
  H   H698      1.0  0.82625  0.84886  0.61360  1.0000
  S   S124      1.0  0.87337  0.60816  0.93434  1.0000
  H   H699      1.0  0.70762  0.70195  0.54899  1.0000
  H   H700      1.0  0.78755  0.76729  0.54199  1.0000
  H   H701      1.0  0.73828  0.77574  0.57330  1.0000
  C   C870      1.0  0.71128  0.49426  0.55496  1.0000
  H   H702      1.0  0.69776  0.64682  0.57193  1.0000
  C   C871      1.0  0.80061  0.77813  0.56602  1.0000
  H   H703      1.0  0.72064  0.51747  0.89334  1.0000
  H   H704      1.0  0.90498  0.80189  0.93134  1.0000
  C   C872      1.0  0.72769  0.79396  0.56732  1.0000
  C   C873      1.0  0.65883  0.92408  0.97628  1.0000
  C   C874      1.0  0.79694  0.82576  0.49945  1.0000
  C   C875      1.0  0.82222  0.82395  0.60617  1.0000
  C   C876      1.0  0.85089  0.74641  0.87758  1.0000
  H   H705      1.0  0.79600  0.57416  0.71178  1.0000
  H   H706      1.0  0.90011  0.78020  0.87017  1.0000
  C   C877      1.0  0.83702  0.64431  0.71913  1.0000
  C   C878      1.0  0.85871  0.62758  0.72391  1.0000
  C   C879      1.0  0.86588  0.61936  0.75862  1.0000
  C   C880      1.0  0.85166  0.62780  0.78911  1.0000
  C   C881      1.0  0.82972  0.64423  0.78433  1.0000
  C   C882      1.0  0.82247  0.65237  0.74960  1.0000
  H   H707      1.0  0.87011  0.62113  0.70090  1.0000
  H   H708      1.0  0.88277  0.60654  0.76194  1.0000
  H   H709      1.0  0.81844  0.65078  0.80739  1.0000
  H   H710      1.0  0.80559  0.66521  0.74634  1.0000
  H   H711      1.0  0.78728  0.52801  0.89851  1.0000
  C   C883      1.0  0.71217  0.95089  0.49851  1.0000
  C   C884      1.0  0.95161  0.53332  0.48816  1.0000
  C   C885      1.0  0.82332  0.81586  0.49057  1.0000
  C   C886      1.0  0.75473  0.94029  0.96386  1.0000
  H   H712      1.0  0.70179  0.55787  0.92228  1.0000
  S   S125      1.0  0.80977  0.53380  0.98595  1.0000
  C   C887      1.0  0.83408  0.80502  0.62847  1.0000
  C   C888      1.0  0.75276  0.69838  0.52912  1.0000
  C   C889      1.0  0.72550  0.70854  0.52766  1.0000
  H   H713      1.0  0.75591  0.68423  0.55151  1.0000
  H   H714      1.0  0.88696  0.53840  0.87749  1.0000
  C   C890      1.0  0.80482  0.56450  0.51498  1.0000
  H   H715      1.0  0.74682  0.62696  0.83971  1.0000
  H   H716      1.0  0.71480  0.61272  0.89579  1.0000
  C   C891      1.0  0.83807  0.56224  0.52306  1.0000
  P   P30       1.0  0.79016  0.83469  0.54523  1.0000
  C   C892      1.0  0.81021  0.87782  0.55310  1.0000
  C   C893      1.0  0.79979  0.89287  0.58133  1.0000
  C   C894      1.0  0.81303  0.92667  0.58555  1.0000
  H   H717      1.0  0.95443  0.50977  0.48770  1.0000
  H   H718      1.0  0.71827  0.61780  0.52772  1.0000
  C   C895      1.0  0.75092  0.57972  0.83373  1.0000
  H   H719      1.0  0.86953  0.55283  0.56622  1.0000
  C   C896      1.0  0.67936  0.80894  0.56531  1.0000
  C   C897      1.0  0.82938  0.77279  0.61944  1.0000
  H   H720      1.0  0.75674  0.92469  0.94234  1.0000
  H   H721      1.0  0.78080  0.87860  0.59952  1.0000
  C   C898      1.0  0.88263  0.78262  0.92359  1.0000
  C   C899      1.0  0.82763  0.74570  0.93645  1.0000
  C   C900      1.0  0.73141  0.84665  0.54416  1.0000
  C   C901      1.0  0.68197  0.95657  0.92393  1.0000
  C   C902      1.0  0.74666  0.82426  0.55277  1.0000
  H   H722      1.0  0.74531  0.87002  0.53248  1.0000
  C   C903      1.0  0.77136  0.97478  0.50751  1.0000
  C   C904      1.0  0.74014  0.60257  0.85052  1.0000
  C   C905      1.0  0.74340  0.54834  0.84823  1.0000
  C   C906      1.0  0.77073  0.97442  0.96075  1.0000
  H   H723      1.0  0.95551  0.73276  0.53039  1.0000
  C   C907      1.0  0.70357  0.62583  0.58005  1.0000
  C   C908      1.0  0.69909  0.61545  0.61552  1.0000
  C   C909      1.0  0.70561  0.58780  0.62576  1.0000
  C   C910      1.0  0.71713  0.57087  0.60065  1.0000
  C   C911      1.0  0.72347  0.58210  0.56527  1.0000
  C   C912      1.0  0.71560  0.60927  0.55497  1.0000
  P   P31       1.0  0.73859  0.55966  0.53337  1.0000
  C   C913      1.0  0.77961  0.56012  0.54447  1.0000
  C   C914      1.0  0.70693  0.51967  0.53541  1.0000
  H   H724      1.0  0.80921  0.73444  0.58098  1.0000
  C   C915      1.0  0.85670  0.76971  0.94793  1.0000
  C   C916      1.0  0.82425  0.52586  0.81879  1.0000
  H   H725      1.0  0.74662  0.51056  0.94773  1.0000
  C   C917      1.0  0.84632  0.55557  0.56065  1.0000
  C   C918      1.0  0.82140  0.55139  0.59035  1.0000
  C   C919      1.0  0.78842  0.55382  0.58232  1.0000
  H   H726      1.0  0.80226  0.71529  0.89291  1.0000
  H   H727      1.0  0.84261  0.53528  0.92015  1.0000
  H   H728      1.0  0.83866  0.75813  0.63664  1.0000
  C   C920      1.0  0.77957  0.54957  0.76182  1.0000
  H   H729      1.0  0.81966  0.52232  0.79053  1.0000
  C   C921      1.0  0.95502  0.58235  0.51991  1.0000
  C   C922      1.0  0.72562  0.54076  0.88045  1.0000
  H   H730      1.0  0.69025  0.62864  0.63500  1.0000
  H   H731      1.0  0.70162  0.57941  0.65317  1.0000
  H   H732      1.0  0.72050  0.54870  0.60885  1.0000
  S   S126      1.0  0.81084  0.69464  0.50210  1.0000
  C   C923      1.0  0.82470  0.73419  0.90138  1.0000
  H   H733      1.0  0.96795  0.54351  0.54263  1.0000
  H   H734      1.0  0.84340  0.88610  0.50797  1.0000
  H   H735      1.0  0.87517  0.53188  0.81263  1.0000
  H   H736      1.0  0.82691  0.54566  0.61713  1.0000
  H   H737      1.0  0.77107  0.54980  0.60377  1.0000
  H   H738      1.0  0.84879  0.73687  0.85067  1.0000
  C   C924      1.0  0.74020  0.97703  0.50986  1.0000
  H   H739      1.0  0.84702  0.81534  0.65277  1.0000
  C   C925      1.0  0.77862  0.55296  0.72478  1.0000
  H   H740      1.0  0.69365  0.95841  0.89816  1.0000
  C   C926      1.0  0.97945  0.70280  0.96733  1.0000
  S   S127      1.0  0.94567  0.66353  0.54214  1.0000
  C   C927      1.0  0.81269  0.75938  0.58817  1.0000
  H   H741      1.0  0.68631  0.85622  0.54295  1.0000
  C   C928      1.0  0.69792  0.83899  0.55037  1.0000
  H   H742      1.0  0.96698  0.68886  0.94450  1.0000
  H   H743      1.0  0.72188  0.70388  0.93941  1.0000
  C   C929      1.0  0.72205  0.59454  0.88213  1.0000
  C   C930      1.0  0.67633  0.51450  0.51952  1.0000
  C   C931      1.0  0.83703  0.94563  0.56195  1.0000
  C   C932      1.0  0.71479  0.56364  0.89708  1.0000
  H   H744      1.0  0.77312  0.62494  0.50525  1.0000
  S   S128      1.0  0.68557  0.73813  0.49823  1.0000
  H   H745      1.0  0.84652  0.97195  0.56460  1.0000
  C   C933      1.0  0.87983  0.77069  0.88866  1.0000
  H   H746      1.0  0.68033  0.90738  0.93231  1.0000
  H   H747      1.0  0.68835  0.95319  0.50021  1.0000
  C   C934      1.0  0.75698  0.52247  0.77921  1.0000
  C   C935      1.0  0.94318  0.59343  0.48985  1.0000
  C   C936      1.0  0.75542  0.52911  0.70459  1.0000
  H   H748      1.0  0.80421  0.93836  0.60663  1.0000
  H   H749      1.0  0.85553  0.56455  0.50186  1.0000
  H   H750      1.0  0.83145  0.88395  0.97119  1.0000
  C   C937      1.0  0.97577  0.69583  0.51852  1.0000
  C   C938      1.0  0.72948  0.70389  0.96688  1.0000
  H   H751      1.0  0.79768  0.94356  0.49207  1.0000
  C   C939      1.0  0.77609  0.70688  0.50176  1.0000
  C   C940      1.0  0.73391  0.49844  0.75860  1.0000
  H   H752      1.0  0.76574  0.58721  0.81006  1.0000
  C   C941      1.0  0.80620  0.52896  0.87938  1.0000
  C   C942      1.0  0.97528  0.72751  0.51748  1.0000
  H   H753      1.0  0.67977  0.76280  0.58418  1.0000
  C   C943      1.0  0.83486  0.89699  0.52993  1.0000
  C   C944      1.0  0.84818  0.93078  0.53441  1.0000
  C   C945      1.0  0.79935  0.52583  0.84270  1.0000
  C   C946      1.0  0.73316  0.50179  0.72147  1.0000
  C   C947      1.0  0.83755  0.53292  0.89181  1.0000
  H   H754      1.0  0.97815  0.60908  0.96316  1.0000
  C   C948      1.0  0.72114  0.72722  0.49888  1.0000
  P   P32       1.0  0.75811  0.51874  0.82741  1.0000
  H   H755      1.0  0.86658  0.94567  0.51600  1.0000
  H   H756      1.0  0.79831  0.56801  0.77683  1.0000
  H   H757      1.0  0.96052  0.59712  0.54391  1.0000
  C   C949      1.0  0.95921  0.55227  0.51912  1.0000
  H   H758      1.0  0.73364  0.49796  0.56942  1.0000
  H   H759      1.0  0.80721  0.73586  0.95464  1.0000
  H   H760      1.0  0.67163  0.53424  0.50607  1.0000
  C   C950      1.0  0.86247  0.53430  0.86778  1.0000
  H   H761      1.0  0.78512  0.98461  0.93724  1.0000
  H   H762      1.0  0.83955  0.81283  0.51097  1.0000
  C   C951      1.0  0.75042  0.68700  0.97611  1.0000
  C   C952      1.0  0.65914  0.97918  0.97167  1.0000
  H   H763      1.0  0.93989  0.61661  0.49123  1.0000
  H   H764      1.0  0.70237  0.73385  0.98521  1.0000
  C   C953      1.0  0.85579  0.53062  0.83129  1.0000
  C   C954      1.0  0.67526  0.98300  0.93857  1.0000
  H   H765      1.0  0.86874  0.85258  0.97150  1.0000
  C   C955      1.0  0.74910  0.49026  0.96213  1.0000
  H   H766      1.0  0.79909  0.56805  0.48766  1.0000
  C   C956      1.0  0.77382  0.94573  0.49404  1.0000
  C   C957      1.0  0.77712  0.49509  0.98279  1.0000
  H   H767      1.0  0.65330  0.80264  0.56954  1.0000
  H   H768      1.0  0.75489  0.53175  0.67587  1.0000
  C   C958      1.0  0.74171  0.57678  0.48882  1.0000
  C   C959      1.0  0.84376  0.84113  0.98076  1.0000
  C   C960      1.0  0.82265  0.85887  0.98019  1.0000
