data_image0
_chemical_formula_structural       HCHCHC8HC3H4CPSCHC2HC2HC5H3CH3CHC2HCH3CH2CH5C3HPC7H2CH2C7H5C2H2CH3CHCH4SCH2CS2H2CHCHC3HCHC2HCHPH2CH2CSCH2C4SCSHCH3C2H3C7HC9PC18H12C2H6CSC4FeCSH3CHC3H3CFeHCH2SC2FeHC3H2C2H5C2H5FeC2H2C2H2CH2C2HCHC5HC2HCH4C5H3CSPHCHCFeS2HCFeSCFeS2Fe3SHSFeCSHSCHC3H2FeCH2CFeC6H2FeC4HCH2C6H5C5PC4H2C7HCHC2H4CHFeS2CH5CHCH3C3H3FeC2HCHC2FeC2HCSCHC2HCSC2HSCH3CHCH2CSC5H3SHC5HC2H2PCHC3H2CH3C2HS2CH2C2SC2H4CH2SHSC3FeSH3FeSCFeSC2SCFeS2CSHFeSFeSHC5HS2C2HC2HSH2C7H4CH3C3HCH2CHFeCHSHC6H7C3H3SCH2CHSHCHC7PC14HC2H16C5HCH3CHC2HFeH2SC2S2PFeC2HC4H4CSPH4FeCPC9HC2HCSCHC2HCHCHPCSHC2HCH5C2FeC4H2SC2H4C3H2C3HC4H2CHC5H3CS2CSH2SHCHSCHCSCHSH2FeHC2HCHC2SHC2HC2H2SC3HC3HCH3C5HC2PHCPC3HCH2CH3SHCHCHCHCFeC2H4C3H2CHC2HPCFeCHC4FeCSFeH2SC4H2C3H3CHC5HC2HCSC4FeS2FePFeSCSFeS2FeS2FeSFeS3FeS2FeSCFeSFeS4CSC3FeS2C7H6C6H4C4H2C6H4C6H2CSC6H4C6H5CHC2HPC5HCHCHC2HC2H3C2PC8HCH5C3SH5C6PC18H7CH16C3HCH5C4HC2HCHC4HCH4FePHCH2C4H3CHC2H2C2HCHCHCHC2HC4HC3H3C3HPC2HCH2CHC5H3CFeC7HCH4C4H2CHCHS2CHCS2FeSCFeCFeS2CSCFeS2FeS2FeSFeS3FeSC6H4C6H8C6H5C6H5CPCHC4HSHC6H6C2H2CH3C3H2CH4CH2C2HFeC6HC4H4PC2SC6PC9HC8H10CH13CH5CHC2H5CH2CH2C9H2C5HCFeCPCSC4HCH2C2H2CHPC2PH3CHC2H3C3HCHC3H2C2HC8H3SCHSC2H2CHC3HC3HCH3SHC5H4CH2C2H2CH2C5HFeC5FeCH5CS2H4CFeHSFeH2C2H3CHC2HC3H2CH2CHCHSC2H2CPHC7H2CH5CH2C2H2CHCH2CH2C3HC3H2C2HCH2CHCH2C2PHC5HCHC2HSCSC3SC2H4SCH3C2PC4FeC2H4C3H3CHSCH2C2H4C6HSH2CHC2H3C2HCH5CH7C4HC2H2CHCH2C8PC14H2CH11C5H2CH2C3H3CHC3HCPC2H2C4H2C2HSHC2HCHC4H2C2H2C3HC2H2CHCH3CHCH4C4SH3C3HCHFeSHCHFeH
_chemical_formula_sum              "H768 C960 P32 S128 Fe64"
_cell_length_a       40.2349
_cell_length_b       39.9954
_cell_length_c       62.9217
_cell_angle_alpha    87.4746
_cell_angle_beta     87.5481
_cell_angle_gamma    104.423

_space_group_name_H-M_alt    "P 1"
_space_group_IT_number       1

loop_
  _space_group_symop_operation_xyz
  'x, y, z'

loop_
  _atom_site_type_symbol
  _atom_site_label
  _atom_site_symmetry_multiplicity
  _atom_site_fract_x
  _atom_site_fract_y
  _atom_site_fract_z
  _atom_site_occupancy
  H   H1        1.0  0.05612  0.29737  0.10708  1.0000
  C   C1        1.0  0.08792  0.45710  0.98573  1.0000
  H   H2        1.0  0.25358  0.46052  0.27525  1.0000
  C   C2        1.0  0.01981  0.34662  0.01502  1.0000
  H   H3        1.0  0.12820  0.32652  0.03261  1.0000
  C   C3        1.0  0.39598  0.40945  0.03007  1.0000
  C   C4        1.0  0.18230  0.37666  0.99418  1.0000
  C   C5        1.0  0.13911  0.35011  0.07573  1.0000
  C   C6        1.0  0.45360  0.40064  0.03083  1.0000
  C   C7        1.0  0.42434  0.40612  0.04147  1.0000
  C   C8        1.0  0.33748  0.47688  0.05310  1.0000
  C   C9        1.0  0.15087  0.41074  0.01384  1.0000
  C   C10       1.0  0.03581  0.38755  0.04983  1.0000
  H   H4        1.0  0.16255  0.36472  0.06715  1.0000
  C   C11       1.0  0.32174  0.45140  0.97721  1.0000
  C   C12       1.0  0.14121  0.32670  0.09249  1.0000
  C   C13       1.0  0.11406  0.48910  0.05335  1.0000
  H   H5        1.0  0.15075  0.41879  0.08116  1.0000
  H   H6        1.0  0.16890  0.47895  0.09130  1.0000
  H   H7        1.0  0.38533  0.46933  0.00831  1.0000
  H   H8        1.0  0.42754  0.39925  0.98014  1.0000
  C   C14       1.0  0.17509  0.40838  0.99776  1.0000
  P   P1        1.0  0.35822  0.41725  0.04359  1.0000
  S   S1        1.0  0.26352  0.45827  0.99868  1.0000
  C   C15       1.0  0.14139  0.34961  0.02310  1.0000
  H   H9        1.0  0.08643  0.44907  0.03455  1.0000
  C   C16       1.0  0.10704  0.35481  0.07019  1.0000
  C   C17       1.0  0.07713  0.33560  0.08162  1.0000
  H   H10       1.0  0.32565  0.46315  0.06782  1.0000
  C   C18       1.0  0.32039  0.38921  0.03360  1.0000
  C   C19       1.0  0.32112  0.35611  0.02731  1.0000
  H   H11       1.0  0.23744  0.38704  0.02344  1.0000
  C   C20       1.0  0.37078  0.48010  0.01973  1.0000
  C   C21       1.0  0.29732  0.47076  0.97919  1.0000
  C   C22       1.0  0.28978  0.39985  0.03242  1.0000
  C   C23       1.0  0.16517  0.34717  0.00671  1.0000
  C   C24       1.0  0.45465  0.39805  0.00875  1.0000
  H   H12       1.0  0.05206  0.33854  0.07768  1.0000
  H   H13       1.0  0.34433  0.34718  0.02835  1.0000
  H   H14       1.0  0.39793  0.44403  0.11537  1.0000
  C   C25       1.0  0.05343  0.35520  0.02165  1.0000
  H   H15       1.0  0.04151  0.40311  0.06350  1.0000
  H   H16       1.0  0.23902  0.32864  0.01206  1.0000
  H   H17       1.0  0.37558  0.40888  0.99871  1.0000
  C   C26       1.0  0.15019  0.47208  0.07932  1.0000
  H   H18       1.0  0.07270  0.34583  0.01293  1.0000
  C   C27       1.0  0.24225  0.45349  0.29126  1.0000
  C   C28       1.0  0.13984  0.43787  0.07342  1.0000
  H   H19       1.0  0.20287  0.48449  0.13867  1.0000
  C   C29       1.0  0.03508  0.41463  0.97848  1.0000
  H   H20       1.0  0.32276  0.35787  0.07266  1.0000
  H   H21       1.0  0.45934  0.04714  0.06208  1.0000
  H   H22       1.0  0.36244  0.38934  0.13282  1.0000
  C   C30       1.0  0.29183  0.33431  0.01961  1.0000
  H   H23       1.0  0.28835  0.42523  0.03702  1.0000
  H   H24       1.0  0.20340  0.48158  0.28760  1.0000
  C   C31       1.0  0.13452  0.38164  0.02701  1.0000
  H   H25       1.0  0.39518  0.45689  0.07702  1.0000
  H   H26       1.0  0.11296  0.28958  0.11679  1.0000
  H   H27       1.0  0.18835  0.43134  0.98814  1.0000
  H   H28       1.0  0.42426  0.40814  0.05855  1.0000
  H   H29       1.0  0.16606  0.32336  0.09674  1.0000
  C   C32       1.0  0.35858  0.40843  0.07194  1.0000
  C   C33       1.0  0.10700  0.43714  0.97547  1.0000
  C   C34       1.0  0.38120  0.42544  0.10607  1.0000
  H   H30       1.0  0.14471  0.43524  0.01580  1.0000
  P   P2        1.0  0.10467  0.38526  0.04856  1.0000
  C   C35       1.0  0.99431  0.35879  0.02553  1.0000
  C   C36       1.0  0.11648  0.42897  0.05736  1.0000
  C   C37       1.0  0.06175  0.37588  0.03906  1.0000
  C   C38       1.0  0.07931  0.31214  0.09834  1.0000
  C   C39       1.0  0.10364  0.45492  0.04742  1.0000
  C   C40       1.0  0.11132  0.30772  0.10379  1.0000
  C   C41       1.0  0.39710  0.40635  0.00789  1.0000
  H   H31       1.0  0.32035  0.42946  0.98819  1.0000
  H   H32       1.0  0.17032  0.32243  0.00374  1.0000
  C   C42       1.0  0.26159  0.34531  0.01825  1.0000
  H   H33       1.0  0.29269  0.30897  0.01458  1.0000
  H   H34       1.0  0.32497  0.34620  0.11129  1.0000
  C   C43       1.0  0.36138  0.39446  0.11585  1.0000
  C   C44       1.0  0.37969  0.43257  0.08426  1.0000
  C   C45       1.0  0.35600  0.46148  0.03865  1.0000
  C   C46       1.0  0.26058  0.37802  0.02472  1.0000
  C   C47       1.0  0.33906  0.37705  0.08178  1.0000
  C   C48       1.0  0.21408  0.46540  0.29823  1.0000
  C   C49       1.0  0.34030  0.37024  0.10370  1.0000
  H   H35       1.0  0.03696  0.46108  0.99506  1.0000
  H   H36       1.0  0.39352  0.44842  0.29653  1.0000
  H   H37       1.0  0.00738  0.40615  0.97979  1.0000
  H   H38       1.0  0.47748  0.39427  0.00041  1.0000
  H   H39       1.0  0.30977  0.49156  0.23881  1.0000
  C   C50       1.0  0.05192  0.44576  0.98716  1.0000
  C   C51       1.0  0.47673  0.01409  0.08472  1.0000
  H   H40       1.0  0.25411  0.47087  0.09036  1.0000
  H   H41       1.0  0.20122  0.37509  0.98172  1.0000
  C   C52       1.0  0.42637  0.40074  0.99732  1.0000
  H   H42       1.0  0.45882  0.01694  0.09746  1.0000
  H   H43       1.0  0.47561  0.39876  0.03970  1.0000
  H   H44       1.0  0.46228  0.46588  0.05974  1.0000
  C   C53       1.0  0.46245  0.49279  0.05736  1.0000
  H   H45       1.0  0.13466  0.44600  0.97403  1.0000
  C   C54       1.0  0.47696  0.03103  0.06478  1.0000
  H   H46       1.0  0.01369  0.33094  0.00143  1.0000
  H   H47       1.0  0.33698  0.46962  0.20807  1.0000
  H   H48       1.0  0.33851  0.32501  0.29480  1.0000
  H   H49       1.0  0.27867  0.42489  0.29938  1.0000
  S   S2        1.0  0.34025  0.48338  0.30006  1.0000
  C   C55       1.0  0.00226  0.37922  0.04295  1.0000
  H   H50       1.0  0.45846  0.49127  0.02321  1.0000
  H   H51       1.0  0.32757  0.48841  0.17124  1.0000
  C   C56       1.0  0.32051  0.48692  0.20540  1.0000
  S   S3        1.0  0.44040  0.48178  0.97152  1.0000
  S   S4        1.0  0.42072  0.45995  0.42439  1.0000
  H   H52       1.0  0.27763  0.29718  0.30606  1.0000
  H   H53       1.0  0.45635  0.32709  0.45809  1.0000
  C   C57       1.0  0.33749  0.43676  0.38385  1.0000
  H   H54       1.0  0.14285  0.32291  0.35478  1.0000
  C   C58       1.0  0.25084  0.43617  0.49981  1.0000
  H   H55       1.0  0.26067  0.42836  0.48505  1.0000
  C   C59       1.0  0.02195  0.34221  0.48404  1.0000
  C   C60       1.0  0.06024  0.39764  0.47146  1.0000
  C   C61       1.0  0.04300  0.36338  0.46785  1.0000
  H   H56       1.0  0.04562  0.35336  0.45238  1.0000
  C   C62       1.0  0.01748  0.35587  0.50374  1.0000
  H   H57       1.0  0.21152  0.31424  0.40404  1.0000
  C   C63       1.0  0.48455  0.38441  0.41042  1.0000
  C   C64       1.0  0.21463  0.43737  0.33307  1.0000
  H   H58       1.0  0.25750  0.35938  0.38493  1.0000
  C   C65       1.0  0.28938  0.32308  0.31063  1.0000
  H   H59       1.0  0.00123  0.33980  0.51634  1.0000
  P   P3        1.0  0.26068  0.39823  0.34398  1.0000
  H   H60       1.0  0.24361  0.32850  0.32730  1.0000
  H   H61       1.0  0.29136  0.43075  0.43768  1.0000
  C   C66       1.0  0.00725  0.46089  0.45225  1.0000
  H   H62       1.0  0.43529  0.33076  0.49493  1.0000
  H   H63       1.0  0.48142  0.40962  0.41432  1.0000
  C   C67       1.0  0.22629  0.36737  0.35891  1.0000
  S   S5        1.0  0.13681  0.46011  0.44388  1.0000
  C   C68       1.0  0.17414  0.31587  0.38069  1.0000
  H   H64       1.0  0.32128  0.39102  0.36667  1.0000
  H   H65       1.0  0.46728  0.38791  0.37868  1.0000
  C   C69       1.0  0.33872  0.37226  0.30996  1.0000
  C   C70       1.0  0.23256  0.35176  0.37824  1.0000
  C   C71       1.0  0.03511  0.39003  0.50743  1.0000
  C   C72       1.0  0.47049  0.31992  0.47104  1.0000
  S   S6        1.0  0.22811  0.44944  0.44636  1.0000
  C   C73       1.0  0.16790  0.33093  0.36133  1.0000
  S   S7        1.0  0.44992  0.45915  0.36371  1.0000
  H   H66       1.0  0.01356  0.44119  0.46255  1.0000
  C   C74       1.0  0.27081  0.47301  0.44719  1.0000
  H   H67       1.0  0.21055  0.42089  0.39411  1.0000
  H   H68       1.0  0.07604  0.41359  0.45877  1.0000
  H   H69       1.0  0.15379  0.29628  0.38906  1.0000
  C   C75       1.0  0.47564  0.31218  0.50908  1.0000
  C   C76       1.0  0.47677  0.24319  0.42906  1.0000
  H   H70       1.0  0.43602  0.43826  0.32178  1.0000
  H   H71       1.0  0.35986  0.42954  0.38967  1.0000
  H   H72       1.0  0.03253  0.39992  0.52295  1.0000
  C   C77       1.0  0.20751  0.42626  0.52881  1.0000
  C   C78       1.0  0.27019  0.34094  0.32274  1.0000
  C   C79       1.0  0.33174  0.47601  0.44277  1.0000
  C   C80       1.0  0.42137  0.46953  0.34570  1.0000
  C   C81       1.0  0.22475  0.45702  0.53746  1.0000
  C   C82       1.0  0.03327  0.48256  0.43898  1.0000
  C   C83       1.0  0.30280  0.47804  0.38125  1.0000
  H   H73       1.0  0.20383  0.43178  0.34928  1.0000
  C   C84       1.0  0.05683  0.41103  0.49139  1.0000
  C   C85       1.0  0.20026  0.45730  0.31912  1.0000
  C   C86       1.0  0.46565  0.19838  0.54845  1.0000
  C   C87       1.0  0.25193  0.34928  0.46641  1.0000
  C   C88       1.0  0.25523  0.31565  0.47027  1.0000
  C   C89       1.0  0.22678  0.28758  0.46893  1.0000
  C   C90       1.0  0.19522  0.29311  0.46324  1.0000
  C   C91       1.0  0.19218  0.32677  0.45816  1.0000
  C   C92       1.0  0.22039  0.35478  0.46081  1.0000
  P   P4        1.0  0.15127  0.33471  0.45174  1.0000
  C   C93       1.0  0.15383  0.36623  0.42971  1.0000
  C   C94       1.0  0.12043  0.29630  0.44436  1.0000
  C   C95       1.0  0.13094  0.27267  0.43143  1.0000
  C   C96       1.0  0.10693  0.24358  0.42508  1.0000
  C   C97       1.0  0.07215  0.23817  0.43135  1.0000
  C   C98       1.0  0.06137  0.26197  0.44379  1.0000
  C   C99       1.0  0.08531  0.29102  0.45012  1.0000
  C   C100      1.0  0.12372  0.37522  0.42391  1.0000
  C   C101      1.0  0.12483  0.40009  0.40736  1.0000
  C   C102      1.0  0.15610  0.41656  0.39660  1.0000
  C   C103      1.0  0.18613  0.40754  0.40206  1.0000
  C   C104      1.0  0.18500  0.38227  0.41838  1.0000
  C   C105      1.0  0.13687  0.35144  0.47562  1.0000
  C   C106      1.0  0.11803  0.32903  0.49217  1.0000
  C   C107      1.0  0.10708  0.34239  0.51062  1.0000
  C   C108      1.0  0.11601  0.37802  0.51301  1.0000
  C   C109      1.0  0.13598  0.40028  0.49699  1.0000
  C   C110      1.0  0.14632  0.38711  0.47834  1.0000
  H   H74       1.0  0.27369  0.37122  0.46789  1.0000
  H   H75       1.0  0.27967  0.31140  0.47468  1.0000
  H   H76       1.0  0.22906  0.26154  0.47259  1.0000
  H   H77       1.0  0.17325  0.27110  0.46327  1.0000
  H   H78       1.0  0.21794  0.38098  0.45871  1.0000
  H   H79       1.0  0.15768  0.27675  0.42620  1.0000
  H   H80       1.0  0.11521  0.22527  0.41526  1.0000
  H   H81       1.0  0.05346  0.21569  0.42647  1.0000
  H   H82       1.0  0.03435  0.25809  0.44856  1.0000
  H   H83       1.0  0.07612  0.30930  0.45944  1.0000
  H   H84       1.0  0.09945  0.36362  0.43251  1.0000
  H   H85       1.0  0.10166  0.40769  0.40344  1.0000
  C   C111      1.0  0.28116  0.45672  0.36784  1.0000
  C   C112      1.0  0.29736  0.45726  0.44223  1.0000
  H   H86       1.0  0.20874  0.37612  0.42219  1.0000
  H   H87       1.0  0.11117  0.30133  0.49070  1.0000
  H   H88       1.0  0.09102  0.32518  0.52286  1.0000
  H   H89       1.0  0.10666  0.38857  0.52697  1.0000
  H   H90       1.0  0.14259  0.42793  0.49876  1.0000
  H   H91       1.0  0.16168  0.40483  0.46608  1.0000
  C   C113      1.0  0.28764  0.42525  0.36216  1.0000
  S   S8        1.0  0.07983  0.45341  0.49695  1.0000
  C   C114      1.0  0.45811  0.32156  0.49199  1.0000
  C   C115      1.0  0.46863  0.20719  0.42793  1.0000
  C   C116      1.0  0.26803  0.46707  0.50829  1.0000
  C   C117      1.0  0.31569  0.41518  0.37062  1.0000
  Fe  Fe1       1.0  0.45322  0.48400  0.39511  1.0000
  C   C118      1.0  0.47656  0.37208  0.39036  1.0000
  S   S9        1.0  0.47617  0.42733  0.46445  1.0000
  H   H92       1.0  0.05938  0.47972  0.43921  1.0000
  H   H93       1.0  0.18889  0.36663  0.33496  1.0000
  H   H94       1.0  0.25983  0.46534  0.36176  1.0000
  C   C119      1.0  0.41936  0.45472  0.32592  1.0000
  H   H95       1.0  0.29107  0.48249  0.49978  1.0000
  C   C120      1.0  0.20656  0.32599  0.38905  1.0000
  C   C121      1.0  0.45547  0.16352  0.55552  1.0000
  C   C122      1.0  0.19398  0.35617  0.35030  1.0000
  H   H96       1.0  0.18378  0.41067  0.53653  1.0000
  H   H97       1.0  0.35217  0.46390  0.43881  1.0000
  H   H98       1.0  0.44704  0.21120  0.54229  1.0000
  C   C123      1.0  0.24280  0.42500  0.32613  1.0000
  Fe  Fe2       1.0  0.19147  0.48285  0.45099  1.0000
  H   H99       1.0  0.28325  0.45727  0.56576  1.0000
  C   C124      1.0  0.22064  0.41579  0.51002  1.0000
  H   H100      1.0  0.20722  0.39211  0.50319  1.0000
  H   H101      1.0  0.45811  0.25717  0.42451  1.0000
  S   S10       1.0  0.00315  0.29836  0.47959  1.0000
  C   C125      1.0  0.28528  0.37458  0.32866  1.0000
  C   C126      1.0  0.31957  0.39014  0.32201  1.0000
  Fe  Fe3       1.0  0.47072  0.46863  0.44031  1.0000
  H   H102      1.0  0.15711  0.43693  0.38442  1.0000
  C   C127      1.0  0.47961  0.14700  0.56341  1.0000
  C   C128      1.0  0.33114  0.46826  0.38907  1.0000
  C   C129      1.0  0.25654  0.43332  0.30512  1.0000
  H   H103      1.0  0.17876  0.46710  0.32457  1.0000
  H   H104      1.0  0.42890  0.14924  0.55485  1.0000
  C   C130      1.0  0.28011  0.47736  0.57612  1.0000
  C   C131      1.0  0.39533  0.46041  0.31166  1.0000
  H   H105      1.0  0.46648  0.31406  0.52531  1.0000
  H   H106      1.0  0.21412  0.46487  0.55196  1.0000
  H   H107      1.0  0.44424  0.19372  0.42209  1.0000
  H   H108      1.0  0.33137  0.41627  0.32603  1.0000
  H   H109      1.0  0.47566  0.33058  0.36958  1.0000
  C   C132      1.0  0.25525  0.47764  0.52731  1.0000
  C   C133      1.0  0.37295  0.48073  0.31714  1.0000
  H   H110      1.0  0.46335  0.47544  0.51198  1.0000
  H   H111      1.0  0.47132  0.12007  0.56901  1.0000
  H   H112      1.0  0.34848  0.48532  0.39893  1.0000
  H   H113      1.0  0.28193  0.44644  0.60477  1.0000
  H   H114      1.0  0.01007  0.46085  0.53082  1.0000
  Fe  Fe4       1.0  0.12355  0.48280  0.47388  1.0000
  C   C134      1.0  0.39999  0.49110  0.35089  1.0000
  C   C135      1.0  0.27949  0.47117  0.59820  1.0000
  H   H115      1.0  0.48521  0.16052  0.43422  1.0000
  H   H116      1.0  0.99599  0.47126  0.49399  1.0000
  C   C136      1.0  0.48114  0.33975  0.38531  1.0000
  C   C137      1.0  0.48894  0.49240  0.50936  1.0000
  H   H117      1.0  0.27501  0.49194  0.62892  1.0000
  H   H118      1.0  0.36519  0.38464  0.30491  1.0000
  C   C138      1.0  0.32366  0.33872  0.30427  1.0000
  H   H119      1.0  0.14905  0.40092  0.92251  1.0000
  H   H120      1.0  0.23282  0.44147  0.95826  1.0000
  C   C139      1.0  0.09526  0.43540  0.89293  1.0000
  C   C140      1.0  0.09821  0.37431  0.91521  1.0000
  H   H121      1.0  0.18019  0.45468  0.94524  1.0000
  C   C141      1.0  0.09019  0.40570  0.96708  1.0000
  H   H122      1.0  0.10519  0.39002  0.95965  1.0000
  C   C142      1.0  0.22646  0.46105  0.89787  1.0000
  C   C143      1.0  0.06829  0.37629  0.90531  1.0000
  C   C144      1.0  0.16746  0.46812  0.85904  1.0000
  C   C145      1.0  0.23082  0.44661  0.94139  1.0000
  C   C146      1.0  0.12520  0.43387  0.90324  1.0000
  H   H123      1.0  0.27787  0.45380  0.89454  1.0000
  C   C147      1.0  0.12661  0.40295  0.91421  1.0000
  C   C148      1.0  0.25836  0.44641  0.92717  1.0000
  H   H124      1.0  0.17342  0.46438  0.82509  1.0000
  C   C149      1.0  0.20116  0.45425  0.93395  1.0000
  H   H125      1.0  0.09872  0.35094  0.92446  1.0000
  H   H126      1.0  0.28160  0.44112  0.93309  1.0000
  H   H127      1.0  0.36699  0.44562  0.95960  1.0000
  H   H128      1.0  0.16286  0.44046  0.86232  1.0000
  C   C150      1.0  0.19869  0.46146  0.91213  1.0000
  C   C151      1.0  0.34931  0.48838  0.94652  1.0000
  C   C152      1.0  0.34808  0.46055  0.96109  1.0000
  C   C153      1.0  0.25621  0.45365  0.90543  1.0000
  C   C154      1.0  0.06688  0.40674  0.89405  1.0000
  H   H129      1.0  0.04342  0.40834  0.88671  1.0000
  H   H130      1.0  0.09348  0.45911  0.88459  1.0000
  H   H131      1.0  0.04587  0.35449  0.90698  1.0000
  C   C155      1.0  0.16765  0.49022  0.87581  1.0000
  S   S11       1.0  0.03379  0.35499  0.95736  1.0000
  P   P5        1.0  0.16044  0.47213  0.90295  1.0000
  H   H132      1.0  0.22558  0.46681  0.88101  1.0000
  C   C156      1.0  0.17349  0.48158  0.83793  1.0000
  H   H133      1.0  0.09662  0.47350  0.92826  1.0000
  C   C157      1.0  0.05413  0.39441  0.96839  1.0000
  Fe  Fe5       1.0  0.31602  0.59531  0.28419  1.0000
  S   S12       1.0  0.46034  0.49522  0.10103  1.0000
  S   S13       1.0  0.33773  0.62661  0.25418  1.0000
  H   H134      1.0  0.42106  0.70851  0.08701  1.0000
  C   C158      1.0  0.35623  0.75094  0.03688  1.0000
  Fe  Fe6       1.0  0.42940  0.52529  0.11918  1.0000
  S   S14       1.0  0.39309  0.55002  0.10188  1.0000
  C   C159      1.0  0.27906  0.67211  0.09223  1.0000
  Fe  Fe7       1.0  0.40568  0.54357  0.16247  1.0000
  S   S15       1.0  0.36752  0.56947  0.14881  1.0000
  S   S16       1.0  0.40877  0.53435  0.19767  1.0000
  Fe  Fe8       1.0  0.35486  0.52453  0.12817  1.0000
  Fe  Fe9       1.0  0.23578  0.50005  0.00104  1.0000
  Fe  Fe10      1.0  0.40977  0.59271  0.12411  1.0000
  S   S17       1.0  0.41743  0.64949  0.11546  1.0000
  H   H135      1.0  0.26132  0.67872  0.08132  1.0000
  S   S18       1.0  0.44943  0.57013  0.13941  1.0000
  Fe  Fe11      1.0  0.21738  0.55125  0.03016  1.0000
  C   C160      1.0  0.31565  0.49790  0.18466  1.0000
  S   S19       1.0  0.22471  0.57498  0.06186  1.0000
  H   H136      1.0  0.45901  0.63510  0.25597  1.0000
  S   S20       1.0  0.26323  0.55403  0.00798  1.0000
  C   C161      1.0  0.28527  0.52291  0.21924  1.0000
  H   H137      1.0  0.35280  0.56033  0.26286  1.0000
  C   C162      1.0  0.34741  0.52796  0.02922  1.0000
  C   C163      1.0  0.44164  0.66407  0.09138  1.0000
  C   C164      1.0  0.46465  0.64624  0.08317  1.0000
  H   H138      1.0  0.30474  0.56616  0.11696  1.0000
  H   H139      1.0  0.37157  0.58127  0.06041  1.0000
  Fe  Fe12      1.0  0.23114  0.56946  0.98302  1.0000
  C   C165      1.0  0.43848  0.69445  0.08058  1.0000
  H   H140      1.0  0.46748  0.62303  0.09154  1.0000
  H   H141      1.0  0.35676  0.67074  0.99345  1.0000
  C   C166      1.0  0.24841  0.70422  0.02518  1.0000
  Fe  Fe13      1.0  0.42426  0.75018  0.98323  1.0000
  C   C167      1.0  0.28124  0.51641  0.10528  1.0000
  C   C168      1.0  0.22165  0.51840  0.16358  1.0000
  C   C169      1.0  0.24190  0.51674  0.07715  1.0000
  C   C170      1.0  0.24702  0.55249  0.07818  1.0000
  C   C171      1.0  0.26945  0.57022  0.09267  1.0000
  C   C172      1.0  0.39415  0.59737  0.98563  1.0000
  H   H142      1.0  0.37765  0.52670  0.00019  1.0000
  H   H143      1.0  0.34108  0.56862  0.98665  1.0000
  Fe  Fe14      1.0  0.16570  0.51484  0.99915  1.0000
  C   C173      1.0  0.48450  0.65884  0.06425  1.0000
  C   C174      1.0  0.46093  0.54220  0.03394  1.0000
  C   C175      1.0  0.46303  0.56251  0.05156  1.0000
  C   C176      1.0  0.46407  0.54804  0.07198  1.0000
  H   H144      1.0  0.36980  0.73171  0.08857  1.0000
  C   C177      1.0  0.33801  0.70651  0.97353  1.0000
  H   H145      1.0  0.46427  0.58969  0.04947  1.0000
  H   H146      1.0  0.46552  0.56398  0.08548  1.0000
  C   C178      1.0  0.35709  0.60080  0.23837  1.0000
  C   C179      1.0  0.36853  0.61186  0.21737  1.0000
  C   C180      1.0  0.38370  0.59122  0.20452  1.0000
  C   C181      1.0  0.38822  0.55982  0.21293  1.0000
  C   C182      1.0  0.37693  0.54887  0.23398  1.0000
  C   C183      1.0  0.36122  0.56917  0.24664  1.0000
  H   H147      1.0  0.36578  0.63653  0.21119  1.0000
  H   H148      1.0  0.39284  0.60009  0.18836  1.0000
  H   H149      1.0  0.37987  0.52435  0.24047  1.0000
  H   H150      1.0  0.28038  0.64174  0.14351  1.0000
  H   H151      1.0  0.14213  0.52035  0.23498  1.0000
  C   C184      1.0  0.17971  0.55348  0.25313  1.0000
  C   C185      1.0  0.21332  0.57401  0.25318  1.0000
  C   C186      1.0  0.23536  0.57772  0.23498  1.0000
  C   C187      1.0  0.22384  0.56090  0.21651  1.0000
  C   C188      1.0  0.19011  0.54008  0.21662  1.0000
  P   P6        1.0  0.25333  0.56359  0.19370  1.0000
  C   C189      1.0  0.27940  0.60747  0.18961  1.0000
  C   C190      1.0  0.28019  0.53407  0.19841  1.0000
  C   C191      1.0  0.20776  0.51067  0.14384  1.0000
  C   C192      1.0  0.31064  0.64480  0.97841  1.0000
  H   H152      1.0  0.27346  0.59782  0.09344  1.0000
  H   H153      1.0  0.22670  0.49772  0.17361  1.0000
  C   C193      1.0  0.33524  0.66434  0.09982  1.0000
  C   C194      1.0  0.31281  0.61396  0.18034  1.0000
  C   C195      1.0  0.33262  0.64788  0.17625  1.0000
  C   C196      1.0  0.31922  0.67565  0.18155  1.0000
  C   C197      1.0  0.28588  0.66947  0.19079  1.0000
  C   C198      1.0  0.26594  0.63552  0.19472  1.0000
  C   C199      1.0  0.23041  0.55272  0.16975  1.0000
  H   H154      1.0  0.18089  0.52628  0.20276  1.0000
  C   C200      1.0  0.47504  0.63711  0.20052  1.0000
  H   H155      1.0  0.41280  0.53713  0.28851  1.0000
  C   C201      1.0  0.20889  0.57085  0.13675  1.0000
  C   C202      1.0  0.22296  0.57873  0.15643  1.0000
  H   H156      1.0  0.36155  0.66530  0.09482  1.0000
  H   H157      1.0  0.16290  0.55033  0.26742  1.0000
  H   H158      1.0  0.22250  0.58647  0.26754  1.0000
  H   H159      1.0  0.26169  0.59302  0.23552  1.0000
  C   C203      1.0  0.45082  0.65466  0.20762  1.0000
  H   H160      1.0  0.29299  0.53008  0.16489  1.0000
  Fe  Fe15      1.0  0.48485  0.73597  0.00558  1.0000
  S   S21       1.0  0.38974  0.49659  0.14375  1.0000
  S   S22       1.0  0.20709  0.51523  0.97400  1.0000
  C   C204      1.0  0.46722  0.65527  0.16397  1.0000
  H   H161      1.0  0.32378  0.59283  0.17656  1.0000
  H   H162      1.0  0.35860  0.65246  0.16929  1.0000
  H   H163      1.0  0.33475  0.70191  0.17860  1.0000
  H   H164      1.0  0.27555  0.69098  0.19504  1.0000
  H   H165      1.0  0.24007  0.63122  0.20171  1.0000
  C   C205      1.0  0.46564  0.67853  0.29325  1.0000
  H   H166      1.0  0.19202  0.53119  0.11475  1.0000
  C   C206      1.0  0.33741  0.67369  0.98263  1.0000
  H   H167      1.0  0.20443  0.59114  0.12610  1.0000
  H   H168      1.0  0.22862  0.60520  0.16094  1.0000
  H   H169      1.0  0.44619  0.62777  0.97994  1.0000
  C   C207      1.0  0.45755  0.70649  0.06132  1.0000
  C   C208      1.0  0.28213  0.65131  0.03028  1.0000
  C   C209      1.0  0.37481  0.60697  0.05308  1.0000
  H   H170      1.0  0.24093  0.65919  0.11836  1.0000
  H   H171      1.0  0.32970  0.61486  0.06916  1.0000
  H   H172      1.0  0.14660  0.52450  0.07319  1.0000
  Fe  Fe16      1.0  0.48865  0.80897  0.98756  1.0000
  C   C210      1.0  0.35139  0.62632  0.05817  1.0000
  C   C211      1.0  0.43105  0.67597  0.28970  1.0000
  H   H173      1.0  0.24769  0.62491  0.00782  1.0000
  C   C212      1.0  0.28713  0.55231  0.10594  1.0000
  H   H174      1.0  0.47322  0.65524  0.14699  1.0000
  C   C213      1.0  0.29304  0.68169  0.04108  1.0000
  C   C214      1.0  0.37679  0.78478  0.03477  1.0000
  Fe  Fe17      1.0  0.46859  0.53481  0.97966  1.0000
  C   C215      1.0  0.20166  0.53693  0.13036  1.0000
  C   C216      1.0  0.43461  0.58803  0.27384  1.0000
  H   H175      1.0  0.43795  0.50748  0.26066  1.0000
  C   C217      1.0  0.23844  0.67432  0.01394  1.0000
  S   S23       1.0  0.45943  0.56206  0.00878  1.0000
  C   C218      1.0  0.32338  0.65258  0.12063  1.0000
  H   H176      1.0  0.31858  0.52158  0.05942  1.0000
  C   C219      1.0  0.33322  0.51000  0.04835  1.0000
  C   C220      1.0  0.46275  0.55459  0.24229  1.0000
  H   H177      1.0  0.45462  0.72965  0.05292  1.0000
  C   C221      1.0  0.16809  0.53655  0.23486  1.0000
  S   S24       1.0  0.18688  0.57069  0.00567  1.0000
  C   C222      1.0  0.48063  0.68867  0.05312  1.0000
  C   C223      1.0  0.30519  0.49931  0.22269  1.0000
  H   H178      1.0  0.37954  0.79917  0.01950  1.0000
  S   S25       1.0  0.45213  0.77301  0.01155  1.0000
  C   C224      1.0  0.28949  0.65099  0.12740  1.0000
  H   H179      1.0  0.30947  0.61983  0.98607  1.0000
  H   H180      1.0  0.21796  0.67157  0.00302  1.0000
  H   H181      1.0  0.42304  0.60084  0.28582  1.0000
  C   C225      1.0  0.36640  0.51306  0.01503  1.0000
  H   H182      1.0  0.23547  0.72474  0.02310  1.0000
  C   C226      1.0  0.46331  0.51316  0.07497  1.0000
  H   H183      1.0  0.42082  0.60596  0.03471  1.0000
  H   H184      1.0  0.34361  0.55335  0.02542  1.0000
  C   C227      1.0  0.45447  0.60731  0.25660  1.0000
  S   S26       1.0  0.28285  0.54205  0.28136  1.0000
  C   C228      1.0  0.42896  0.55212  0.27542  1.0000
  C   C229      1.0  0.35657  0.66039  0.04957  1.0000
  C   C230      1.0  0.38433  0.67389  0.03476  1.0000
  C   C231      1.0  0.40272  0.62090  0.03873  1.0000
  C   C232      1.0  0.46049  0.50717  0.03678  1.0000
  H   H185      1.0  0.42370  0.68582  0.27475  1.0000
  H   H186      1.0  0.38877  0.69977  0.02753  1.0000
  H   H187      1.0  0.28298  0.73115  0.04742  1.0000
  S   S27       1.0  0.36731  0.74462  0.98063  1.0000
  H   H188      1.0  0.42902  0.66471  0.01828  1.0000
  C   C233      1.0  0.44271  0.67201  0.17119  1.0000
  C   C234      1.0  0.42112  0.61956  0.97342  1.0000
  C   C235      1.0  0.43490  0.67217  0.19302  1.0000
  C   C236      1.0  0.27544  0.70781  0.03886  1.0000
  C   C237      1.0  0.35329  0.73138  0.05624  1.0000
  H   H189      1.0  0.44361  0.65450  0.22434  1.0000
  C   C238      1.0  0.26735  0.66089  0.11324  1.0000
  C   C239      1.0  0.29589  0.52159  0.18115  1.0000
  H   H190      1.0  0.34057  0.64422  0.13127  1.0000
  H   H191      1.0  0.29463  0.63039  0.03205  1.0000
  P   P7        1.0  0.32860  0.68683  0.05818  1.0000
  C   C240      1.0  0.25511  0.64786  0.01667  1.0000
  H   H192      1.0  0.27443  0.53257  0.23295  1.0000
  C   C241      1.0  0.31316  0.67384  0.08538  1.0000
  C   C242      1.0  0.37121  0.74630  0.07354  1.0000
  C   C243      1.0  0.40718  0.65406  0.02932  1.0000
  H   H193      1.0  0.39847  0.58847  0.00146  1.0000
  H   H194      1.0  0.41153  0.82525  0.05009  1.0000
  C   C244      1.0  0.39485  0.79934  0.05197  1.0000
  H   H195      1.0  0.48481  0.97223  0.01641  1.0000
  H   H196      1.0  0.34330  0.73971  0.02318  1.0000
  H   H197      1.0  0.40638  0.79120  0.08462  1.0000
  C   C245      1.0  0.39198  0.78013  0.07138  1.0000
  C   C246      1.0  0.48605  0.98629  0.98303  1.0000
  H   H198      1.0  0.22476  0.50294  0.06595  1.0000
  S   S28       1.0  0.10791  0.49651  0.99673  1.0000
  S   S29       1.0  0.45400  0.71021  0.97911  1.0000
  C   C247      1.0  0.44317  0.53543  0.25971  1.0000
  H   H199      1.0  0.42973  0.68465  0.15977  1.0000
  H   H200      1.0  0.37888  0.65846  0.30261  1.0000
  C   C248      1.0  0.13747  0.49775  0.06922  1.0000
  C   C249      1.0  0.46867  0.59081  0.24057  1.0000
  S   S30       1.0  0.19289  0.49554  0.02568  1.0000
  C   C250      1.0  0.25843  0.49860  0.09100  1.0000
  C   C251      1.0  0.36200  0.58598  0.97723  1.0000
  H   H201      1.0  0.47756  0.56401  0.18836  1.0000
  H   H202      1.0  0.41583  0.68511  0.19865  1.0000
  H   H203      1.0  0.10495  0.50911  0.04500  1.0000
  H   H204      1.0  0.45962  0.97232  0.98136  1.0000
  C   C252      1.0  0.48372  0.63839  0.17852  1.0000
  H   H205      1.0  0.48533  0.69070  0.28109  1.0000
  H   H206      1.0  0.47268  0.54082  0.23016  1.0000
  S   S31       1.0  0.30185  0.49336  0.12232  1.0000
  H   H207      1.0  0.18058  0.56618  0.52006  1.0000
  S   S32       1.0  0.28124  0.53341  0.33335  1.0000
  C   C253      1.0  0.40825  0.62478  0.54907  1.0000
  C   C254      1.0  0.26166  0.61321  0.52745  1.0000
  C   C255      1.0  0.38931  0.55033  0.51060  1.0000
  Fe  Fe18      1.0  0.31327  0.58826  0.33198  1.0000
  S   S33       1.0  0.32574  0.60832  0.36390  1.0000
  H   H208      1.0  0.39478  0.63530  0.33670  1.0000
  H   H209      1.0  0.33203  0.64581  0.55817  1.0000
  H   H210      1.0  0.44021  0.64307  0.39796  1.0000
  Fe  Fe19      1.0  0.25130  0.55390  0.30894  1.0000
  S   S34       1.0  0.12261  0.53351  0.45752  1.0000
  C   C256      1.0  0.22248  0.54461  0.52887  1.0000
  Fe  Fe20      1.0  0.17916  0.55078  0.46319  1.0000
  S   S35       1.0  0.20096  0.60600  0.47226  1.0000
  C   C257      1.0  0.31287  0.52589  0.45365  1.0000
  C   C258      1.0  0.20726  0.57169  0.52411  1.0000
  S   S36       1.0  0.19574  0.53277  0.43215  1.0000
  C   C259      1.0  0.35806  0.64788  0.55199  1.0000
  Fe  Fe21      1.0  0.41694  0.75594  0.42028  1.0000
  S   S37       1.0  0.38619  0.76660  0.44874  1.0000
  S   S38       1.0  0.40137  0.75934  0.38643  1.0000
  C   C260      1.0  0.37448  0.67576  0.53802  1.0000
  S   S39       1.0  0.44610  0.74705  0.47721  1.0000
  H   H211      1.0  0.27048  0.55982  0.57504  1.0000
  Fe  Fe22      1.0  0.39704  0.71837  0.46322  1.0000
  S   S40       1.0  0.35898  0.67463  0.48236  1.0000
  Fe  Fe23      1.0  0.43777  0.79469  0.46014  1.0000
  S   S41       1.0  0.42514  0.70605  0.43414  1.0000
  H   H212      1.0  0.10980  0.58740  0.38382  1.0000
  C   C261      1.0  0.42470  0.61973  0.46726  1.0000
  C   C262      1.0  0.25750  0.55166  0.53295  1.0000
  C   C263      1.0  0.13449  0.52079  0.37381  1.0000
  C   C264      1.0  0.17145  0.53460  0.33408  1.0000
  C   C265      1.0  0.40326  0.58167  0.36428  1.0000
  H   H213      1.0  0.44441  0.59188  0.44341  1.0000
  S   S42       1.0  0.28124  0.60916  0.30926  1.0000
  S   S43       1.0  0.45055  0.53822  0.40106  1.0000
  C   C266      1.0  0.44938  0.64970  0.32837  1.0000
  C   C267      1.0  0.22680  0.60593  0.52345  1.0000
  H   H214      1.0  0.30415  0.59242  0.53489  1.0000
  C   C268      1.0  0.39595  0.60176  0.40584  1.0000
  C   C269      1.0  0.46085  0.63684  0.49683  1.0000
  H   H215      1.0  0.31883  0.55255  0.45784  1.0000
  S   S44       1.0  0.17871  0.50192  0.48260  1.0000
  H   H216      1.0  0.42050  0.60437  0.55313  1.0000
  H   H217      1.0  0.21569  0.53333  0.35168  1.0000
  C   C270      1.0  0.44922  0.60463  0.45822  1.0000
  C   C271      1.0  0.24587  0.62459  0.47154  1.0000
  C   C272      1.0  0.25826  0.66078  0.46970  1.0000
  C   C273      1.0  0.29350  0.67654  0.47119  1.0000
  C   C274      1.0  0.31653  0.65620  0.47509  1.0000
  C   C275      1.0  0.30423  0.62008  0.47652  1.0000
  C   C276      1.0  0.26916  0.60424  0.47448  1.0000
  H   H218      1.0  0.24044  0.67674  0.46746  1.0000
  H   H219      1.0  0.30256  0.70443  0.47034  1.0000
  H   H220      1.0  0.32198  0.60445  0.47954  1.0000
  H   H221      1.0  0.25993  0.57639  0.47608  1.0000
  C   C277      1.0  0.21346  0.69981  0.33735  1.0000
  H   H222      1.0  0.18682  0.68938  0.36819  1.0000
  H   H223      1.0  0.19504  0.71242  0.33071  1.0000
  H   H224      1.0  0.40559  0.57345  0.34824  1.0000
  C   C278      1.0  0.42623  0.61133  0.37096  1.0000
  C   C279      1.0  0.41478  0.64729  0.32472  1.0000
  C   C280      1.0  0.37298  0.57261  0.39894  1.0000
  H   H225      1.0  0.39277  0.60961  0.42187  1.0000
  C   C281      1.0  0.13594  0.53103  0.33539  1.0000
  H   H226      1.0  0.25807  0.51938  0.45711  1.0000
  H   H227      1.0  0.26935  0.54854  0.61387  1.0000
  C   C282      1.0  0.34876  0.52314  0.53969  1.0000
  H   H228      1.0  0.09011  0.52164  0.35607  1.0000
  Fe  Fe24      1.0  0.13956  0.51170  0.42791  1.0000
  C   C283      1.0  0.37566  0.49666  0.33657  1.0000
  H   H229      1.0  0.35819  0.51222  0.34078  1.0000
  S   S45       1.0  0.44738  0.84416  0.47808  1.0000
  H   H230      1.0  0.44242  0.69392  0.36866  1.0000
  C   C284      1.0  0.34566  0.65110  0.36903  1.0000
  C   C285      1.0  0.35086  0.65875  0.39023  1.0000
  C   C286      1.0  0.36654  0.69230  0.39546  1.0000
  C   C287      1.0  0.37845  0.71833  0.37949  1.0000
  C   C288      1.0  0.37258  0.71110  0.35815  1.0000
  C   C289      1.0  0.35567  0.67746  0.35292  1.0000
  H   H231      1.0  0.34240  0.63872  0.40277  1.0000
  H   H232      1.0  0.36838  0.69811  0.41196  1.0000
  H   H233      1.0  0.38128  0.73138  0.34573  1.0000
  H   H234      1.0  0.35070  0.67185  0.33656  1.0000
  H   H235      1.0  0.35836  0.54052  0.37278  1.0000
  H   H236      1.0  0.40100  0.61889  0.45947  1.0000
  H   H237      1.0  0.41950  0.69948  0.51818  1.0000
  C   C290      1.0  0.27696  0.58623  0.53226  1.0000
  C   C291      1.0  0.24224  0.69731  0.32487  1.0000
  C   C292      1.0  0.43031  0.63536  0.48660  1.0000
  H   H238      1.0  0.18311  0.52102  0.38685  1.0000
  H   H239      1.0  0.29796  0.50253  0.38524  1.0000
  H   H240      1.0  0.36190  0.60041  0.56801  1.0000
  S   S46       1.0  0.46719  0.78834  0.43019  1.0000
  C   C293      1.0  0.27676  0.50927  0.56748  1.0000
  H   H241      1.0  0.24615  0.70787  0.30854  1.0000
  H   H242      1.0  0.27710  0.63970  0.52586  1.0000
  C   C294      1.0  0.36242  0.55728  0.49939  1.0000
  H   H243      1.0  0.36743  0.57020  0.48369  1.0000
  S   S47       1.0  0.38197  0.53525  0.44810  1.0000
  H   H244      1.0  0.35198  0.55818  0.40956  1.0000
  C   C295      1.0  0.37679  0.56245  0.37825  1.0000
  H   H245      1.0  0.36102  0.69488  0.53298  1.0000
  C   C296      1.0  0.42261  0.62099  0.39199  1.0000
  C   C297      1.0  0.12690  0.60146  0.39506  1.0000
  C   C298      1.0  0.11609  0.60002  0.41656  1.0000
  C   C299      1.0  0.13890  0.61625  0.43129  1.0000
  C   C300      1.0  0.17245  0.63392  0.42453  1.0000
  C   C301      1.0  0.18322  0.63636  0.40292  1.0000
  C   C302      1.0  0.16047  0.61912  0.38829  1.0000
  P   P8        1.0  0.22771  0.65503  0.39480  1.0000
  C   C303      1.0  0.24824  0.69288  0.40846  1.0000
  C   C304      1.0  0.24841  0.62049  0.39958  1.0000
  C   C305      1.0  0.26905  0.62040  0.41700  1.0000
  C   C306      1.0  0.28350  0.59260  0.42117  1.0000
  C   C307      1.0  0.27694  0.56444  0.40829  1.0000
  C   C308      1.0  0.25602  0.56408  0.39113  1.0000
  C   C309      1.0  0.24180  0.59204  0.38673  1.0000
  C   C310      1.0  0.28401  0.70566  0.40568  1.0000
  C   C311      1.0  0.30095  0.73473  0.41604  1.0000
  C   C312      1.0  0.28218  0.75163  0.42907  1.0000
  C   C313      1.0  0.24637  0.73988  0.43133  1.0000
  C   C314      1.0  0.22935  0.71087  0.42083  1.0000
  C   C315      1.0  0.23231  0.66973  0.36711  1.0000
  C   C316      1.0  0.20871  0.68645  0.35850  1.0000
  H   H246      1.0  0.41048  0.64585  0.49352  1.0000
  C   C317      1.0  0.26623  0.68145  0.33354  1.0000
  C   C318      1.0  0.26115  0.66745  0.35452  1.0000
  H   H247      1.0  0.09055  0.58512  0.42191  1.0000
  H   H248      1.0  0.13119  0.61396  0.44811  1.0000
  H   H249      1.0  0.19034  0.64469  0.43628  1.0000
  H   H250      1.0  0.16892  0.61815  0.37180  1.0000
  H   H251      1.0  0.27408  0.64162  0.42743  1.0000
  H   H252      1.0  0.30006  0.59311  0.43429  1.0000
  H   H253      1.0  0.28813  0.54297  0.41156  1.0000
  H   H254      1.0  0.25136  0.54241  0.38105  1.0000
  H   H255      1.0  0.22577  0.59153  0.37332  1.0000
  H   H256      1.0  0.29876  0.69301  0.39545  1.0000
  H   H257      1.0  0.32868  0.74416  0.41388  1.0000
  H   H258      1.0  0.29545  0.77400  0.43722  1.0000
  H   H259      1.0  0.23180  0.75331  0.44119  1.0000
  H   H260      1.0  0.20162  0.70282  0.42233  1.0000
  H   H261      1.0  0.28892  0.68007  0.32407  1.0000
  H   H262      1.0  0.27996  0.65531  0.36102  1.0000
  C   C319      1.0  0.37491  0.62236  0.55750  1.0000
  C   C320      1.0  0.40783  0.67837  0.52967  1.0000
  C   C321      1.0  0.38253  0.53325  0.53079  1.0000
  C   C322      1.0  0.32875  0.54678  0.50803  1.0000
  C   C323      1.0  0.42502  0.65292  0.53514  1.0000
  H   H263      1.0  0.21524  0.62672  0.51879  1.0000
  C   C324      1.0  0.27307  0.53498  0.58124  1.0000
  H   H264      1.0  0.30808  0.55135  0.49875  1.0000
  H   H265      1.0  0.12263  0.53365  0.32108  1.0000
  H   H266      1.0  0.41515  0.55774  0.50331  1.0000
  C   C325      1.0  0.11755  0.52422  0.35519  1.0000
  H   H267      1.0  0.04580  0.52393  0.41467  1.0000
  C   C326      1.0  0.47708  0.58148  0.32984  1.0000
  C   C327      1.0  0.32166  0.53008  0.52834  1.0000
  H   H268      1.0  0.40334  0.52745  0.53938  1.0000
  Fe  Fe25      1.0  0.47272  0.73917  0.44646  1.0000
  H   H269      1.0  0.40162  0.50264  0.36614  1.0000
  H   H270      1.0  0.20690  0.51836  0.52885  1.0000
  S   S48       1.0  0.11039  0.51256  0.39828  1.0000
  C   C328      1.0  0.46946  0.69709  0.37138  1.0000
  C   C329      1.0  0.27246  0.52869  0.60332  1.0000
  S   S49       1.0  0.19359  0.54260  0.30892  1.0000
  S   S50       1.0  0.47068  0.52168  0.44998  1.0000
  P   P9        1.0  0.27769  0.51694  0.53894  1.0000
  Fe  Fe26      1.0  0.42291  0.51463  0.43200  1.0000
  C   C330      1.0  0.16996  0.52393  0.37255  1.0000
  C   C331      1.0  0.18841  0.53088  0.35266  1.0000
  H   H271      1.0  0.46619  0.58120  0.52490  1.0000
  C   C332      1.0  0.02559  0.50748  0.42512  1.0000
  C   C333      1.0  0.27853  0.50720  0.45314  1.0000
  C   C334      1.0  0.33947  0.51048  0.44821  1.0000
  C   C335      1.0  0.27562  0.49681  0.61180  1.0000
  H   H272      1.0  0.47177  0.90964  0.49676  1.0000
  H   H273      1.0  0.47124  0.53476  0.49587  1.0000
  H   H274      1.0  0.47741  0.67099  0.42717  1.0000
  H   H275      1.0  0.34397  0.50975  0.55524  1.0000
  C   C336      1.0  0.47479  0.66550  0.31254  1.0000
  S   S51       1.0  0.35118  0.57968  0.30714  1.0000
  P   P10       1.0  0.46681  0.65482  0.52262  1.0000
  H   H276      1.0  0.47328  0.74474  0.38683  1.0000
  H   H277      1.0  0.48559  0.61522  0.41478  1.0000
  H   H278      1.0  0.47105  0.71479  0.54851  1.0000
  H   H279      1.0  0.46015  0.58765  0.31822  1.0000
  Fe  Fe27      1.0  0.31603  0.52710  0.30594  1.0000
  C   C337      1.0  0.99180  0.51057  0.42438  1.0000
  P   P11       1.0  0.46205  0.63393  0.35326  1.0000
  C   C338      1.0  0.40570  0.66047  0.30544  1.0000
  C   C339      1.0  0.48440  0.60097  0.34791  1.0000
  C   C340      1.0  0.48161  0.88064  0.47015  1.0000
  C   C341      1.0  0.48013  0.60667  0.46799  1.0000
  C   C342      1.0  0.48634  0.67185  0.36537  1.0000
  C   C343      1.0  0.48368  0.59402  0.53633  1.0000
  C   C344      1.0  0.48828  0.90952  0.48276  1.0000
  C   C345      1.0  0.48692  0.72601  0.38167  1.0000
  C   C346      1.0  0.48879  0.72281  0.53473  1.0000
  H   H280      1.0  0.48265  0.53643  0.31386  1.0000
  C   C347      1.0  0.48912  0.62973  0.53868  1.0000
  C   C348      1.0  0.48619  0.62316  0.48707  1.0000
  H   H281      1.0  0.08333  0.51531  0.95245  1.0000
  C   C349      1.0  0.28530  0.64847  0.96447  1.0000
  S   S52       1.0  0.48061  0.50115  0.92382  1.0000
  C   C350      1.0  0.28691  0.68102  0.95482  1.0000
  H   H282      1.0  0.18444  0.52763  0.81705  1.0000
  C   C351      1.0  0.29913  0.49915  0.96498  1.0000
  C   C352      1.0  0.17972  0.53934  0.84997  1.0000
  H   H283      1.0  0.31272  0.73518  0.95272  1.0000
  C   C353      1.0  0.47814  0.61958  0.88141  1.0000
  H   H284      1.0  0.17360  0.54370  0.88355  1.0000
  C   C354      1.0  0.42749  0.59517  0.90451  1.0000
  H   H285      1.0  0.25449  0.53681  0.89493  1.0000
  P   P12       1.0  0.37856  0.63006  0.91652  1.0000
  C   C355      1.0  0.31258  0.70994  0.95970  1.0000
  S   S53       1.0  0.25138  0.61328  0.95830  1.0000
  H   H286      1.0  0.48421  0.67214  0.86950  1.0000
  C   C356      1.0  0.37523  0.67417  0.91332  1.0000
  C   C357      1.0  0.17365  0.52596  0.87110  1.0000
  H   H287      1.0  0.26759  0.68414  0.94399  1.0000
  C   C358      1.0  0.17968  0.51719  0.83340  1.0000
  H   H288      1.0  0.32564  0.52900  0.93721  1.0000
  H   H289      1.0  0.39886  0.69086  0.94273  1.0000
  H   H290      1.0  0.46662  0.56869  0.89698  1.0000
  H   H291      1.0  0.12791  0.56774  0.95995  1.0000
  H   H292      1.0  0.43744  0.64658  0.94310  1.0000
  C   C359      1.0  0.11638  0.49671  0.93057  1.0000
  C   C360      1.0  0.13372  0.55005  0.94863  1.0000
  Fe  Fe28      1.0  0.43230  0.50717  0.94043  1.0000
  C   C361      1.0  0.38781  0.69827  0.92844  1.0000
  C   C362      1.0  0.38388  0.61854  0.94395  1.0000
  C   C363      1.0  0.41608  0.63001  0.95259  1.0000
  C   C364      1.0  0.16676  0.55597  0.93905  1.0000
  H   H293      1.0  0.34721  0.72725  0.87823  1.0000
  H   H294      1.0  0.39540  0.75095  0.93718  1.0000
  S   S54       1.0  0.45839  0.78882  0.95969  1.0000
  C   C365      1.0  0.27731  0.58539  0.90818  1.0000
  C   C366      1.0  0.32471  0.50751  0.94841  1.0000
  H   H295      1.0  0.18645  0.57850  0.94282  1.0000
  H   H296      1.0  0.25297  0.59063  0.91292  1.0000
  H   H297      1.0  0.28043  0.51428  0.96642  1.0000
  H   H298      1.0  0.30665  0.63119  0.92152  1.0000
  C   C367      1.0  0.27820  0.55509  0.89820  1.0000
  C   C368      1.0  0.37116  0.74298  0.90735  1.0000
  C   C369      1.0  0.35676  0.59669  0.95651  1.0000
  H   H299      1.0  0.35128  0.66677  0.88316  1.0000
  H   H300      1.0  0.31060  0.52410  0.88578  1.0000
  C   C370      1.0  0.10856  0.52052  0.94433  1.0000
  C   C371      1.0  0.43715  0.65343  0.88885  1.0000
  C   C372      1.0  0.33977  0.60170  0.90776  1.0000
  H   H301      1.0  0.33152  0.58764  0.95049  1.0000
  C   C373      1.0  0.38590  0.73255  0.92536  1.0000
  C   C374      1.0  0.35863  0.71916  0.89220  1.0000
  C   C375      1.0  0.45798  0.59205  0.89429  1.0000
  C   C376      1.0  0.46783  0.65032  0.87877  1.0000
  H   H302      1.0  0.36941  0.76950  0.90526  1.0000
  H   H303      1.0  0.43033  0.67786  0.88710  1.0000
  C   C377      1.0  0.34043  0.57115  0.89772  1.0000
  H   H304      1.0  0.41279  0.57400  0.91506  1.0000
  C   C378      1.0  0.36080  0.68491  0.89510  1.0000
  C   C379      1.0  0.14957  0.50247  0.92083  1.0000
  C   C380      1.0  0.30791  0.60853  0.91298  1.0000
  C   C381      1.0  0.17481  0.53208  0.92543  1.0000
  C   C382      1.0  0.41656  0.62568  0.90168  1.0000
  H   H305      1.0  0.20090  0.53647  0.91880  1.0000
  H   H306      1.0  0.18445  0.56696  0.84647  1.0000
  H   H307      1.0  0.36431  0.56440  0.89407  1.0000
  C   C383      1.0  0.30975  0.54801  0.89295  1.0000
  S   S55       1.0  0.45610  0.56043  0.94990  1.0000
  S   S56       1.0  0.38125  0.49905  0.92580  1.0000
  C   C384      1.0  0.64139  0.25068  0.05161  1.0000
  S   S57       1.0  0.72222  0.38052  0.99127  1.0000
  H   H308      1.0  0.76297  0.09686  0.04174  1.0000
  H   H309      1.0  0.77481  0.26888  0.01087  1.0000
  S   S58       1.0  0.94831  0.29221  0.98346  1.0000
  H   H310      1.0  0.72779  0.07566  0.07536  1.0000
  C   C385      1.0  0.71135  0.12269  0.07855  1.0000
  H   H311      1.0  0.77755  0.33459  0.00515  1.0000
  S   S59       1.0  0.89530  0.33224  0.02215  1.0000
  C   C386      1.0  0.72927  0.10138  0.06856  1.0000
  H   H312      1.0  0.69603  0.11356  0.09321  1.0000
  C   C387      1.0  0.81291  0.17820  0.98447  1.0000
  S   S60       1.0  0.65539  0.33931  0.02211  1.0000
  C   C388      1.0  0.61659  0.03533  0.04634  1.0000
  H   H313      1.0  0.96841  0.35240  0.02009  1.0000
  S   S61       1.0  0.60107  0.25292  0.00188  1.0000
  H   H314      1.0  0.79950  0.18697  0.99742  1.0000
  H   H315      1.0  0.84176  0.46463  0.04368  1.0000
  Fe  Fe29      1.0  0.71116  0.33995  0.01785  1.0000
  H   H316      1.0  0.86405  0.26047  0.04361  1.0000
  C   C389      1.0  0.64687  0.09502  0.03763  1.0000
  C   C390      1.0  0.72763  0.18915  0.99960  1.0000
  H   H317      1.0  0.76804  0.15574  0.02687  1.0000
  C   C391      1.0  0.60237  0.21198  0.99312  1.0000
  H   H318      1.0  0.69993  0.17243  0.07783  1.0000
  C   C392      1.0  0.85380  0.33757  0.02759  1.0000
  C   C393      1.0  0.81169  0.34832  0.05347  1.0000
  S   S62       1.0  0.70265  0.29528  0.99669  1.0000
  H   H319      1.0  0.92799  0.40752  0.01350  1.0000
  C   C394      1.0  0.79627  0.33744  0.01721  1.0000
  C   C395      1.0  0.82955  0.33393  0.01200  1.0000
  H   H320      1.0  0.87837  0.44077  0.06751  1.0000
  C   C396      1.0  0.52292  0.00652  0.05167  1.0000
  C   C397      1.0  0.86015  0.45184  0.03691  1.0000
  H   H321      1.0  0.83632  0.32826  0.99599  1.0000
  H   H322      1.0  0.65585  0.16233  0.97714  1.0000
  S   S63       1.0  0.74563  0.34740  0.04526  1.0000
  C   C398      1.0  0.83666  0.26861  0.07232  1.0000
  C   C399      1.0  0.55494  0.02041  0.98710  1.0000
  C   C400      1.0  0.63895  0.21756  0.04456  1.0000
  H   H323      1.0  0.71205  0.16509  0.00701  1.0000
  C   C401      1.0  0.74917  0.11327  0.04972  1.0000
  C   C402      1.0  0.80450  0.26369  0.08302  1.0000
  C   C403      1.0  0.76323  0.24727  0.00167  1.0000
  H   H324      1.0  0.85970  0.28231  0.07957  1.0000
  C   C404      1.0  0.67338  0.27160  0.05611  1.0000
  H   H325      1.0  0.81214  0.22973  0.02671  1.0000
  H   H326      1.0  0.72765  0.27677  0.05581  1.0000
  H   H327      1.0  0.80260  0.27326  0.09873  1.0000
  C   C405      1.0  0.77475  0.24669  0.07336  1.0000
  C   C406      1.0  0.70297  0.25958  0.05332  1.0000
  C   C407      1.0  0.66849  0.20542  0.04190  1.0000
  C   C408      1.0  0.70069  0.22630  0.04645  1.0000
  C   C409      1.0  0.74444  0.21597  0.01191  1.0000
  H   H328      1.0  0.86357  0.34810  0.06030  1.0000
  C   C410      1.0  0.82573  0.40750  0.97377  1.0000
  C   C411      1.0  0.73338  0.16798  0.05079  1.0000
  P   P13       1.0  0.83647  0.46589  0.99724  1.0000
  H   H329      1.0  0.57016  0.07572  0.01456  1.0000
  C   C412      1.0  0.71343  0.15595  0.06973  1.0000
  P   P14       1.0  0.73884  0.21186  0.04053  1.0000
  C   C413      1.0  0.83913  0.25633  0.05203  1.0000
  C   C414      1.0  0.84488  0.34515  0.04823  1.0000
  C   C415      1.0  0.49986  0.99378  0.08828  1.0000
  H   H330      1.0  0.54722  0.19469  0.99520  1.0000
  C   C416      1.0  0.77694  0.23529  0.05268  1.0000
  H   H331      1.0  0.78219  0.27494  0.97164  1.0000
  H   H332      1.0  0.73336  0.41549  0.04505  1.0000
  C   C417      1.0  0.80947  0.23945  0.04231  1.0000
  H   H333      1.0  0.66944  0.11622  0.03847  1.0000
  H   H334      1.0  0.61431  0.20195  0.04027  1.0000
  H   H335      1.0  0.61981  0.48284  0.98285  1.0000
  S   S64       1.0  0.66927  0.06088  0.98737  1.0000
  H   H336      1.0  0.80484  0.35367  0.06954  1.0000
  C   C418      1.0  0.61945  0.09951  0.02593  1.0000
  H   H337      1.0  0.75011  0.24252  0.08201  1.0000
  C   C419      1.0  0.75163  0.14661  0.04107  1.0000
  H   H338      1.0  0.61559  0.01097  0.05485  1.0000
  C   C420      1.0  0.73915  0.47866  0.00612  1.0000
  H   H339      1.0  0.62051  0.12438  0.01804  1.0000
  C   C421      1.0  0.78725  0.34417  0.03804  1.0000
  Fe  Fe30      1.0  0.91014  0.32408  0.98826  1.0000
  C   C422      1.0  0.79867  0.14612  0.97608  1.0000
  C   C423      1.0  0.86275  0.44806  0.01486  1.0000
  H   H340      1.0  0.66636  0.18031  0.03555  1.0000
  H   H341      1.0  0.98233  0.38849  0.05109  1.0000
  H   H342      1.0  0.67555  0.29767  0.06100  1.0000
  H   H343      1.0  0.58198  0.03272  0.98816  1.0000
  C   C424      1.0  0.54366  0.45403  0.02193  1.0000
  C   C425      1.0  0.57111  0.46374  0.03509  1.0000
  C   C426      1.0  0.63224  0.16956  0.98096  1.0000
  H   H344      1.0  0.66633  0.05950  0.05721  1.0000
  H   H345      1.0  0.89126  0.43021  0.98951  1.0000
  C   C427      1.0  0.58990  0.03903  0.03349  1.0000
  H   H346      1.0  0.54557  0.13721  0.98193  1.0000
  C   C428      1.0  0.64523  0.06304  0.04805  1.0000
  C   C429      1.0  0.76731  0.25081  0.97944  1.0000
  H   H347      1.0  0.92143  0.41202  0.05248  1.0000
  P   P15       1.0  0.55343  0.00286  0.03063  1.0000
  C   C430      1.0  0.59097  0.07170  0.02391  1.0000
  Fe  Fe31      1.0  0.64769  0.29811  0.99826  1.0000
  C   C431      1.0  0.84447  0.19934  0.97610  1.0000
  H   H348      1.0  0.61866  0.26056  0.05284  1.0000
  C   C432      1.0  0.63316  0.20264  0.98835  1.0000
  C   C433      1.0  0.53483  0.00395  0.00512  1.0000
  C   C434      1.0  0.74476  0.43471  0.03239  1.0000
  C   C435      1.0  0.79326  0.46217  0.00795  1.0000
  Fe  Fe32      1.0  0.70911  0.33618  0.97019  1.0000
  C   C436      1.0  0.88797  0.43274  0.00648  1.0000
  S   S65       1.0  0.76012  0.11918  0.98809  1.0000
  Fe  Fe33      1.0  0.66568  0.37680  0.99369  1.0000
  H   H349      1.0  0.69843  0.45158  0.02863  1.0000
  H   H350      1.0  0.58397  0.44461  0.04088  1.0000
  S   S66       1.0  0.65004  0.42727  0.99373  1.0000
  C   C437      1.0  0.90926  0.42021  0.02003  1.0000
  C   C438      1.0  0.77853  0.43774  0.02460  1.0000
  C   C439      1.0  0.57102  0.18791  0.99116  1.0000
  C   C440      1.0  0.72506  0.45507  0.02313  1.0000
  H   H351      1.0  0.82413  0.39317  0.98889  1.0000
  H   H352      1.0  0.85489  0.22415  0.98258  1.0000
  C   C441      1.0  0.90562  0.42284  0.04202  1.0000
  C   C442      1.0  0.77308  0.48213  0.99847  1.0000
  C   C443      1.0  0.88120  0.43880  0.05046  1.0000
  H   H353      1.0  0.59401  0.37218  0.98099  1.0000
  H   H354      1.0  0.79248  0.42017  0.03121  1.0000
  H   H355      1.0  0.53550  0.42755  0.01736  1.0000
  C   C444      1.0  0.52731  0.47868  0.01418  1.0000
  H   H356      1.0  0.65752  0.22081  0.99039  1.0000
  C   C445      1.0  0.73184  0.19274  0.97741  1.0000
  C   C446      1.0  0.61060  0.42740  0.98289  1.0000
  C   C447      1.0  0.60204  0.45896  0.97921  1.0000
  C   C448      1.0  0.58756  0.39661  0.97813  1.0000
  C   C449      1.0  0.57009  0.15533  0.98366  1.0000
  H   H357      1.0  0.50039  0.04119  0.03306  1.0000
  C   C450      1.0  0.60054  0.14603  0.97841  1.0000
  C   C451      1.0  0.83195  0.44360  0.97287  1.0000
  H   H358      1.0  0.50609  0.47110  0.00389  1.0000
  C   C452      1.0  0.50011  0.02744  0.04833  1.0000
  S   S67       1.0  0.65328  0.33582  0.97000  1.0000
  C   C453      1.0  0.57027  0.45972  0.97112  1.0000
  C   C454      1.0  0.55569  0.39739  0.97013  1.0000
  C   C455      1.0  0.83937  0.46757  0.48136  1.0000
  C   C456      1.0  0.73524  0.02795  0.58786  1.0000
  Fe  Fe34      1.0  0.65997  0.07565  0.47965  1.0000
  S   S68       1.0  0.63812  0.09205  0.50973  1.0000
  S   S69       1.0  0.71024  0.10528  0.46262  1.0000
  Fe  Fe35      1.0  0.62027  0.03525  0.51856  1.0000
  P   P16       1.0  0.67778  0.37127  0.63066  1.0000
  Fe  Fe36      1.0  0.58898  0.08344  0.49271  1.0000
  S   S70       1.0  0.55539  0.12056  0.49604  1.0000
  C   C457      1.0  0.97338  0.46442  0.45204  1.0000
  S   S71       1.0  0.61177  0.07122  0.46182  1.0000
  Fe  Fe37      1.0  0.68657  0.34925  0.52138  1.0000
  S   S72       1.0  0.67507  0.36222  0.48797  1.0000
  S   S73       1.0  0.74088  0.35982  0.53170  1.0000
  Fe  Fe38      1.0  0.61109  0.32262  0.53565  1.0000
  S   S74       1.0  0.59406  0.33367  0.50325  1.0000
  S   S75       1.0  0.56732  0.29933  0.55956  1.0000
  Fe  Fe39      1.0  0.63618  0.31100  0.49127  1.0000
  S   S76       1.0  0.63008  0.27442  0.46475  1.0000
  Fe  Fe40      1.0  0.63420  0.38353  0.50342  1.0000
  S   S77       1.0  0.62731  0.43497  0.49128  1.0000
  S   S78       1.0  0.65059  0.29615  0.52373  1.0000
  S   S79       1.0  0.64841  0.37456  0.53684  1.0000
  Fe  Fe41      1.0  0.88453  0.21524  0.49585  1.0000
  S   S80       1.0  0.85118  0.24619  0.51018  1.0000
  S   S81       1.0  0.86245  0.15806  0.49155  1.0000
  Fe  Fe42      1.0  0.94785  0.27741  0.49207  1.0000
  S   S82       1.0  0.91912  0.31302  0.50614  1.0000
  C   C458      1.0  0.51426  0.16512  0.56394  1.0000
  Fe  Fe43      1.0  0.89618  0.26870  0.52955  1.0000
  S   S83       1.0  0.88968  0.27667  0.56457  1.0000
  Fe  Fe44      1.0  0.87702  0.28783  0.48563  1.0000
  S   S84       1.0  0.84672  0.31826  0.46726  1.0000
  S   S85       1.0  0.92818  0.23432  0.51720  1.0000
  S   S86       1.0  0.90724  0.25516  0.46945  1.0000
  S   S87       1.0  0.50331  0.48824  0.41043  1.0000
  C   C459      1.0  0.60386  0.37771  0.58912  1.0000
  S   S88       1.0  0.65241  0.18628  0.61319  1.0000
  C   C460      1.0  0.56310  0.32596  0.43791  1.0000
  C   C461      1.0  0.52035  0.15970  0.61396  1.0000
  C   C462      1.0  0.77685  0.02978  0.52704  1.0000
  Fe  Fe45      1.0  0.70838  0.21246  0.61183  1.0000
  S   S89       1.0  0.72916  0.23335  0.57919  1.0000
  S   S90       1.0  0.56910  0.02765  0.50416  1.0000
  C   C463      1.0  0.56105  0.25368  0.61857  1.0000
  C   C464      1.0  0.84545  0.27020  0.57044  1.0000
  C   C465      1.0  0.83048  0.25595  0.59035  1.0000
  C   C466      1.0  0.79449  0.24506  0.59348  1.0000
  C   C467      1.0  0.77381  0.24873  0.57665  1.0000
  C   C468      1.0  0.78884  0.26562  0.55745  1.0000
  C   C469      1.0  0.82456  0.27653  0.55443  1.0000
  H   H359      1.0  0.84669  0.25166  0.60284  1.0000
  H   H360      1.0  0.78277  0.23285  0.60854  1.0000
  H   H361      1.0  0.77281  0.27044  0.54496  1.0000
  H   H362      1.0  0.83600  0.28975  0.53963  1.0000
  H   H363      1.0  0.80865  0.15063  0.42739  1.0000
  H   H364      1.0  0.87421  0.09871  0.59557  1.0000
  C   C470      1.0  0.57864  0.28151  0.58336  1.0000
  C   C471      1.0  0.61297  0.28320  0.58732  1.0000
  C   C472      1.0  0.62129  0.26968  0.60684  1.0000
  C   C473      1.0  0.51747  0.29868  0.48429  1.0000
  C   C474      1.0  0.59530  0.25523  0.62256  1.0000
  C   C475      1.0  0.55270  0.26632  0.59891  1.0000
  H   H365      1.0  0.63303  0.29479  0.57529  1.0000
  H   H366      1.0  0.64783  0.27079  0.60980  1.0000
  H   H367      1.0  0.67950  0.34166  0.58820  1.0000
  H   H368      1.0  0.52615  0.26493  0.59588  1.0000
  C   C476      1.0  0.58527  0.43277  0.48392  1.0000
  C   C477      1.0  0.57964  0.45586  0.46792  1.0000
  C   C478      1.0  0.52393  0.40680  0.48780  1.0000
  C   C479      1.0  0.55734  0.40833  0.49394  1.0000
  H   H369      1.0  0.51900  0.29345  0.51842  1.0000
  H   H370      1.0  0.56141  0.39082  0.50657  1.0000
  C   C480      1.0  0.77062  0.34957  0.51335  1.0000
  C   C481      1.0  0.80220  0.34586  0.52029  1.0000
  C   C482      1.0  0.82590  0.33679  0.50606  1.0000
  C   C483      1.0  0.81837  0.33202  0.48477  1.0000
  C   C484      1.0  0.78755  0.33721  0.47757  1.0000
  C   C485      1.0  0.76342  0.34533  0.49192  1.0000
  H   H371      1.0  0.80798  0.34915  0.53683  1.0000
  H   H372      1.0  0.84995  0.33336  0.51160  1.0000
  H   H373      1.0  0.78177  0.33359  0.46110  1.0000
  H   H374      1.0  0.73926  0.34803  0.48636  1.0000
  C   C486      1.0  0.62714  0.03270  0.57340  1.0000
  C   C487      1.0  0.63342  0.06886  0.57244  1.0000
  C   C488      1.0  0.63874  0.08697  0.59126  1.0000
  C   C489      1.0  0.63638  0.06868  0.61104  1.0000
  C   C490      1.0  0.62876  0.03257  0.61191  1.0000
  C   C491      1.0  0.62469  0.01473  0.59319  1.0000
  H   H375      1.0  0.63487  0.08290  0.55721  1.0000
  H   H376      1.0  0.64454  0.11492  0.59043  1.0000
  C   C492      1.0  0.87745  0.18811  0.59755  1.0000
  S   S91       1.0  0.64601  0.01914  0.48972  1.0000
  C   C493      1.0  0.74929  0.11895  0.47539  1.0000
  C   C494      1.0  0.76962  0.09577  0.47915  1.0000
  C   C495      1.0  0.80413  0.10804  0.48418  1.0000
  C   C496      1.0  0.81868  0.14358  0.48563  1.0000
  C   C497      1.0  0.79818  0.16670  0.48233  1.0000
  C   C498      1.0  0.76364  0.15440  0.47729  1.0000
  H   H377      1.0  0.75919  0.06851  0.47713  1.0000
  H   H378      1.0  0.81985  0.08996  0.48641  1.0000
  H   H379      1.0  0.80909  0.19415  0.48311  1.0000
  H   H380      1.0  0.74842  0.17261  0.47410  1.0000
  C   C499      1.0  0.57643  0.16326  0.48747  1.0000
  C   C500      1.0  0.59779  0.17003  0.46886  1.0000
  C   C501      1.0  0.61334  0.20428  0.46163  1.0000
  C   C502      1.0  0.60907  0.23180  0.47358  1.0000
  C   C503      1.0  0.58800  0.22506  0.49235  1.0000
  C   C504      1.0  0.57107  0.19084  0.49901  1.0000
  H   H381      1.0  0.60158  0.14883  0.45977  1.0000
  H   H382      1.0  0.62913  0.20941  0.44693  1.0000
  H   H383      1.0  0.58443  0.24619  0.50160  1.0000
  H   H384      1.0  0.55444  0.18570  0.51338  1.0000
  H   H385      1.0  0.54018  0.28918  0.48151  1.0000
  C   C505      1.0  0.82787  0.08944  0.57844  1.0000
  H   H386      1.0  0.55680  0.07879  0.59420  1.0000
  C   C506      1.0  0.95143  0.37070  0.45887  1.0000
  C   C507      1.0  0.93249  0.39493  0.45425  1.0000
  H   H387      1.0  0.90804  0.38324  0.50179  1.0000
  P   P17       1.0  0.93973  0.43440  0.46804  1.0000
  C   C508      1.0  0.95151  0.42723  0.49488  1.0000
  C   C509      1.0  0.60650  0.34516  0.62904  1.0000
  C   C510      1.0  0.88532  0.11027  0.56193  1.0000
  C   C511      1.0  0.75520  0.32177  0.59631  1.0000
  C   C512      1.0  0.75195  0.11520  0.54707  1.0000
  H   H388      1.0  0.68116  0.14688  0.55371  1.0000
  C   C513      1.0  0.72881  0.17444  0.53734  1.0000
  H   H389      1.0  0.55045  0.21531  0.55758  1.0000
  C   C514      1.0  0.93053  0.40018  0.50795  1.0000
  H   H390      1.0  0.96919  0.37452  0.47152  1.0000
  C   C515      1.0  0.52521  0.03185  0.55283  1.0000
  C   C516      1.0  0.83830  0.43287  0.47859  1.0000
  H   H391      1.0  0.86731  0.39580  0.47249  1.0000
  C   C517      1.0  0.84232  0.18243  0.56696  1.0000
  C   C518      1.0  0.87465  0.19005  0.57548  1.0000
  H   H392      1.0  0.78764  0.16898  0.57412  1.0000
  H   H393      1.0  0.84028  0.18608  0.54994  1.0000
  H   H394      1.0  0.89741  0.19966  0.56495  1.0000
  C   C519      1.0  0.54507  0.14655  0.60299  1.0000
  C   C520      1.0  0.67637  0.43999  0.63421  1.0000
  P   P18       1.0  0.54528  0.14375  0.57438  1.0000
  C   C521      1.0  0.53597  0.09940  0.56667  1.0000
  C   C522      1.0  0.52158  0.09104  0.54706  1.0000
  C   C523      1.0  0.58706  0.16679  0.56309  1.0000
  C   C524      1.0  0.60554  0.19630  0.57259  1.0000
  C   C525      1.0  0.63698  0.21555  0.56327  1.0000
  C   C526      1.0  0.64973  0.20599  0.54418  1.0000
  C   C527      1.0  0.63147  0.17681  0.53447  1.0000
  C   C528      1.0  0.60037  0.15700  0.54402  1.0000
  H   H395      1.0  0.79217  0.16343  0.61278  1.0000
  C   C529      1.0  0.53970  0.03987  0.57231  1.0000
  H   H396      1.0  0.59553  0.20470  0.58711  1.0000
  H   H397      1.0  0.65163  0.23797  0.57080  1.0000
  H   H398      1.0  0.67378  0.22136  0.53706  1.0000
  H   H399      1.0  0.64120  0.16967  0.51945  1.0000
  H   H400      1.0  0.58655  0.13461  0.53619  1.0000
  C   C530      1.0  0.72466  0.48921  0.62530  1.0000
  C   C531      1.0  0.94759  0.34127  0.44710  1.0000
  C   C532      1.0  0.74681  0.06348  0.58224  1.0000
  S   S92       1.0  0.62299  0.00859  0.55048  1.0000
  H   H401      1.0  0.65862  0.39624  0.58982  1.0000
  H   H402      1.0  0.82590  0.10134  0.52464  1.0000
  H   H403      1.0  0.72215  0.31654  0.57007  1.0000
  H   H404      1.0  0.68731  0.99378  0.45414  1.0000
  H   H405      1.0  0.79921  0.14394  0.52995  1.0000
  C   C533      1.0  0.69944  0.24703  0.49415  1.0000
  C   C534      1.0  0.72742  0.25600  0.50698  1.0000
  C   C535      1.0  0.76034  0.25665  0.49871  1.0000
  C   C536      1.0  0.76557  0.25010  0.47737  1.0000
  C   C537      1.0  0.73772  0.24247  0.46417  1.0000
  C   C538      1.0  0.70462  0.24048  0.47285  1.0000
  P   P19       1.0  0.74461  0.24038  0.43580  1.0000
  C   C539      1.0  0.74911  0.28311  0.42355  1.0000
  C   C540      1.0  0.78288  0.22530  0.43097  1.0000
  C   C541      1.0  0.81539  0.24865  0.43069  1.0000
  C   C542      1.0  0.84521  0.23681  0.42894  1.0000
  C   C543      1.0  0.84285  0.20151  0.42768  1.0000
  C   C544      1.0  0.81062  0.17813  0.42770  1.0000
  C   C545      1.0  0.78073  0.18994  0.42922  1.0000
  C   C546      1.0  0.76951  0.29374  0.40461  1.0000
  C   C547      1.0  0.77305  0.32690  0.39521  1.0000
  C   C548      1.0  0.75599  0.34951  0.40453  1.0000
  C   C549      1.0  0.73507  0.33885  0.42312  1.0000
  C   C550      1.0  0.73138  0.30572  0.43251  1.0000
  C   C551      1.0  0.70804  0.21082  0.42554  1.0000
  C   C552      1.0  0.69185  0.17997  0.43724  1.0000
  C   C553      1.0  0.66401  0.15665  0.42924  1.0000
  C   C554      1.0  0.65153  0.16419  0.40971  1.0000
  C   C555      1.0  0.66723  0.19505  0.39803  1.0000
  C   C556      1.0  0.69551  0.21825  0.40585  1.0000
  H   H406      1.0  0.67372  0.24608  0.50034  1.0000
  H   H407      1.0  0.72377  0.26292  0.52322  1.0000
  H   H408      1.0  0.78214  0.26383  0.50852  1.0000
  H   H409      1.0  0.79153  0.25230  0.47120  1.0000
  H   H410      1.0  0.68293  0.23537  0.46291  1.0000
  H   H411      1.0  0.81774  0.27589  0.43271  1.0000
  H   H412      1.0  0.87008  0.25496  0.42931  1.0000
  C   C557      1.0  0.75344  0.04448  0.53815  1.0000
  H   H413      1.0  0.81701  0.10834  0.62976  1.0000
  H   H414      1.0  0.75615  0.17108  0.43000  1.0000
  H   H415      1.0  0.78269  0.27643  0.39713  1.0000
  H   H416      1.0  0.78913  0.33508  0.38074  1.0000
  H   H417      1.0  0.75894  0.37528  0.39735  1.0000
  H   H418      1.0  0.72183  0.35626  0.43046  1.0000
  H   H419      1.0  0.71489  0.29810  0.44687  1.0000
  H   H420      1.0  0.70082  0.17375  0.45253  1.0000
  H   H421      1.0  0.65220  0.13270  0.43830  1.0000
  H   H422      1.0  0.62973  0.14607  0.40369  1.0000
  H   H423      1.0  0.70740  0.24189  0.39653  1.0000
  H   H424      1.0  0.81402  0.41341  0.48051  1.0000
  H   H425      1.0  0.71868  0.09446  0.62743  1.0000
  H   H426      1.0  0.60128  0.47452  0.46004  1.0000
  H   H427      1.0  0.65752  0.20093  0.38290  1.0000
  H   H428      1.0  0.50065  0.16804  0.60560  1.0000
  C   C558      1.0  0.81273  0.17234  0.58051  1.0000
  C   C559      1.0  0.86352  0.09926  0.58013  1.0000
  C   C560      1.0  0.49690  0.36443  0.42546  1.0000
  H   H429      1.0  0.96205  0.32252  0.45081  1.0000
  C   C561      1.0  0.61991  0.32874  0.42200  1.0000
  H   H430      1.0  0.56091  0.36597  0.45960  1.0000
  H   H431      1.0  0.62316  0.39314  0.45590  1.0000
  H   H432      1.0  0.74997  0.11491  0.59294  1.0000
  H   H433      1.0  0.88880  0.35594  0.41303  1.0000
  H   H434      1.0  0.59089  0.12807  0.60625  1.0000
  C   C562      1.0  0.61237  0.37083  0.44700  1.0000
  C   C563      1.0  0.93837  0.39471  0.52905  1.0000
  C   C564      1.0  0.54496  0.07342  0.57927  1.0000
  C   C565      1.0  0.70628  0.34926  0.61754  1.0000
  H   H435      1.0  0.88821  0.11993  0.52779  1.0000
  C   C566      1.0  0.71758  0.01660  0.60753  1.0000
  C   C567      1.0  0.52414  0.20028  0.55706  1.0000
  H   H436      1.0  0.55470  0.25419  0.45089  1.0000
  C   C568      1.0  0.57713  0.35523  0.44915  1.0000
  H   H437      1.0  0.66121  0.36895  0.43254  1.0000
  C   C569      1.0  0.69665  0.41735  0.62879  1.0000
  C   C570      1.0  0.57084  0.13712  0.61441  1.0000
  C   C571      1.0  0.73099  0.43107  0.62135  1.0000
  C   C572      1.0  0.63381  0.35737  0.43365  1.0000
  H   H438      1.0  0.51412  0.45392  0.52054  1.0000
  C   C573      1.0  0.58460  0.31332  0.42390  1.0000
  H   H439      1.0  0.92234  0.37330  0.53891  1.0000
  H   H440      1.0  0.77452  0.31217  0.58782  1.0000
  H   H441      1.0  0.51572  0.11078  0.53658  1.0000
  H   H442      1.0  0.54009  0.19104  0.44882  1.0000
  Fe  Fe46      1.0  0.59581  0.01578  0.47458  1.0000
  P   P20       1.0  0.51748  0.30657  0.44030  1.0000
  H   H443      1.0  0.91289  0.11852  0.56322  1.0000
  C   C574      1.0  0.51829  0.42976  0.47172  1.0000
  H   H444      1.0  0.62665  0.01830  0.62712  1.0000
  H   H445      1.0  0.86592  0.19218  0.42722  1.0000
  C   C575      1.0  0.72584  0.32484  0.58618  1.0000
  C   C576      1.0  0.52265  0.20562  0.44291  1.0000
  C   C577      1.0  0.97978  0.44961  0.50344  1.0000
  C   C578      1.0  0.53095  0.24157  0.44391  1.0000
  H   H446      1.0  0.93949  0.49077  0.43626  1.0000
  H   H447      1.0  0.69935  0.04119  0.54483  1.0000
  H   H448      1.0  0.80419  0.03906  0.52841  1.0000
  C   C579      1.0  0.96700  0.41657  0.53732  1.0000
  H   H449      1.0  0.90258  0.19669  0.60382  1.0000
  C   C580      1.0  0.54617  0.45432  0.46177  1.0000
  C   C581      1.0  0.86863  0.42299  0.47391  1.0000
  H   H450      1.0  0.50388  0.37496  0.44069  1.0000
  H   H451      1.0  0.77880  0.19546  0.52196  1.0000
  C   C582      1.0  0.70157  0.33890  0.59662  1.0000
  C   C583      1.0  0.90134  0.48251  0.47513  1.0000
  H   H452      1.0  0.78215  0.32791  0.62517  1.0000
  C   C584      1.0  0.76498  0.00226  0.51404  1.0000
  H   H453      1.0  0.81580  0.47502  0.48522  1.0000
  C   C585      1.0  0.74156  0.08740  0.59692  1.0000
  H   H454      1.0  0.57226  0.49044  0.51257  1.0000
  C   C586      1.0  0.98757  0.44412  0.52456  1.0000
  H   H455      1.0  0.72046  0.19770  0.53423  1.0000
  C   C587      1.0  0.72397  0.07593  0.61655  1.0000
  C   C588      1.0  0.70682  0.14587  0.54838  1.0000
  H   H456      1.0  0.73905  0.00894  0.57692  1.0000
  C   C589      1.0  0.71821  0.11628  0.55302  1.0000
  C   C590      1.0  0.84781  0.17728  0.61123  1.0000
  C   C591      1.0  0.57367  0.35823  0.59982  1.0000
  C   C592      1.0  0.90034  0.44782  0.47176  1.0000
  H   H457      1.0  0.70097  0.09465  0.56185  1.0000
  C   C593      1.0  0.77338  0.14364  0.53523  1.0000
  C   C594      1.0  0.81369  0.09028  0.55843  1.0000
  C   C595      1.0  0.83596  0.10076  0.54025  1.0000
  H   H458      1.0  0.81161  0.08151  0.59280  1.0000
  H   H459      1.0  0.60283  0.38933  0.57336  1.0000
  H   H460      1.0  0.57428  0.29124  0.41470  1.0000
  C   C596      1.0  0.87150  0.11100  0.54199  1.0000
  C   C597      1.0  0.49992  0.21675  0.54937  1.0000
  C   C598      1.0  0.63703  0.36470  0.61838  1.0000
  H   H461      1.0  0.63662  0.31796  0.41192  1.0000
  P   P21       1.0  0.76744  0.07852  0.55621  1.0000
  C   C599      1.0  0.57163  0.14023  0.63642  1.0000
  C   C600      1.0  0.76190  0.17323  0.53060  1.0000
  H   H462      1.0  0.54192  0.47194  0.44928  1.0000
  C   C601      1.0  0.90658  0.36027  0.42565  1.0000
  H   H463      1.0  0.67044  0.49024  0.52325  1.0000
  H   H464      1.0  0.50240  0.38803  0.49567  1.0000
  C   C602      1.0  0.70633  0.00249  0.52389  1.0000
  H   H465      1.0  0.54946  0.35443  0.59221  1.0000
  C   C603      1.0  0.49326  0.31953  0.40043  1.0000
  C   C604      1.0  0.87089  0.49239  0.47965  1.0000
  C   C605      1.0  0.63541  0.38117  0.59840  1.0000
  C   C606      1.0  0.49163  0.18844  0.43479  1.0000
  C   C607      1.0  0.74490  0.46686  0.61967  1.0000
  H   H466      1.0  0.49764  0.29507  0.39603  1.0000
  H   H467      1.0  0.89617  0.13738  0.62455  1.0000
  H   H468      1.0  0.54783  0.02031  0.58175  1.0000
  C   C608      1.0  0.50082  0.30929  0.46707  1.0000
  Fe  Fe47      1.0  0.66579  0.14669  0.63481  1.0000
  C   C609      1.0  0.57498  0.34218  0.61982  1.0000
  C   C610      1.0  0.51756  0.48024  0.51413  1.0000
  C   C611      1.0  0.50519  0.30055  0.50521  1.0000
  C   C612      1.0  0.51605  0.05742  0.54024  1.0000
  C   C613      1.0  0.52154  0.16330  0.63595  1.0000
  C   C614      1.0  0.71806  0.03074  0.53628  1.0000
  C   C615      1.0  0.81542  0.16951  0.60254  1.0000
  H   H469      1.0  0.92153  0.31265  0.42191  1.0000
  C   C616      1.0  0.75966  0.33112  0.61729  1.0000
  H   H470      1.0  0.97335  0.41198  0.55357  1.0000
  H   H471      1.0  0.89662  0.40886  0.43295  1.0000
  H   H472      1.0  0.52199  0.00608  0.54720  1.0000
  H   H473      1.0  0.50798  0.24387  0.54418  1.0000
  C   C617      1.0  0.92494  0.33585  0.43066  1.0000
  C   C618      1.0  0.91072  0.38999  0.43719  1.0000
  C   C619      1.0  0.71176  0.04058  0.62180  1.0000
  C   C620      1.0  0.50847  0.26077  0.43647  1.0000
  H   H474      1.0  0.50591  0.05164  0.52476  1.0000
  H   H475      1.0  0.74708  0.41438  0.61658  1.0000
  C   C621      1.0  0.96567  0.48888  0.43763  1.0000
  H   H476      1.0  0.77138  0.47723  0.61383  1.0000
  C   C622      1.0  0.73525  0.34474  0.62793  1.0000
  H   H477      1.0  0.55169  0.32618  0.62781  1.0000
  S   S93       1.0  0.64293  0.08931  0.63521  1.0000
  S   S94       1.0  0.72254  0.17009  0.63112  1.0000
  C   C623      1.0  0.69038  0.47577  0.63254  1.0000
  H   H478      1.0  0.54095  0.24243  0.63063  1.0000
  C   C624      1.0  0.50032  0.33137  0.42085  1.0000
  S   S95       1.0  0.63720  0.03826  0.94164  1.0000
  S   S96       1.0  0.69180  0.11476  0.94434  1.0000
  Fe  Fe48      1.0  0.68834  0.06690  0.92642  1.0000
  S   S97       1.0  0.69675  0.06206  0.89121  1.0000
  C   C625      1.0  0.73884  0.14551  0.74794  1.0000
  Fe  Fe49      1.0  0.66728  0.01733  0.96565  1.0000
  C   C626      1.0  0.65096  0.22392  0.93258  1.0000
  Fe  Fe50      1.0  0.90853  0.34065  0.94095  1.0000
  S   S98       1.0  0.88464  0.36919  0.91670  1.0000
  S   S99       1.0  0.94686  0.31061  0.93251  1.0000
  C   C627      1.0  0.83974  0.28947  0.65025  1.0000
  S   S100      1.0  0.74622  0.33679  0.94247  1.0000
  C   C628      1.0  0.71198  0.09790  0.77313  1.0000
  Fe  Fe51      1.0  0.78941  0.28920  0.82295  1.0000
  S   S101      1.0  0.76583  0.33139  0.81139  1.0000
  S   S102      1.0  0.84486  0.29739  0.83066  1.0000
  Fe  Fe52      1.0  0.72500  0.23237  0.81754  1.0000
  S   S103      1.0  0.69592  0.26967  0.80532  1.0000
  S   S104      1.0  0.70095  0.17531  0.81690  1.0000
  Fe  Fe53      1.0  0.74449  0.29548  0.78614  1.0000
  S   S105      1.0  0.74274  0.31598  0.75231  1.0000
  Fe  Fe54      1.0  0.71959  0.30211  0.83145  1.0000
  S   S106      1.0  0.68736  0.32858  0.85130  1.0000
  S   S107      1.0  0.77174  0.25546  0.79606  1.0000
  S   S108      1.0  0.74484  0.26260  0.84540  1.0000
  Fe  Fe55      1.0  0.71393  0.20071  0.65905  1.0000
  S   S109      1.0  0.74791  0.20229  0.68664  1.0000
  C   C629      1.0  0.74708  0.28647  0.73312  1.0000
  C   C630      1.0  0.76473  0.26115  0.73738  1.0000
  C   C631      1.0  0.76582  0.23617  0.72263  1.0000
  C   C632      1.0  0.74848  0.23579  0.70380  1.0000
  C   C633      1.0  0.73177  0.26178  0.69913  1.0000
  C   C634      1.0  0.73168  0.28749  0.71363  1.0000
  H   H479      1.0  0.77782  0.26095  0.75193  1.0000
  H   H480      1.0  0.77975  0.21685  0.72598  1.0000
  H   H481      1.0  0.71866  0.26190  0.68451  1.0000
  H   H482      1.0  0.71874  0.30751  0.71009  1.0000
  C   C635      1.0  0.72955  0.33651  0.91725  1.0000
  C   C636      1.0  0.75148  0.33715  0.89933  1.0000
  C   C637      1.0  0.73849  0.33463  0.87902  1.0000
  C   C638      1.0  0.70372  0.33266  0.87658  1.0000
  C   C639      1.0  0.68206  0.33369  0.89440  1.0000
  C   C640      1.0  0.69489  0.33511  0.91477  1.0000
  H   H483      1.0  0.77840  0.33888  0.90124  1.0000
  H   H484      1.0  0.75543  0.33433  0.86525  1.0000
  H   H485      1.0  0.65524  0.33261  0.89260  1.0000
  H   H486      1.0  0.67791  0.33489  0.92847  1.0000
  H   H487      1.0  0.65903  0.45180  0.94502  1.0000
  H   H488      1.0  0.95507  0.25094  0.90180  1.0000
  H   H489      1.0  0.64363  0.04799  0.73841  1.0000
  H   H490      1.0  0.54871  0.15730  0.66408  1.0000
  C   C641      1.0  0.87214  0.34714  0.89362  1.0000
  C   C642      1.0  0.84776  0.35698  0.88118  1.0000
  C   C643      1.0  0.83862  0.34122  0.86206  1.0000
  C   C644      1.0  0.85456  0.31607  0.85507  1.0000
  C   C645      1.0  0.87893  0.30610  0.86749  1.0000
  C   C646      1.0  0.88727  0.32118  0.88693  1.0000
  H   H491      1.0  0.83572  0.37660  0.88650  1.0000
  H   H492      1.0  0.81962  0.34883  0.85261  1.0000
  H   H493      1.0  0.89111  0.28644  0.86222  1.0000
  H   H494      1.0  0.90598  0.31330  0.89642  1.0000
  H   H495      1.0  0.66095  0.30108  0.64954  1.0000
  C   C647      1.0  0.69857  0.09556  0.87175  1.0000
  C   C648      1.0  0.70483  0.13061  0.87626  1.0000
  C   C649      1.0  0.70637  0.15598  0.85958  1.0000
  C   C650      1.0  0.70081  0.14596  0.83864  1.0000
  C   C651      1.0  0.69440  0.11098  0.83445  1.0000
  C   C652      1.0  0.69375  0.08608  0.85080  1.0000
  H   H496      1.0  0.70847  0.13811  0.89247  1.0000
  H   H497      1.0  0.71126  0.18299  0.86298  1.0000
  H   H498      1.0  0.69034  0.10300  0.81840  1.0000
  H   H499      1.0  0.68907  0.05913  0.84722  1.0000
  H   H500      1.0  0.76603  0.13028  0.69937  1.0000
  C   C653      1.0  0.84810  0.35735  0.77895  1.0000
  P   P22       1.0  0.64291  0.42988  0.90181  1.0000
  C   C654      1.0  0.65650  0.43733  0.87380  1.0000
  H   H501      1.0  0.64155  0.01624  0.70548  1.0000
  C   C655      1.0  0.83229  0.46152  0.95311  1.0000
  C   C656      1.0  0.70909  0.12206  0.75689  1.0000
  C   C657      1.0  0.88487  0.42684  0.77687  1.0000
  C   C658      1.0  0.90376  0.18752  0.66736  1.0000
  H   H502      1.0  0.84094  0.36283  0.81248  1.0000
  S   S110      1.0  0.87552  0.29913  0.96334  1.0000
  H   H503      1.0  0.89155  0.42099  0.74314  1.0000
  C   C659      1.0  0.66498  0.16539  0.74060  1.0000
  C   C660      1.0  0.64601  0.17306  0.72364  1.0000
  C   C661      1.0  0.64287  0.20678  0.71969  1.0000
  C   C662      1.0  0.65786  0.23277  0.73300  1.0000
  C   C663      1.0  0.67599  0.22510  0.75022  1.0000
  C   C664      1.0  0.67953  0.19155  0.75407  1.0000
  H   H504      1.0  0.63367  0.15310  0.71344  1.0000
  H   H505      1.0  0.62891  0.21277  0.70627  1.0000
  H   H506      1.0  0.65578  0.25895  0.72993  1.0000
  H   H507      1.0  0.68775  0.24535  0.76043  1.0000
  H   H508      1.0  0.79373  0.16425  0.74886  1.0000
  H   H509      1.0  0.73710  0.16367  0.73499  1.0000
  C   C665      1.0  0.83021  0.42618  0.83286  1.0000
  C   C666      1.0  0.61218  0.36984  0.92674  1.0000
  H   H510      1.0  0.80504  0.42032  0.80292  1.0000
  H   H511      1.0  0.66495  0.04763  0.67097  1.0000
  C   C667      1.0  0.61577  0.15200  0.87780  1.0000
  H   H512      1.0  0.59375  0.08190  0.92431  1.0000
  H   H513      1.0  0.61155  0.30718  0.85469  1.0000
  H   H514      1.0  0.49506  0.00329  0.94982  1.0000
  C   C668      1.0  0.94420  0.39925  0.86793  1.0000
  C   C669      1.0  0.93422  0.38005  0.85024  1.0000
  C   C670      1.0  0.76312  0.41158  0.85157  1.0000
  H   H515      1.0  0.74640  0.40680  0.81960  1.0000
  H   H516      1.0  0.90483  0.46392  0.85876  1.0000
  C   C671      1.0  0.71052  0.25264  0.92383  1.0000
  H   H517      1.0  0.68953  0.07888  0.77987  1.0000
  H   H518      1.0  0.62721  0.38183  0.93951  1.0000
  H   H519      1.0  0.89469  0.30551  0.64441  1.0000
  H   H520      1.0  0.54854  0.05800  0.76808  1.0000
  C   C672      1.0  0.85221  0.37573  0.79743  1.0000
  H   H521      1.0  0.90448  0.37427  0.82274  1.0000
  H   H522      1.0  0.59704  0.08119  0.74178  1.0000
  C   C673      1.0  0.51927  0.21099  0.95383  1.0000
  C   C674      1.0  0.67356  0.41575  0.84055  1.0000
  H   H523      1.0  0.78719  0.41642  0.88152  1.0000
  Fe  Fe56      1.0  0.71806  0.08866  0.96859  1.0000
  C   C675      1.0  0.87223  0.28382  0.64598  1.0000
  C   C676      1.0  0.67381  0.37644  0.67497  1.0000
  C   C677      1.0  0.66801  0.36261  0.69601  1.0000
  C   C678      1.0  0.65933  0.32681  0.70023  1.0000
  C   C679      1.0  0.91283  0.39048  0.83577  1.0000
  C   C680      1.0  0.66300  0.31850  0.66242  1.0000
  H   H524      1.0  0.81165  0.17598  0.68069  1.0000
  C   C681      1.0  0.57683  0.07838  0.79495  1.0000
  C   C682      1.0  0.73639  0.43225  0.94231  1.0000
  C   C683      1.0  0.59357  0.37152  0.89070  1.0000
  C   C684      1.0  0.80316  0.15137  0.67352  1.0000
  H   H525      1.0  0.83952  0.49086  0.81299  1.0000
  H   H526      1.0  0.64968  0.42988  0.63969  1.0000
  H   H527      1.0  0.67039  0.37961  0.70911  1.0000
  H   H528      1.0  0.65498  0.31625  0.71655  1.0000
  P   P23       1.0  0.85053  0.17923  0.63968  1.0000
  C   C685      1.0  0.65698  0.30475  0.68343  1.0000
  C   C686      1.0  0.93368  0.42954  0.87084  1.0000
  S   S111      1.0  0.90227  0.21427  0.94867  1.0000
  C   C687      1.0  0.79897  0.26993  0.89301  1.0000
  C   C688      1.0  0.80401  0.27243  0.91478  1.0000
  C   C689      1.0  0.81751  0.24808  0.92563  1.0000
  C   C690      1.0  0.82678  0.22198  0.91462  1.0000
  C   C691      1.0  0.82377  0.22056  0.89257  1.0000
  C   C692      1.0  0.80902  0.24425  0.88187  1.0000
  P   P24       1.0  0.84085  0.18972  0.87841  1.0000
  C   C693      1.0  0.88736  0.20215  0.87710  1.0000
  C   C694      1.0  0.82479  0.14811  0.89238  1.0000
  C   C695      1.0  0.84559  0.12485  0.89462  1.0000
  C   C696      1.0  0.83213  0.09212  0.90477  1.0000
  C   C697      1.0  0.79789  0.08246  0.91265  1.0000
  C   C698      1.0  0.77732  0.10575  0.91074  1.0000
  C   C699      1.0  0.79067  0.13846  0.90075  1.0000
  C   C700      1.0  0.90580  0.18821  0.86185  1.0000
  C   C701      1.0  0.73616  0.42078  0.92171  1.0000
  H   H529      1.0  0.59177  0.13299  0.64502  1.0000
  C   C702      1.0  0.94146  0.23376  0.89040  1.0000
  C   C703      1.0  0.90556  0.22523  0.89127  1.0000
  C   C704      1.0  0.82659  0.18743  0.85157  1.0000
  C   C705      1.0  0.84387  0.21239  0.83585  1.0000
  C   C706      1.0  0.83268  0.21177  0.81512  1.0000
  C   C707      1.0  0.80429  0.18605  0.80989  1.0000
  C   C708      1.0  0.78726  0.16076  0.82533  1.0000
  C   C709      1.0  0.79813  0.16149  0.84616  1.0000
  H   H530      1.0  0.78844  0.28864  0.88454  1.0000
  H   H531      1.0  0.79767  0.29332  0.92321  1.0000
  H   H532      1.0  0.82134  0.24956  0.94253  1.0000
  H   H533      1.0  0.83770  0.20365  0.92308  1.0000
  H   H534      1.0  0.80619  0.24373  0.86487  1.0000
  H   H535      1.0  0.87216  0.13186  0.88871  1.0000
  H   H536      1.0  0.69413  0.14262  0.70236  1.0000
  H   H537      1.0  0.75090  0.09849  0.91692  1.0000
  H   H538      1.0  0.77415  0.15600  0.89929  1.0000
  H   H539      1.0  0.89231  0.17027  0.85082  1.0000
  C   C710      1.0  0.70834  0.42093  0.90916  1.0000
  H   H540      1.0  0.98741  0.22623  0.87475  1.0000
  H   H541      1.0  0.70824  0.41058  0.89361  1.0000
  H   H542      1.0  0.89245  0.23659  0.90323  1.0000
  H   H543      1.0  0.86537  0.23308  0.83978  1.0000
  H   H544      1.0  0.84533  0.23208  0.80338  1.0000
  H   H545      1.0  0.79479  0.18635  0.79406  1.0000
  H   H546      1.0  0.76494  0.14118  0.82131  1.0000
  H   H547      1.0  0.78382  0.14212  0.85792  1.0000
  H   H548      1.0  0.55538  0.06859  0.80645  1.0000
  H   H549      1.0  0.66092  0.38508  0.86987  1.0000
  H   H550      1.0  0.69349  0.18611  0.76763  1.0000
  H   H551      1.0  0.83702  0.31541  0.65234  1.0000
  H   H552      1.0  0.86305  0.14664  0.93896  1.0000
  C   C711      1.0  0.87048  0.41059  0.79656  1.0000
  H   H553      1.0  0.62360  0.27623  0.88700  1.0000
  H   H554      1.0  0.89068  0.20371  0.67609  1.0000
  H   H555      1.0  0.63069  0.21282  0.94455  1.0000
  H   H556      1.0  0.72013  0.17147  0.96803  1.0000
  H   H557      1.0  0.89895  0.45373  0.77566  1.0000
  C   C712      1.0  0.50605  0.00353  0.96524  1.0000
  H   H558      1.0  0.95580  0.18602  0.84920  1.0000
  C   C713      1.0  0.66345  0.41039  0.86221  1.0000
  C   C714      1.0  0.77096  0.14568  0.75565  1.0000
  H   H559      1.0  0.61560  0.06792  0.88914  1.0000
  H   H560      1.0  0.74607  0.08017  0.79388  1.0000
  H   H561      1.0  0.57330  0.27559  0.82828  1.0000
  H   H562      1.0  0.94293  0.47798  0.81315  1.0000
  H   H563      1.0  0.55623  0.03361  0.95352  1.0000
  C   C715      1.0  0.90162  0.42062  0.83875  1.0000
  H   H564      1.0  0.66778  0.23425  0.87875  1.0000
  H   H565      1.0  0.68838  0.24111  0.95583  1.0000
  C   C716      1.0  0.65290  0.04385  0.70489  1.0000
  H   H566      1.0  0.69216  0.11049  0.66976  1.0000
  H   H567      1.0  0.55876  0.18132  0.86693  1.0000
  C   C717      1.0  0.63271  0.10324  0.76531  1.0000
  C   C718      1.0  0.80168  0.42014  0.82010  1.0000
  C   C719      1.0  0.68082  0.44407  0.93799  1.0000
  C   C720      1.0  0.89050  0.17275  0.64869  1.0000
  C   C721      1.0  0.63572  0.11061  0.78683  1.0000
  C   C722      1.0  0.62038  0.46152  0.90987  1.0000
  C   C723      1.0  0.51392  0.18259  0.94107  1.0000
  C   C724      1.0  0.67181  0.23566  0.89564  1.0000
  C   C725      1.0  0.64445  0.22339  0.91085  1.0000
  H   H568      1.0  0.50305  0.17437  0.64423  1.0000
  H   H569      1.0  0.62970  0.11283  0.85946  1.0000
  C   C726      1.0  0.68219  0.11511  0.70325  1.0000
  C   C727      1.0  0.60688  0.26208  0.87566  1.0000
  C   C728      1.0  0.74410  0.09827  0.78095  1.0000
  C   C729      1.0  0.77358  0.12215  0.77222  1.0000
  C   C730      1.0  0.57306  0.07228  0.77336  1.0000
  H   H570      1.0  0.79840  0.12255  0.77839  1.0000
  C   C731      1.0  0.70895  0.44428  0.95033  1.0000
  Fe  Fe57      1.0  0.91589  0.27053  0.95670  1.0000
  C   C732      1.0  0.91292  0.44049  0.85616  1.0000
  P   P25       1.0  0.66810  0.12179  0.74633  1.0000
  C   C733      1.0  0.66726  0.09800  0.72259  1.0000
  S   S112      1.0  0.60521  0.23909  0.64727  1.0000
  C   C734      1.0  0.81399  0.22823  0.64840  1.0000
  C   C735      1.0  0.58962  0.33714  0.93073  1.0000
  C   C736      1.0  0.76832  0.41278  0.82945  1.0000
  C   C737      1.0  0.65371  0.06200  0.72346  1.0000
  H   H571      1.0  0.65935  0.12668  0.79211  1.0000
  C   C738      1.0  0.60076  0.08509  0.75852  1.0000
  H   H572      1.0  0.68058  0.40419  0.67211  1.0000
  H   H573      1.0  0.50034  0.21230  0.96633  1.0000
  C   C739      1.0  0.79128  0.41819  0.86435  1.0000
  C   C740      1.0  0.70472  0.25028  0.90219  1.0000
  H   H574      1.0  0.72561  0.26049  0.89050  1.0000
  H   H575      1.0  0.73565  0.26535  0.92884  1.0000
  C   C741      1.0  0.68374  0.23929  0.93904  1.0000
  H   H576      1.0  0.90086  0.24654  0.63915  1.0000
  P   P26       1.0  0.87320  0.43417  0.82054  1.0000
  C   C742      1.0  0.57054  0.20874  0.86433  1.0000
  C   C743      1.0  0.59290  0.22635  0.87900  1.0000
  P   P27       1.0  0.60216  0.20370  0.90251  1.0000
  H   H577      1.0  0.95906  0.38999  0.87979  1.0000
  H   H578      1.0  0.79104  0.20726  0.64854  1.0000
  H   H579      1.0  0.58778  0.14053  0.93014  1.0000
  C   C744      1.0  0.60328  0.15995  0.89764  1.0000
  H   H580      1.0  0.78731  0.05712  0.92047  1.0000
  C   C745      1.0  0.57831  0.26192  0.84256  1.0000
  C   C746      1.0  0.84897  0.15559  0.95159  1.0000
  H   H581      1.0  0.54672  0.21267  0.83459  1.0000
  H   H582      1.0  0.62391  0.17176  0.86498  1.0000
  H   H583      1.0  0.67859  0.39457  0.83180  1.0000
  C   C747      1.0  0.87566  0.25029  0.64318  1.0000
  C   C748      1.0  0.60811  0.09782  0.80165  1.0000
  C   C749      1.0  0.67709  0.44817  0.83024  1.0000
  H   H584      1.0  0.97416  0.15505  0.67013  1.0000
  C   C750      1.0  0.59979  0.27974  0.85743  1.0000
  H   H585      1.0  0.75718  0.43056  0.95236  1.0000
  C   C751      1.0  0.56349  0.22646  0.84608  1.0000
  C   C752      1.0  0.61932  0.11864  0.87462  1.0000
  C   C753      1.0  0.82185  0.38965  0.95512  1.0000
  H   H586      1.0  0.53438  0.15824  0.91565  1.0000
  H   H587      1.0  0.68488  0.45224  0.81343  1.0000
  C   C754      1.0  0.82813  0.44352  0.93443  1.0000
  C   C755      1.0  0.88071  0.40837  0.75835  1.0000
  H   H588      1.0  0.55176  0.29624  0.91781  1.0000
  C   C756      1.0  0.88957  0.47993  0.81422  1.0000
  C   C757      1.0  0.77750  0.12530  0.68430  1.0000
  C   C758      1.0  0.56960  0.20653  0.92253  1.0000
  C   C759      1.0  0.61484  0.38699  0.90657  1.0000
  C   C760      1.0  0.80606  0.11340  0.64492  1.0000
  C   C761      1.0  0.59928  0.10120  0.91117  1.0000
  C   C762      1.0  0.86219  0.37368  0.75938  1.0000
  C   C763      1.0  0.54721  0.15364  0.64717  1.0000
  H   H589      1.0  0.85852  0.35942  0.74505  1.0000
  H   H590      1.0  0.55517  0.32672  0.88233  1.0000
  H   H591      1.0  0.73724  0.40461  0.85880  1.0000
  S   S113      1.0  0.71862  0.04297  0.94920  1.0000
  C   C764      1.0  0.57424  0.23555  0.93494  1.0000
  H   H592      1.0  0.59736  0.25644  0.93276  1.0000
  S   S114      1.0  0.59698  0.10438  0.96925  1.0000
  C   C765      1.0  0.67033  0.47522  0.84160  1.0000
  C   C766      1.0  0.78077  0.08717  0.65591  1.0000
  H   H593      1.0  0.59394  0.38486  0.87532  1.0000
  H   H594      1.0  0.84824  0.07430  0.90663  1.0000
  C   C767      1.0  0.59560  0.13447  0.91439  1.0000
  H   H595      1.0  0.83367  0.33045  0.77985  1.0000
  C   C768      1.0  0.56937  0.32146  0.91466  1.0000
  C   C769      1.0  0.54680  0.42891  0.96686  1.0000
  C   C770      1.0  0.82469  0.42575  0.85507  1.0000
  H   H596      1.0  0.94165  0.35607  0.84829  1.0000
  C   C771      1.0  0.53890  0.18043  0.92538  1.0000
  C   C772      1.0  0.93398  0.18134  0.67496  1.0000
  C   C773      1.0  0.54940  0.23746  0.95075  1.0000
  H   H597      1.0  0.94428  0.19312  0.68925  1.0000
  C   C774      1.0  0.68034  0.43253  0.91721  1.0000
  H   H598      1.0  0.58760  0.32418  0.94640  1.0000
  H   H599      1.0  0.82872  0.45724  0.91915  1.0000
  H   H600      1.0  0.53922  0.47075  0.91922  1.0000
  S   S115      1.0  0.65817  0.17386  0.66436  1.0000
  H   H601      1.0  0.65049  0.27694  0.68656  1.0000
  C   C775      1.0  0.66005  0.46986  0.86328  1.0000
  C   C776      1.0  0.68146  0.09690  0.68476  1.0000
  C   C777      1.0  0.82295  0.40759  0.93547  1.0000
  C   C778      1.0  0.57129  0.33867  0.89467  1.0000
  C   C779      1.0  0.95958  0.21970  0.87524  1.0000
  H   H602      1.0  0.74638  0.07309  0.68391  1.0000
  H   H603      1.0  0.56934  0.42699  0.90959  1.0000
  H   H604      1.0  0.81962  0.39333  0.92116  1.0000
  H   H605      1.0  0.80653  0.10987  0.95341  1.0000
  C   C780      1.0  0.66638  0.06139  0.68550  1.0000
  H   H606      1.0  0.77224  0.06223  0.64916  1.0000
  H   H607      1.0  0.55397  0.25905  0.96102  1.0000
  C   C781      1.0  0.84655  0.22213  0.64481  1.0000
  C   C782      1.0  0.94176  0.19702  0.86091  1.0000
  H   H608      1.0  0.61101  0.10345  0.81827  1.0000
  H   H609      1.0  0.84588  0.43021  0.86540  1.0000
  C   C783      1.0  0.76630  0.09321  0.67552  1.0000
  H   H610      1.0  0.94074  0.44383  0.88489  1.0000
  H   H611      1.0  0.75682  0.41011  0.91592  1.0000
  C   C784      1.0  0.61134  0.09331  0.89134  1.0000
  C   C785      1.0  0.81679  0.13495  0.95953  1.0000
  C   C786      1.0  0.81707  0.14587  0.65352  1.0000
  C   C787      1.0  0.86277  0.18801  0.95973  1.0000
  C   C788      1.0  0.81063  0.26167  0.65142  1.0000
  H   H612      1.0  0.73931  0.35236  0.64410  1.0000
  Fe  Fe58      1.0  0.64989  0.21590  0.64217  1.0000
  C   C789      1.0  0.67102  0.35440  0.65801  1.0000
  C   C790      1.0  0.95074  0.15982  0.66422  1.0000
  C   C791      1.0  0.93706  0.14412  0.64602  1.0000
  C   C792      1.0  0.58434  0.45290  0.91196  1.0000
  C   C793      1.0  0.54048  0.02052  0.96729  1.0000
  Fe  Fe59      1.0  0.64341  0.08419  0.96187  1.0000
  C   C794      1.0  0.56701  0.47781  0.91740  1.0000
  H   H613      1.0  0.75578  0.22521  0.95020  1.0000
  H   H614      1.0  0.78531  0.26592  0.65447  1.0000
  H   H615      1.0  0.60673  0.33166  0.64428  1.0000
  H   H616      1.0  0.70883  0.45239  0.96650  1.0000
  H   H617      1.0  0.56379  0.48411  0.96851  1.0000
  C   C795      1.0  0.75208  0.22321  0.96735  1.0000
  S   S116      1.0  0.70515  0.24565  0.63929  1.0000
  S   S117      1.0  0.93937  0.36882  0.96664  1.0000
  H   H618      1.0  0.81769  0.36175  0.95585  1.0000
  H   H619      1.0  0.65470  0.49113  0.87164  1.0000
  H   H620      1.0  0.94982  0.12708  0.63786  1.0000
  H   H621      1.0  0.53767  0.37348  0.96675  1.0000
  C   C796      1.0  0.90681  0.15022  0.63841  1.0000
  Fe  Fe60      1.0  0.97550  0.33546  0.96003  1.0000
  H   H622      1.0  0.83562  0.48923  0.95210  1.0000
  S   S118      1.0  0.50588  0.42881  0.95806  1.0000
  Fe  Fe61      1.0  0.49108  0.47969  0.95577  1.0000
  H   H623      1.0  0.49063  0.16199  0.94356  1.0000
  H   H624      1.0  0.69694  0.03189  0.63667  1.0000
  C   C797      1.0  0.68422  0.60739  0.05011  1.0000
  C   C798      1.0  0.54634  0.89949  0.04083  1.0000
  H   H625      1.0  0.56823  0.66511  0.27847  1.0000
  H   H626      1.0  0.50250  0.64516  0.05802  1.0000
  H   H627      1.0  0.54644  0.65766  0.97486  1.0000
  C   C799      1.0  0.57997  0.89720  0.03634  1.0000
  H   H628      1.0  0.52774  0.53565  0.11003  1.0000
  C   C800      1.0  0.52081  0.58966  0.20590  1.0000
  C   C801      1.0  0.62946  0.57754  0.03685  1.0000
  H   H629      1.0  0.52578  0.53200  0.01315  1.0000
  C   C802      1.0  0.59072  0.60466  0.99786  1.0000
  C   C803      1.0  0.60553  0.92690  0.02975  1.0000
  C   C804      1.0  0.86988  0.57109  0.99959  1.0000
  H   H630      1.0  0.55119  0.64377  0.09102  1.0000
  H   H631      1.0  0.53155  0.68884  0.20618  1.0000
  C   C805      1.0  0.64705  0.56135  0.02235  1.0000
  H   H632      1.0  0.56877  0.60915  0.22098  1.0000
  H   H633      1.0  0.59947  0.57183  0.20239  1.0000
  C   C806      1.0  0.53912  0.55677  0.09850  1.0000
  H   H634      1.0  0.61283  0.59463  0.99450  1.0000
  C   C807      1.0  0.58178  0.62686  0.98253  1.0000
  H   H635      1.0  0.52501  0.60025  0.03471  1.0000
  S   S119      1.0  0.65663  0.96004  0.97552  1.0000
  C   C808      1.0  0.70147  0.59093  0.03578  1.0000
  C   C809      1.0  0.57101  0.59556  0.01719  1.0000
  H   H636      1.0  0.86238  0.59144  0.00791  1.0000
  H   H637      1.0  0.78338  0.49990  0.98494  1.0000
  C   C810      1.0  0.53788  0.64385  0.25258  1.0000
  P   P28       1.0  0.58306  0.56825  0.03765  1.0000
  H   H638      1.0  0.57692  0.63233  0.05674  1.0000
  C   C811      1.0  0.68287  0.56793  0.02190  1.0000
  C   C812      1.0  0.53920  0.68328  0.22198  1.0000
  C   C813      1.0  0.57286  0.57031  0.19933  1.0000
  C   C814      1.0  0.54157  0.60791  0.02047  1.0000
  C   C815      1.0  0.56662  0.61097  0.06830  1.0000
  C   C816      1.0  0.55261  0.54984  0.07879  1.0000
  C   C817      1.0  0.56641  0.57690  0.06348  1.0000
  H   H639      1.0  0.63116  0.92490  0.02504  1.0000
  H   H640      1.0  0.61710  0.98103  0.02098  1.0000
  C   C818      1.0  0.59749  0.95889  0.02764  1.0000
  H   H641      1.0  0.55126  0.52325  0.07545  1.0000
  H   H642      1.0  0.60540  0.77667  0.00119  1.0000
  H   H643      1.0  0.82838  0.53106  0.01419  1.0000
  H   H644      1.0  0.53080  0.93877  0.97804  1.0000
  H   H645      1.0  0.63556  0.61371  0.06192  1.0000
  C   C819      1.0  0.89002  0.51841  0.97873  1.0000
  H   H646      1.0  0.52917  0.61845  0.26066  1.0000
  H   H647      1.0  0.58664  0.71667  0.98987  1.0000
  C   C820      1.0  0.56146  0.70958  0.23216  1.0000
  C   C821      1.0  0.52697  0.65029  0.23222  1.0000
  H   H648      1.0  0.54123  0.97484  0.07498  1.0000
  H   H649      1.0  0.72923  0.59599  0.03544  1.0000
  C   C822      1.0  0.53854  0.59055  0.10292  1.0000
  H   H650      1.0  0.69862  0.62527  0.06086  1.0000
  C   C823      1.0  0.55609  0.54709  0.18490  1.0000
  H   H651      1.0  0.50848  0.52688  0.16993  1.0000
  H   H652      1.0  0.91446  0.60550  0.98332  1.0000
  C   C824      1.0  0.64836  0.60075  0.05067  1.0000
  H   H653      1.0  0.63306  0.54350  0.01141  1.0000
  H   H654      1.0  0.51206  0.93274  0.04230  1.0000
  C   C825      1.0  0.61403  0.93373  0.97736  1.0000
  C   C826      1.0  0.55232  0.61766  0.08782  1.0000
  C   C827      1.0  0.56009  0.67021  0.26271  1.0000
  H   H655      1.0  0.62193  0.82567  0.97431  1.0000
  C   C828      1.0  0.55531  0.59148  0.20985  1.0000
  C   C829      1.0  0.55322  0.64010  0.98644  1.0000
  C   C830      1.0  0.56681  0.52335  0.03205  1.0000
  H   H656      1.0  0.56963  0.53066  0.17677  1.0000
  H   H657      1.0  0.52615  0.87617  0.04472  1.0000
  C   C831      1.0  0.53876  0.51323  0.01928  1.0000
  C   C832      1.0  0.53293  0.63031  0.00527  1.0000
  H   H658      1.0  0.69614  0.55506  0.01080  1.0000
  C   C833      1.0  0.89926  0.57901  0.98577  1.0000
  H   H659      1.0  0.56999  0.84969  0.98969  1.0000
  H   H660      1.0  0.58900  0.72354  0.26040  1.0000
  C   C834      1.0  0.57434  0.87701  0.98555  1.0000
  H   H661      1.0  0.58585  0.87218  0.03693  1.0000
  C   C835      1.0  0.57181  0.70310  0.25253  1.0000
  H   H662      1.0  0.62966  0.88679  0.98413  1.0000
  H   H663      1.0  0.52674  0.59556  0.11784  1.0000
  C   C836      1.0  0.58242  0.49819  0.04036  1.0000
  C   C837      1.0  0.56422  0.96173  0.03333  1.0000
  P   P29       1.0  0.49737  0.61639  0.21952  1.0000
  H   H664      1.0  0.89857  0.49813  0.97094  1.0000
  C   C838      1.0  0.50416  0.56600  0.19154  1.0000
  C   C839      1.0  0.60809  0.89802  0.98225  1.0000
  C   C840      1.0  0.85047  0.53684  0.00296  1.0000
  C   C841      1.0  0.52172  0.54494  0.18103  1.0000
  C   C842      1.0  0.59497  0.73797  0.97799  1.0000
  H   H665      1.0  0.57064  0.73505  0.22423  1.0000
  C   C843      1.0  0.53844  0.93161  0.03931  1.0000
  H   H666      1.0  0.51010  0.63969  0.00805  1.0000
  C   C844      1.0  0.86009  0.51036  0.99224  1.0000
  C   C845      1.0  0.50040  0.98638  0.00290  1.0000
  H   H667      1.0  0.60372  0.50529  0.05059  1.0000
  S   S120      1.0  0.52374  0.77385  0.98401  1.0000
  C   C846      1.0  0.90939  0.55265  0.97541  1.0000
  S   S121      1.0  0.50548  0.70336  0.02928  1.0000
  C   C847      1.0  0.60550  0.77184  0.98438  1.0000
  C   C848      1.0  0.52308  0.99019  0.07187  1.0000
  C   C849      1.0  0.54633  0.89178  0.98444  1.0000
  S   S122      1.0  0.50365  0.86716  0.99048  1.0000
  C   C850      1.0  0.55233  0.92731  0.97913  1.0000
  C   C851      1.0  0.58601  0.94811  0.97530  1.0000
  H   H668      1.0  0.59043  0.97542  0.97133  1.0000
  H   H669      1.0  0.49994  0.98095  0.10380  1.0000
  H   H670      1.0  0.72326  0.49339  0.99852  1.0000
  H   H671      1.0  0.50322  0.62654  0.17237  1.0000
  S   S123      1.0  0.57575  0.97174  0.45311  1.0000
  C   C852      1.0  0.52153  0.67709  0.36863  1.0000
  H   H672      1.0  0.54658  0.91006  0.43232  1.0000
  H   H673      1.0  0.63085  0.59764  0.52959  1.0000
  H   H674      1.0  0.51772  0.69328  0.48920  1.0000
  C   C853      1.0  0.53864  0.93768  0.45982  1.0000
  C   C854      1.0  0.51699  0.93771  0.47783  1.0000
  P   P30       1.0  0.59822  0.56130  0.49274  1.0000
  C   C855      1.0  0.50430  0.59047  0.36341  1.0000
  C   C856      1.0  0.63955  0.52194  0.51007  1.0000
  C   C857      1.0  0.53087  0.90963  0.44668  1.0000
  C   C858      1.0  0.53918  0.62684  0.42124  1.0000
  Fe  Fe62      1.0  0.49832  0.54094  0.41853  1.0000
  C   C859      1.0  0.49205  0.69919  0.51936  1.0000
  C   C860      1.0  0.72971  0.98851  0.51255  1.0000
  H   H675      1.0  0.92569  0.50176  0.47468  1.0000
  H   H676      1.0  0.62406  0.68114  0.46128  1.0000
  H   H677      1.0  0.72039  0.96697  0.50271  1.0000
  H   H678      1.0  0.52959  0.57154  0.48702  1.0000
  C   C861      1.0  0.61391  0.62938  0.47539  1.0000
  C   C862      1.0  0.58656  0.54210  0.45105  1.0000
  C   C863      1.0  0.53016  0.69024  0.43475  1.0000
  H   H679      1.0  0.63396  0.94812  0.46205  1.0000
  H   H680      1.0  0.58431  0.70283  0.43950  1.0000
  H   H681      1.0  0.55157  0.75370  0.48523  1.0000
  C   C864      1.0  0.59770  0.60644  0.49243  1.0000
  H   H682      1.0  0.56366  0.66237  0.52047  1.0000
  S   S124      1.0  0.54507  0.58610  0.41538  1.0000
  C   C865      1.0  0.66193  0.51382  0.52466  1.0000
  H   H683      1.0  0.68228  0.54660  0.43634  1.0000
  H   H684      1.0  0.66532  0.56124  0.47215  1.0000
  C   C866      1.0  0.72036  0.95898  0.45662  1.0000
  C   C867      1.0  0.50705  0.63421  0.42034  1.0000
  H   H685      1.0  0.61959  0.98683  0.59406  1.0000
  H   H686      1.0  0.73551  0.51692  0.62394  1.0000
  H   H687      1.0  0.50464  0.77558  0.54379  1.0000
  H   H688      1.0  0.50832  0.60350  0.37814  1.0000
  C   C868      1.0  0.52156  0.73033  0.38569  1.0000
  C   C869      1.0  0.51733  0.56154  0.36069  1.0000
  C   C870      1.0  0.68861  0.96722  0.45726  1.0000
  C   C871      1.0  0.56268  0.68360  0.43434  1.0000
  C   C872      1.0  0.63918  0.57415  0.52803  1.0000
  C   C873      1.0  0.53451  0.74491  0.49926  1.0000
  H   H689      1.0  0.63842  0.52943  0.40963  1.0000
  S   S125      1.0  0.52553  0.72905  0.44514  1.0000
  H   H690      1.0  0.50167  0.66784  0.31523  1.0000
  H   H691      1.0  0.49963  0.59612  0.46039  1.0000
  C   C874      1.0  0.62780  0.55201  0.51166  1.0000
  H   H692      1.0  0.63072  0.92797  0.50203  1.0000
  C   C875      1.0  0.50245  0.66583  0.42729  1.0000
  C   C876      1.0  0.53894  0.70609  0.37898  1.0000
  H   H693      1.0  0.53475  0.75219  0.39428  1.0000
  H   H694      1.0  0.52240  0.95933  0.48795  1.0000
  H   H695      1.0  0.59216  0.94297  0.52920  1.0000
  C   C877      1.0  0.61199  0.66383  0.47469  1.0000
  C   C878      1.0  0.69160  0.89864  0.46498  1.0000
  H   H696      1.0  0.53202  0.55322  0.37301  1.0000
  C   C879      1.0  0.52657  0.54663  0.49529  1.0000
  H   H697      1.0  0.49785  0.85935  0.44188  1.0000
  H   H698      1.0  0.53638  0.57521  0.57346  1.0000
  H   H699      1.0  0.62028  0.84406  0.51455  1.0000
  H   H700      1.0  0.59107  0.70199  0.48975  1.0000
  H   H701      1.0  0.53156  0.90889  0.53438  1.0000
  C   C880      1.0  0.67309  0.53588  0.54093  1.0000
  H   H702      1.0  0.62746  0.62069  0.46235  1.0000
  H   H703      1.0  0.50932  0.86009  0.51153  1.0000
  H   H704      1.0  0.98583  0.52940  0.41325  1.0000
  H   H705      1.0  0.54659  0.84634  0.48313  1.0000
  H   H706      1.0  0.57747  0.52713  0.41894  1.0000
  H   H707      1.0  0.56571  0.70933  0.38229  1.0000
  H   H708      1.0  0.53557  0.65885  0.36352  1.0000
  C   C881      1.0  0.49344  0.52576  0.50018  1.0000
  C   C882      1.0  0.59653  0.53422  0.43069  1.0000
  C   C883      1.0  0.52313  0.59038  0.56383  1.0000
  C   C884      1.0  0.56719  0.65200  0.42762  1.0000
  H   H709      1.0  0.56721  0.60138  0.52212  1.0000
  C   C885      1.0  0.55552  0.53478  0.50020  1.0000
  C   C886      1.0  0.72187  0.92471  0.46052  1.0000
  H   H710      1.0  0.74651  0.91834  0.45991  1.0000
  H   H711      1.0  0.67896  0.99145  0.52320  1.0000
  C   C887      1.0  0.61103  0.55117  0.46640  1.0000
  H   H712      1.0  0.55974  0.54096  0.45467  1.0000
  C   C888      1.0  0.50972  0.54220  0.34278  1.0000
  H   H713      1.0  0.51049  0.62509  0.49419  1.0000
  H   H714      1.0  0.69339  0.87229  0.46775  1.0000
  C   C889      1.0  0.57792  0.65315  0.50802  1.0000
  C   C890      1.0  0.65558  0.54541  0.44045  1.0000
  C   C891      1.0  0.55959  0.82334  0.42519  1.0000
  C   C892      1.0  0.56694  0.84724  0.40772  1.0000
  C   C893      1.0  0.59026  0.87924  0.40935  1.0000
  C   C894      1.0  0.60614  0.88743  0.42847  1.0000
  C   C895      1.0  0.59890  0.86351  0.44615  1.0000
  C   C896      1.0  0.57514  0.83149  0.44437  1.0000
  P   P31       1.0  0.61999  0.87325  0.47083  1.0000
  C   C897      1.0  0.59165  0.88611  0.49017  1.0000
  C   C898      1.0  0.62935  0.83407  0.48149  1.0000
  C   C899      1.0  0.63850  0.81070  0.46773  1.0000
  C   C900      1.0  0.64441  0.77974  0.47592  1.0000
  C   C901      1.0  0.64166  0.77207  0.49791  1.0000
  C   C902      1.0  0.63301  0.79539  0.51173  1.0000
  C   C903      1.0  0.62696  0.82632  0.50358  1.0000
  C   C904      1.0  0.55731  0.86694  0.49332  1.0000
  C   C905      1.0  0.53605  0.87454  0.50959  1.0000
  C   C906      1.0  0.54851  0.90205  0.52242  1.0000
  C   C907      1.0  0.58260  0.92135  0.51940  1.0000
  C   C908      1.0  0.60427  0.91309  0.50361  1.0000
  C   C909      1.0  0.65953  0.90673  0.46565  1.0000
  C   C910      1.0  0.65838  0.94126  0.46176  1.0000
  H   H715      1.0  0.54495  0.63793  0.57857  1.0000
  H   H716      1.0  0.59224  0.64667  0.42786  1.0000
  C   C911      1.0  0.66179  0.56608  0.54259  1.0000
  H   H717      1.0  0.67059  0.58324  0.55516  1.0000
  H   H718      1.0  0.54152  0.79852  0.42396  1.0000
  H   H719      1.0  0.55416  0.84113  0.39305  1.0000
  H   H720      1.0  0.59541  0.89814  0.39597  1.0000
  H   H721      1.0  0.62336  0.91272  0.42936  1.0000
  H   H722      1.0  0.56862  0.81255  0.45769  1.0000
  H   H723      1.0  0.64074  0.81625  0.45063  1.0000
  H   H724      1.0  0.65102  0.76168  0.46515  1.0000
  H   H725      1.0  0.64635  0.74813  0.50424  1.0000
  H   H726      1.0  0.63095  0.78954  0.52879  1.0000
  H   H727      1.0  0.54510  0.79511  0.51229  1.0000
  C   C912      1.0  0.52802  0.62572  0.56666  1.0000
  C   C913      1.0  0.63093  0.53570  0.42541  1.0000
  C   C914      1.0  0.59358  0.67561  0.49080  1.0000
  C   C915      1.0  0.57995  0.61868  0.50887  1.0000
  C   C916      1.0  0.64576  0.55343  0.46082  1.0000
  H   H728      1.0  0.87177  0.51918  0.48225  1.0000
  H   H729      1.0  0.51830  0.51873  0.34127  1.0000
  C   C917      1.0  0.51514  0.71052  0.50160  1.0000
  H   H730      1.0  0.69051  0.52951  0.55220  1.0000
  H   H731      1.0  0.63127  0.50460  0.49751  1.0000
  C   C918      1.0  0.50797  0.75724  0.53221  1.0000
  C   C919      1.0  0.50089  0.57452  0.54871  1.0000
  C   C920      1.0  0.53080  0.76829  0.51447  1.0000
  H   H732      1.0  0.51488  0.67259  0.55676  1.0000
  H   H733      1.0  0.74372  0.97923  0.45305  1.0000
  H   H734      1.0  0.78316  0.99143  0.50526  1.0000
  C   C921      1.0  0.51092  0.64532  0.55423  1.0000
  H   H735      1.0  0.49695  0.54707  0.54657  1.0000
  C   C922      1.0  0.48966  0.55221  0.32733  1.0000
  C   C923      1.0  0.50292  0.88100  0.45196  1.0000
  C   C924      1.0  0.55071  0.50120  0.50950  1.0000
  H   H736      1.0  0.70752  0.98919  0.61144  1.0000
  C   C925      1.0  0.58016  0.90964  0.91959  1.0000
  P   P32       1.0  0.62635  0.83003  0.92810  1.0000
  C   C926      1.0  0.62625  0.81634  0.90112  1.0000
  C   C927      1.0  0.54307  0.69552  0.90635  1.0000
  H   H737      1.0  0.74914  0.84075  0.93944  1.0000
  H   H738      1.0  0.52860  0.91130  0.92939  1.0000
  C   C928      1.0  0.59420  0.73175  0.95632  1.0000
  C   C929      1.0  0.65498  0.81500  0.86649  1.0000
  C   C930      1.0  0.67439  0.88580  0.94380  1.0000
  C   C931      1.0  0.66867  0.85309  0.93527  1.0000
  H   H739      1.0  0.86264  0.55303  0.80359  1.0000
  H   H740      1.0  0.62335  0.78784  0.84273  1.0000
  C   C932      1.0  0.54966  0.66294  0.90414  1.0000
  C   C933      1.0  0.52340  0.70142  0.92404  1.0000
  H   H741      1.0  0.58742  0.93613  0.91307  1.0000
  S   S126      1.0  0.54264  0.59456  0.91569  1.0000
  H   H742      1.0  0.62945  0.90059  0.91177  1.0000
  C   C934      1.0  0.62127  0.52015  0.91919  1.0000
  C   C935      1.0  0.63876  0.49533  0.91365  1.0000
  H   H743      1.0  0.51208  0.85084  0.94423  1.0000
  C   C936      1.0  0.86708  0.50130  0.81118  1.0000
  H   H744      1.0  0.50241  0.61746  0.87420  1.0000
  C   C937      1.0  0.58537  0.51143  0.92098  1.0000
  C   C938      1.0  0.88011  0.53660  0.80579  1.0000
  C   C939      1.0  0.53774  0.86156  0.93713  1.0000
  C   C940      1.0  0.53593  0.63585  0.91936  1.0000
  H   H745      1.0  0.55318  0.71614  0.89434  1.0000
  H   H746      1.0  0.63540  0.54620  0.92210  1.0000
  C   C941      1.0  0.56182  0.84169  0.93724  1.0000
  C   C942      1.0  0.70696  0.90244  0.95015  1.0000
  H   H747      1.0  0.96562  0.54038  0.80379  1.0000
  H   H748      1.0  0.67284  0.50033  0.83359  1.0000
  C   C943      1.0  0.51075  0.67472  0.93961  1.0000
  C   C944      1.0  0.72835  0.85346  0.94044  1.0000
  C   C945      1.0  0.62416  0.79592  0.85895  1.0000
  H   H749      1.0  0.92564  0.57808  0.79902  1.0000
  C   C946      1.0  0.59523  0.79807  0.89319  1.0000
  C   C947      1.0  0.73398  0.88640  0.94838  1.0000
  H   H750      1.0  0.69149  0.81088  0.92844  1.0000
  H   H751      1.0  0.56470  0.65848  0.89039  1.0000
  C   C948      1.0  0.93811  0.52949  0.80590  1.0000
  H   H752      1.0  0.75912  0.89935  0.95344  1.0000
  C   C949      1.0  0.60408  0.88958  0.91922  1.0000
  H   H753      1.0  0.67992  0.84090  0.89273  1.0000
  H   H754      1.0  0.60265  0.75360  0.92441  1.0000
  H   H755      1.0  0.57020  0.77309  0.86651  1.0000
  C   C950      1.0  0.54703  0.89567  0.92867  1.0000
  H   H756      1.0  0.71095  0.92769  0.95675  1.0000
  C   C951      1.0  0.51671  0.64194  0.93716  1.0000
  H   H757      1.0  0.59672  0.63362  0.96753  1.0000
  H   H758      1.0  0.93252  0.55867  0.96501  1.0000
  H   H759      1.0  0.67803  0.82196  0.85604  1.0000
  H   H760      1.0  0.57174  0.53063  0.92526  1.0000
  C   C952      1.0  0.65603  0.82541  0.88745  1.0000
  C   C953      1.0  0.59546  0.85589  0.92875  1.0000
  C   C954      1.0  0.59427  0.78760  0.87229  1.0000
  C   C955      1.0  0.92517  0.49418  0.81129  1.0000
  S   S127      1.0  0.52031  0.53107  0.96667  1.0000
  H   H761      1.0  0.55403  0.81530  0.94388  1.0000
  H   H762      1.0  0.57171  0.79172  0.90327  1.0000
  H   H763      1.0  0.65385  0.89848  0.94610  1.0000
  C   C956      1.0  0.91559  0.55071  0.80319  1.0000
  C   C957      1.0  0.69574  0.83673  0.93410  1.0000
  C   C958      1.0  0.61362  0.79355  0.94730  1.0000
  H   H764      1.0  0.58552  0.70557  0.95130  1.0000
  C   C959      1.0  0.60370  0.75935  0.94101  1.0000
  H   H765      1.0  0.66658  0.50251  0.91222  1.0000
  Fe  Fe63      1.0  0.50549  0.55279  0.93613  1.0000
  S   S128      1.0  0.51536  0.74239  0.92638  1.0000
  H   H766      1.0  0.50702  0.62162  0.94935  1.0000
  C   C960      1.0  0.61454  0.79953  0.96911  1.0000
  H   H767      1.0  0.49631  0.67921  0.95355  1.0000
  Fe  Fe64      1.0  0.49071  0.75073  0.95795  1.0000
  H   H768      1.0  0.67459  0.49306  0.63678  1.0000
