data_image0
_chemical_formula_structural       CSHFeS2H2S2FeS2FeS2FeSFeS3FeS2FeS2Fe2S3FeS2FeSFeSC3H5C6H4C6H4SC2H2C6H4C6H4C6H4C6H4C6PC12H10CH2C4HCH4CH2CSCHC2HC2HCH2C3H4CHC2HC2PC6PC18H20CHC4HC5HC7PC7H3C5HC2H2CH8CH2SCH3CHC2HCHC3HCHC2H2CSH3CHC7H3C2H4PHSC3H2C3HC9HSCHCH6CHCFeCH2C2HCH2PCFeC2HC6H4PCHC4SCH3CFeC3HC2HFeH3CHC2PC4FeHC3SCHC3HC2HCH3CHCSHC3H2C2HC2HCHSFeSHFeSFe2SFeHS2HFeS2HSCFeHFeHSCHFeCSFeS2PCHCSH2C3HC2HC2HC2HC3H5CHC7H4CHCHC2HC4HC3HCSCHCHCH5CHC2HPH4FeHC4H2S2CHC3H2CSCHC2H3CHCHC3HC3H3PCH4C3H2C2HC2HC2H2C4H2CHC5HC2HCHSCHC5HC2H2C3HC2H4CH2CHC3HC2HC2H5SHC2FeS2FeS2FeSFeS3FeS3FeSFeSFeS2HSFeSFeSCSFeS2FeSHSC2HC7H4CH3FeHFeC6H4C6H4C3H2C6H4CHCH2C2H2CH6C2HC2HC3H2FeH3CHC2H2CH2C3SC3PC19HCH4C2HCH5PHCH2CH2C3PC12HC2H6SH4C4PSC7HCH2C3HC2H7PCH2CHC2HCHC2HC7HC3H10CHCH2C6H2CHC8PC2HC5HCHCH2C2H3C3H3C4HCHCHC2PC2HC2HC3H2C7HC5H14C3HC2HCH2C3H2CHCHPC6H3CHCHCH2CH2CH2CHCHCHC2PSCH2C2HFeC3H3C3H5C2SHCHC2FeS2HCFeS2C2FeS2FeS2FeSFeS3FeS2FeS2FeCFeCS2CHCHC3H2C2HCHC5H3CHC6H3C6H4C2PC6PC18H20CHC5H3CHC2HCH2CHCH2CH3CH2C4H2C2HCH2CH3C3H2CFeHC3SC3H6C2H2C2HC2H2CH2C6H2CH2C2HCH8C2H2C4HCHC6PHCH2CH3CHCHCSC2HCH2CFeCHCPCH5PHC4HCHCSFeS2FeS2FeSFeS3C3SH2C3Fe2CSFeCSFeH2CS2C2HCH3C10H5C2SC2H2C6H4C4H2C3SH6CHC2HCHC2H3CHCHC5HCHSCH3CH2CH2C2H2SH2C4HC3HC5HC2H6CH3CHC3HC6PC18H6SH13C6PC15H14CHCH6C2H2PC2HCHC4HCHCHC2HFeH2C2H2C4HCSFeS2FeS2FeSFeS3FeS2FeS2Fe2S3FeSFeS2FeSFeHS2C6H4C3HC3H2C6H4C6H4C7H3C2SC3H5CHCH2C6H4C6PC16H7CH8CHC4HSH2CH3CH4CH2CPH2C7PC18H20C2HCFeHC2H3C4HCH2C3HSCSPC17H3C2H2CH2C2HC2H3C3HC3PCHC5HCHCSPH5C8PC8HC7H4CH4CH3C6HC5H2CHCH3CH2C3H4CHCH4CHCH3CH2CSHCH2SCHCH2C5HCHCH2C3H3SC2H7C2H5C2H2C3H4CSFeC3H2C2H4SHFeSCSCH4CH2SH2C2FeS2FeS2CSFeC4H4C2HCHC7H4C7H5CH2CH2CHCHSCHPCHC2H2C6H3CHCH3C5PCHCHC2H3C2HCH2CH3C2H4C2SC6HC3HC3PC3HCHC4HSC2H2CH4C3H2CHC2H2CPC5H7C4H2C2PCHC2HFeCHC2H2CH2C2HC2HC3HC2HC2Fe2S2FeS2FeSFeS3FeSFeS2FeSFeS3FeS2FeSFeS3FeSC12H4CHSCHCHCH2C6HC7H4C6H4C3H2C6H4C3HC2H2SHC7PC18H20CHPC15H2CH9CH6CHC4HC4HCFeCH2SCH5CHCHC2HC6PC18H13CH2C2H2CHCHCHCHC6PC18H2CH14CH2CH2C2H2C2H2CH4SCSC8HC3HCPHC3H2CHSHCH3CHCPHC3SC2H2C6HCHC2HCHCH2C2H3C3HC2H3C3H2C2H2C4HC2PCHCHC2FeH3SPHC2HSH2C2H3CHCHCHCH3C2PH4CH6CHCH2CH2CHPFeS2HCHFeS2CH3C6HFeS2HCH2SH2CHC2PC6H4C3HCH3C5HCH2CH5C2HCH2CHC2HFeHC2SCPC3HFeHP2HC6SH4CH2CH6FeH3CHCH3CHC6H3C2HC2HCHC2H2CH2SH3CHC2H3SC2HC9H2CH2C4HCHCHC2HC5H2C2HCHCH2C3H2FeHC6H3C4H4CHC5HCH3C3HC2HCHCHCHC2H4C2HCHC3HFeS2FeS2FeSFeS2FeS2FeS2FeSFeS3CHCSFeS2FeSFeS3C6H4C4HC6H4C6H4C3H2C7H4C6H3CHC6H4SC3H3C2H2CHC2H2CHC3HCHC6H2SHCH5CHC3HC6PC8HC3FeH6CH3CHCH2C3HC2HCHPCHC3H2CHC4HC6PC18H2CH17CHC5H2C3HC2H2C5PHPC3H2C3H5CH2CH4C3HC2HCH4CHC5H4CH2CSC2HC4H2CH2C4H2CHCH7C4PC15H2CH2CH11C3HC6PC9SC6H18FeCHCH2PH2C3SC2H2C2SCH2PC2HC2H2C4HCHCH4C4H2SCH2CHCH3CHC3H3C2HFeSCFeSHFeSFeS3C2HSHCHC3HCFeS2FeS2FeSFeS3C5HCHC3HC2H2C8H5C3HC6H2CHC2H5C2HPH3CHCH4CHCH2C2HC3H2C4H5CHCHC2H2C2HCH2C3HCH3C2HCHCH2CHC9HCH2CHCH4CH3C5HC2HC2HSC2HCH3SHCSHPC2HCH2CH2C2HC2HCFeC2H3C2H3C2H2CHCHCHCHCHCH2C2H2CHC2SH2SH2CHCH2CH2SH2C4H2C4SCHFeS2FeS2FeSFeS3FeSFeS2FeSFeS3FeS2FeSFeHFeS3HC4H2C6H4C6H2CHC2H3CHC6H4C6H4C6H4C8H3C16PC18H20C2HC8PC15HSH14SHPC4H4CHC3HC2H4C2HCHC2HCHC6PC14H17C4H2C3HCH2C2H5C2H2SCSCHCHC2PHC2H2C6HSCHCHCH4CH5C2H2C2H2C5HPHC2H2C4HC2H4CH2CH3C3HCH5C4PC2H2CHC3HCH3CH2C2H2C3HCHC2HC6HSHCHCPC4HCH2C2HC2HCHSC2HCHCHC4H2CSCH3C2HCSCH2SFeS2Fe2S2FeS2FeS2FeSFeS3FeS2FeSCSFeSFeS2FeS3HCHCHC8H7C4PHC6H4C6H4C6H5C2H2C3H2C2H2CHSCHCHCHS2H3CHCHC2H5C6PCHC4H2SC2H9C2H3SC3H3C6PC18H6CHCH9C4HC3PC8HC7SH12C6PC18H19FeH2CFeH2CH4C5H2C2H6PC18HCH10C6PC8HC5HC3H9C2H2C3H5CHCH2CSC2HC4FeSCFeSHFeSFeCS2C2HFeS2FeS2FeSFeS3FeHSC2HCSH2C2HC6H4CH3C2HC4HC3HCH2C2HC2SPC2H2C2H2C5HC3H3CHC2H3CH2C2H2CHCH3CH2CHCH2C2HCHC2HC2H2C2HPHC2HFeC2H3CHFeH2C7H2CSH2CHCH4C2HCH3CHC4HCHCHC3PC9HC8SCH9CHCH6C2H3PC4H2CSH3C3H2C3HSCFeS2FeS2FeS2FeS2FeSFeS3FeS2FeS2FeSFeS2FeS2HFeSCSH2SH4C6H6C2HC6H4C6H4C6H4C6H4C4H2C6H4CHC2PC6HFeC2H2C3H3CH2C11H9C2HCH2CSHFeC2HCH2CHCHC4HC2SH2C2H3PH4CHC6PC9H2C3H3CH11PC2H3C2HC6PC15H2CH7CH8C7PCHCHC3H5CHC8PC12H11SC2HC2HFeC3H3CPCHCHC4H2C2HCHCH2C3FeHCH2CHC2H4CHC3SH2C4H3C6HC5HC3HC2HC3H2C3PSH2CH2C2FeHCH4C2SCHCH2CHCH3CHCH5C2H3SCHCH2C3S2CHSH2FeCSFeSFeSHCS2HSHFeSCFeSFeHSCHFeH3CHCH2C5H2C2H4C6H4CSC3SCHC3HC4H2FeC4PCH2CH2C4HC4HC3SH5C2HCH2CHCHC6PCHCH3SC8HC2H5CH3FeHSCH2CH3C3HPC3H2CHC2HC2H5C4H2CFeH2CH2C2H4CH3C2
_chemical_formula_sum              "C2880 S384 H2304 Fe192 P96"
_cell_length_a       40.6594
_cell_length_b       40.7153
_cell_length_c       89.6523
_cell_angle_alpha    83.8481
_cell_angle_beta     83.5744
_cell_angle_gamma    88.5487

_space_group_name_H-M_alt    "P 1"
_space_group_IT_number       1

loop_
  _space_group_symop_operation_xyz
  'x, y, z'

loop_
  _atom_site_type_symbol
  _atom_site_label
  _atom_site_symmetry_multiplicity
  _atom_site_fract_x
  _atom_site_fract_y
  _atom_site_fract_z
  _atom_site_occupancy
  C   C1        1.0  0.25314  0.41063  0.11733  1.0000
  S   S1        1.0  0.45472  0.14317  0.03150  1.0000
  H   H1        1.0  0.15376  0.47558  0.00878  1.0000
  Fe  Fe1       1.0  0.11466  0.06667  0.06940  1.0000
  S   S2        1.0  0.16074  0.04455  0.07833  1.0000
  S   S3        1.0  0.11049  0.11874  0.05762  1.0000
  H   H2        1.0  0.23323  0.40437  0.00199  1.0000
  H   H3        1.0  0.29848  0.39218  0.96604  1.0000
  S   S4        1.0  0.13468  0.03425  0.12265  1.0000
  S   S5        1.0  0.07985  0.05084  0.09008  1.0000
  Fe  Fe2       1.0  0.25609  0.30226  0.00869  1.0000
  S   S6        1.0  0.29271  0.33108  0.01880  1.0000
  S   S7        1.0  0.24161  0.31649  0.98517  1.0000
  Fe  Fe3       1.0  0.25654  0.24567  0.03354  1.0000
  S   S8        1.0  0.29259  0.27037  0.04584  1.0000
  S   S9        1.0  0.24717  0.19181  0.04068  1.0000
  Fe  Fe4       1.0  0.26178  0.31621  0.04085  1.0000
  S   S10       1.0  0.25454  0.35470  0.05761  1.0000
  Fe  Fe5       1.0  0.32046  0.28291  0.02297  1.0000
  S   S11       1.0  0.37642  0.27869  0.01716  1.0000
  S   S12       1.0  0.22305  0.29022  0.03043  1.0000
  S   S13       1.0  0.28638  0.25552  0.01105  1.0000
  Fe  Fe6       1.0  0.24753  0.15359  0.15777  1.0000
  S   S14       1.0  0.20173  0.15845  0.17368  1.0000
  S   S15       1.0  0.25364  0.11665  0.14029  1.0000
  Fe  Fe7       1.0  0.28035  0.21414  0.16786  1.0000
  S   S16       1.0  0.23593  0.22421  0.18426  1.0000
  S   S17       1.0  0.32101  0.25280  0.16271  1.0000
  Fe  Fe8       1.0  0.23616  0.16926  0.19038  1.0000
  Fe  Fe9       1.0  0.20513  0.21272  0.16633  1.0000
  S   S18       1.0  0.15860  0.23791  0.15918  1.0000
  S   S19       1.0  0.28269  0.15959  0.17512  1.0000
  S   S20       1.0  0.24904  0.20742  0.14923  1.0000
  Fe  Fe10      1.0  0.11995  0.42341  0.11742  1.0000
  S   S21       1.0  0.07748  0.41365  0.13577  1.0000
  S   S22       1.0  0.12197  0.39289  0.09733  1.0000
  Fe  Fe11      1.0  0.11576  0.41767  0.15169  1.0000
  S   S23       1.0  0.12107  0.38391  0.17301  1.0000
  Fe  Fe12      1.0  0.07219  0.46873  0.13548  1.0000
  S   S24       1.0  0.15854  0.42280  0.13351  1.0000
  C   C2        1.0  0.14288  0.36374  0.97363  1.0000
  C   C3        1.0  0.44623  0.45015  0.19527  1.0000
  C   C4        1.0  0.44263  0.45664  0.17992  1.0000
  H   H4        1.0  0.06372  0.34818  0.10285  1.0000
  H   H5        1.0  0.06013  0.31607  0.15016  1.0000
  H   H6        1.0  0.05750  0.14597  0.98743  1.0000
  H   H7        1.0  0.08003  0.05168  0.21115  1.0000
  H   H8        1.0  0.28846  0.37974  0.18494  1.0000
  C   C5        1.0  0.13174  0.34332  0.16929  1.0000
  C   C6        1.0  0.12608  0.33248  0.15557  1.0000
  C   C7        1.0  0.13404  0.29988  0.15274  1.0000
  C   C8        1.0  0.15008  0.27877  0.16308  1.0000
  C   C9        1.0  0.15638  0.28973  0.17674  1.0000
  C   C10       1.0  0.14633  0.32174  0.18001  1.0000
  H   H9        1.0  0.11513  0.34911  0.14721  1.0000
  H   H10       1.0  0.12853  0.29115  0.14234  1.0000
  H   H11       1.0  0.16792  0.27318  0.18494  1.0000
  H   H12       1.0  0.15058  0.33001  0.19069  1.0000
  C   C11       1.0  0.36215  0.25521  0.16742  1.0000
  C   C12       1.0  0.38028  0.22742  0.17255  1.0000
  C   C13       1.0  0.41360  0.23066  0.17520  1.0000
  C   C14       1.0  0.42891  0.26171  0.17301  1.0000
  C   C15       1.0  0.41057  0.28951  0.16813  1.0000
  C   C16       1.0  0.37755  0.28617  0.16522  1.0000
  H   H13       1.0  0.36888  0.20340  0.17420  1.0000
  H   H14       1.0  0.42762  0.20896  0.17891  1.0000
  H   H15       1.0  0.42205  0.31350  0.16630  1.0000
  H   H16       1.0  0.36394  0.30776  0.16117  1.0000
  S   S25       1.0  0.47127  0.26460  0.17583  1.0000
  C   C17       1.0  0.15229  0.36433  0.98821  1.0000
  C   C18       1.0  0.18249  0.34979  0.99197  1.0000
  H   H17       1.0  0.13651  0.37646  0.99654  1.0000
  H   H18       1.0  0.19005  0.35089  0.00307  1.0000
  C   C19       1.0  0.21739  0.36456  0.06863  1.0000
  C   C20       1.0  0.18716  0.35066  0.06688  1.0000
  C   C21       1.0  0.15805  0.35961  0.07569  1.0000
  C   C22       1.0  0.15902  0.38236  0.08639  1.0000
  C   C23       1.0  0.18929  0.39598  0.08822  1.0000
  C   C24       1.0  0.21830  0.38729  0.07932  1.0000
  H   H19       1.0  0.18630  0.33349  0.05858  1.0000
  H   H20       1.0  0.13472  0.34882  0.07426  1.0000
  H   H21       1.0  0.19019  0.41350  0.09638  1.0000
  H   H22       1.0  0.24154  0.39839  0.08066  1.0000
  C   C25       1.0  0.14826  0.13985  0.05346  1.0000
  C   C26       1.0  0.17826  0.12294  0.05461  1.0000
  C   C27       1.0  0.20822  0.13960  0.05096  1.0000
  C   C28       1.0  0.20853  0.17338  0.04607  1.0000
  C   C29       1.0  0.17860  0.19068  0.04492  1.0000
  C   C30       1.0  0.14848  0.17376  0.04856  1.0000
  H   H23       1.0  0.17857  0.09677  0.05786  1.0000
  H   H24       1.0  0.23133  0.12606  0.05177  1.0000
  H   H25       1.0  0.17872  0.21677  0.04105  1.0000
  H   H26       1.0  0.12531  0.18684  0.04766  1.0000
  C   C31       1.0  0.16717  0.05904  0.12684  1.0000
  C   C32       1.0  0.19639  0.06398  0.11707  1.0000
  C   C33       1.0  0.22249  0.08205  0.12121  1.0000
  C   C34       1.0  0.21929  0.09630  0.13492  1.0000
  C   C35       1.0  0.18955  0.09257  0.14437  1.0000
  C   C36       1.0  0.16397  0.07340  0.14053  1.0000
  H   H27       1.0  0.19929  0.05303  0.10652  1.0000
  H   H28       1.0  0.24534  0.08479  0.11379  1.0000
  H   H29       1.0  0.18667  0.10370  0.15484  1.0000
  H   H30       1.0  0.14147  0.06992  0.14815  1.0000
  C   C37       1.0  0.43366  0.18073  0.02640  1.0000
  C   C38       1.0  0.39921  0.18242  0.03010  1.0000
  C   C39       1.0  0.38139  0.21210  0.02717  1.0000
  C   C40       1.0  0.39798  0.24065  0.02068  1.0000
  C   C41       1.0  0.43251  0.23903  0.01694  1.0000
  C   C42       1.0  0.45028  0.20915  0.01968  1.0000
  H   H31       1.0  0.38625  0.16050  0.03523  1.0000
  H   H32       1.0  0.35484  0.21296  0.02999  1.0000
  H   H33       1.0  0.44560  0.26101  0.01195  1.0000
  H   H34       1.0  0.47684  0.20829  0.01688  1.0000
  C   C43       1.0  0.32698  0.15893  0.05502  1.0000
  C   C44       1.0  0.06150  0.07136  0.03616  1.0000
  C   C45       1.0  0.06490  0.32995  0.12615  1.0000
  C   C46       1.0  0.08833  0.22160  0.19546  1.0000
  C   C47       1.0  0.36408  0.17100  0.07311  1.0000
  C   C48       1.0  0.34227  0.18183  0.06246  1.0000
  P   P1        1.0  0.38388  0.20012  0.08296  1.0000
  C   C49       1.0  0.36601  0.19916  0.10245  1.0000
  C   C50       1.0  0.37190  0.22516  0.11091  1.0000
  C   C51       1.0  0.35867  0.22443  0.12604  1.0000
  C   C52       1.0  0.33924  0.19794  0.13279  1.0000
  C   C53       1.0  0.33286  0.17223  0.12444  1.0000
  C   C54       1.0  0.34626  0.17271  0.10935  1.0000
  C   C55       1.0  0.37896  0.24115  0.07350  1.0000
  C   C56       1.0  0.35167  0.26104  0.07802  1.0000
  C   C57       1.0  0.34692  0.29222  0.07030  1.0000
  C   C58       1.0  0.36906  0.30353  0.05787  1.0000
  C   C59       1.0  0.39612  0.28383  0.05325  1.0000
  C   C60       1.0  0.40100  0.25268  0.06094  1.0000
  H   H35       1.0  0.33707  0.20785  0.05974  1.0000
  H   H36       1.0  0.38694  0.24588  0.10585  1.0000
  H   H37       1.0  0.36342  0.24436  0.13260  1.0000
  H   H38       1.0  0.32910  0.19732  0.14453  1.0000
  H   H39       1.0  0.31754  0.15182  0.12972  1.0000
  H   H40       1.0  0.34107  0.15235  0.10323  1.0000
  H   H41       1.0  0.33364  0.25220  0.08728  1.0000
  H   H42       1.0  0.32553  0.30729  0.07360  1.0000
  H   H43       1.0  0.36477  0.32718  0.05154  1.0000
  H   H44       1.0  0.41267  0.29220  0.04331  1.0000
  C   C61       1.0  0.08850  0.07224  0.20309  1.0000
  H   H45       1.0  0.15528  0.10008  0.17912  1.0000
  H   H46       1.0  0.21949  0.16829  0.01357  1.0000
  C   C62       1.0  0.01931  0.38243  0.21063  1.0000
  C   C63       1.0  0.37058  0.13700  0.07606  1.0000
  C   C64       1.0  0.42748  0.18938  0.08184  1.0000
  C   C65       1.0  0.16840  0.48024  0.97720  1.0000
  H   H47       1.0  0.27262  0.36237  0.09962  1.0000
  C   C66       1.0  0.10885  0.12573  0.18211  1.0000
  H   H48       1.0  0.48864  0.15898  0.05761  1.0000
  H   H49       1.0  0.05769  0.36242  0.19535  1.0000
  H   H50       1.0  0.08151  0.08874  0.03420  1.0000
  H   H51       1.0  0.07039  0.30284  0.18654  1.0000
  C   C67       1.0  0.33102  0.47715  0.16655  1.0000
  H   H52       1.0  0.09211  0.44819  0.06898  1.0000
  H   H53       1.0  0.17832  0.43382  0.16442  1.0000
  C   C68       1.0  0.06616  0.09058  0.96762  1.0000
  S   S26       1.0  0.45928  0.42958  0.16705  1.0000
  C   C69       1.0  0.07682  0.12539  0.18964  1.0000
  H   H54       1.0  0.31052  0.16743  0.04667  1.0000
  C   C70       1.0  0.06676  0.09876  0.20020  1.0000
  C   C71       1.0  0.23486  0.50972  0.99944  1.0000
  H   H55       1.0  0.05999  0.14596  0.18750  1.0000
  C   C72       1.0  0.18603  0.04572  0.02695  1.0000
  C   C73       1.0  0.10786  0.07185  0.98402  1.0000
  H   H56       1.0  0.09909  0.03419  0.17636  1.0000
  C   C74       1.0  0.16817  0.45437  0.01277  1.0000
  H   H57       1.0  0.14041  0.43539  0.98329  1.0000
  H   H58       1.0  0.09256  0.19419  0.97895  1.0000
  C   C75       1.0  0.11259  0.47242  0.97102  1.0000
  C   C76       1.0  0.24041  0.06932  0.18046  1.0000
  C   C77       1.0  0.06784  0.15906  0.99567  1.0000
  H   H59       1.0  0.17094  0.12747  0.01833  1.0000
  H   H60       1.0  0.30803  0.31858  0.15692  1.0000
  H   H61       1.0  0.45761  0.23962  0.20680  1.0000
  H   H62       1.0  0.49869  0.02969  0.99230  1.0000
  C   C78       1.0  0.35167  0.46366  0.15505  1.0000
  H   H63       1.0  0.25663  0.49448  0.11103  1.0000
  C   C79       1.0  0.05087  0.34764  0.11413  1.0000
  C   C80       1.0  0.23268  0.33168  0.17571  1.0000
  H   H64       1.0  0.38120  0.33059  0.19128  1.0000
  C   C81       1.0  0.14036  0.46049  0.97790  1.0000
  C   C82       1.0  0.04241  0.47835  0.09754  1.0000
  P   P2        1.0  0.20544  0.46288  0.98458  1.0000
  C   C83       1.0  0.20722  0.28611  0.12961  1.0000
  C   C84       1.0  0.19149  0.31626  0.12598  1.0000
  C   C85       1.0  0.16887  0.31875  0.11529  1.0000
  C   C86       1.0  0.16260  0.29139  0.10787  1.0000
  C   C87       1.0  0.17942  0.26128  0.11100  1.0000
  C   C88       1.0  0.20122  0.25877  0.12215  1.0000
  P   P3        1.0  0.17160  0.22515  0.10185  1.0000
  C   C89       1.0  0.14764  0.19562  0.11488  1.0000
  C   C90       1.0  0.15021  0.23622  0.08531  1.0000
  C   C91       1.0  0.12185  0.21911  0.08309  1.0000
  C   C92       1.0  0.10562  0.22750  0.07025  1.0000
  C   C93       1.0  0.11772  0.25276  0.05941  1.0000
  C   C94       1.0  0.14571  0.27010  0.06156  1.0000
  C   C95       1.0  0.16173  0.26214  0.07452  1.0000
  C   C96       1.0  0.14581  0.16279  0.11156  1.0000
  C   C97       1.0  0.12788  0.13957  0.12168  1.0000
  C   C98       1.0  0.11239  0.14867  0.13537  1.0000
  C   C99       1.0  0.11412  0.18128  0.13876  1.0000
  C   C100      1.0  0.13136  0.20479  0.12847  1.0000
  C   C101      1.0  0.21116  0.20561  0.09679  1.0000
  C   C102      1.0  0.22830  0.21208  0.08230  1.0000
  C   C103      1.0  0.25896  0.19690  0.07874  1.0000
  C   C104      1.0  0.27242  0.17462  0.08941  1.0000
  C   C105      1.0  0.25574  0.16815  0.10382  1.0000
  C   C106      1.0  0.22533  0.18358  0.10756  1.0000
  H   H65       1.0  0.22343  0.28363  0.13848  1.0000
  H   H66       1.0  0.19561  0.33726  0.13196  1.0000
  H   H67       1.0  0.15555  0.34172  0.11312  1.0000
  H   H68       1.0  0.14440  0.29390  0.09989  1.0000
  H   H69       1.0  0.21314  0.23552  0.12531  1.0000
  H   H70       1.0  0.11219  0.19900  0.09110  1.0000
  H   H71       1.0  0.08427  0.21356  0.06850  1.0000
  H   H72       1.0  0.10577  0.25845  0.04924  1.0000
  H   H73       1.0  0.15530  0.28939  0.05308  1.0000
  H   H74       1.0  0.18335  0.27595  0.07604  1.0000
  H   H75       1.0  0.15830  0.15509  0.10114  1.0000
  H   H76       1.0  0.12644  0.11433  0.11900  1.0000
  H   H77       1.0  0.09930  0.13032  0.14335  1.0000
  H   H78       1.0  0.10261  0.18838  0.14944  1.0000
  H   H79       1.0  0.13244  0.22987  0.13131  1.0000
  H   H80       1.0  0.21826  0.22835  0.07359  1.0000
  H   H81       1.0  0.27195  0.20193  0.06756  1.0000
  H   H82       1.0  0.29547  0.16187  0.08649  1.0000
  H   H83       1.0  0.26619  0.15076  0.11204  1.0000
  H   H84       1.0  0.21283  0.17785  0.11884  1.0000
  C   C107      1.0  0.41239  0.21117  0.97017  1.0000
  H   H85       1.0  0.01560  0.08105  0.97673  1.0000
  C   C108      1.0  0.19446  0.44203  0.00330  1.0000
  C   C109      1.0  0.12076  0.07245  0.19561  1.0000
  C   C110      1.0  0.11872  0.01642  0.17403  1.0000
  C   C111      1.0  0.20982  0.42712  0.18230  1.0000
  H   H86       1.0  0.38766  0.12817  0.08409  1.0000
  C   C112      1.0  0.38365  0.37224  0.14689  1.0000
  C   C113      1.0  0.26431  0.31837  0.17258  1.0000
  C   C114      1.0  0.33333  0.12517  0.05811  1.0000
  C   C115      1.0  0.17975  0.41319  0.03316  1.0000
  C   C116      1.0  0.49517  0.17243  0.07971  1.0000
  H   H87       1.0  0.03810  0.09524  0.05497  1.0000
  C   C117      1.0  0.19027  0.05130  0.19636  1.0000
  C   C118      1.0  0.21249  0.18836  0.00554  1.0000
  C   C119      1.0  0.23689  0.20473  0.99547  1.0000
  C   C120      1.0  0.22828  0.23167  0.98561  1.0000
  C   C121      1.0  0.19522  0.24201  0.98567  1.0000
  C   C122      1.0  0.17038  0.22512  0.99547  1.0000
  C   C123      1.0  0.17939  0.19861  0.00563  1.0000
  P   P4        1.0  0.12775  0.23892  0.99569  1.0000
  C   C124      1.0  0.10116  0.20379  0.00154  1.0000
  C   C125      1.0  0.11899  0.26935  0.00892  1.0000
  C   C126      1.0  0.08611  0.27599  0.01455  1.0000
  C   C127      1.0  0.07900  0.30052  0.02428  1.0000
  C   C128      1.0  0.10464  0.31854  0.02848  1.0000
  C   C129      1.0  0.13739  0.31188  0.02302  1.0000
  C   C130      1.0  0.14460  0.28740  0.01326  1.0000
  H   H88       1.0  0.09172  0.29885  0.98418  1.0000
  H   H89       1.0  0.33251  0.38339  0.15349  1.0000
  H   H90       1.0  0.35352  0.33721  0.11227  1.0000
  C   C131      1.0  0.07475  0.16520  0.02168  1.0000
  C   C132      1.0  0.09432  0.19294  0.01695  1.0000
  C   C133      1.0  0.08777  0.18657  0.99091  1.0000
  C   C134      1.0  0.05253  0.42147  0.08266  1.0000
  C   C135      1.0  0.30527  0.43025  0.12343  1.0000
  H   H91       1.0  0.38540  0.47364  0.13486  1.0000
  C   C136      1.0  0.13403  0.24130  0.96424  1.0000
  C   C137      1.0  0.12050  0.25659  0.97692  1.0000
  H   H92       1.0  0.27139  0.43218  0.98243  1.0000
  H   H93       1.0  0.26261  0.19720  0.99568  1.0000
  C   C138      1.0  0.07350  0.27973  0.19347  1.0000
  H   H94       1.0  0.24737  0.24529  0.97822  1.0000
  H   H95       1.0  0.16116  0.18609  0.01381  1.0000
  H   H96       1.0  0.06598  0.26258  0.01117  1.0000
  H   H97       1.0  0.05360  0.30581  0.02844  1.0000
  H   H98       1.0  0.09924  0.33778  0.03590  1.0000
  H   H99       1.0  0.15724  0.32612  0.02613  1.0000
  H   H100      1.0  0.17012  0.28319  0.00888  1.0000
  H   H101      1.0  0.25655  0.49680  0.19227  1.0000
  C   C139      1.0  0.27356  0.27868  0.10173  1.0000
  H   H102      1.0  0.07030  0.15655  0.03361  1.0000
  H   H103      1.0  0.10457  0.20570  0.02531  1.0000
  S   S27       1.0  0.51106  0.09879  0.00131  1.0000
  C   C140      1.0  0.20572  0.40054  0.02382  1.0000
  H   H104      1.0  0.27375  0.29924  0.18043  1.0000
  H   H105      1.0  0.03211  0.38181  0.97892  1.0000
  H   H106      1.0  0.04597  0.12701  0.01470  1.0000
  C   C141      1.0  0.06115  0.04440  0.02764  1.0000
  H   H107      1.0  0.35481  0.43727  0.15510  1.0000
  C   C142      1.0  0.03491  0.02199  0.03086  1.0000
  C   C143      1.0  0.16186  0.14814  0.21343  1.0000
  H   H108      1.0  0.23595  0.39096  0.11685  1.0000
  C   C144      1.0  0.22858  0.44769  0.15653  1.0000
  H   H109      1.0  0.08836  0.31708  0.12409  1.0000
  C   C145      1.0  0.42444  0.48441  0.17478  1.0000
  C   C146      1.0  0.25484  0.07600  0.19321  1.0000
  C   C147      1.0  0.28556  0.27129  0.11570  1.0000
  H   H110      1.0  0.47411  0.02911  0.10216  1.0000
  C   C148      1.0  0.06131  0.14840  0.01104  1.0000
  H   H111      1.0  0.36043  0.08803  0.07085  1.0000
  C   C149      1.0  0.14473  0.01141  0.18314  1.0000
  C   C150      1.0  0.29557  0.46275  0.11908  1.0000
  H   H112      1.0  0.43478  0.20267  0.10403  1.0000
  H   H113      1.0  0.25950  0.31717  0.08528  1.0000
  C   C151      1.0  0.20311  0.33421  0.98125  1.0000
  S   S28       1.0  0.10558  0.38319  0.96884  1.0000
  H   H114      1.0  0.32917  0.42617  0.12753  1.0000
  H   H115      1.0  0.09153  0.45653  0.97119  1.0000
  H   H116      1.0  0.39244  0.38211  0.15646  1.0000
  C   C152      1.0  0.08354  0.25133  0.18661  1.0000
  H   H117      1.0  0.41425  0.05020  0.00565  1.0000
  C   C153      1.0  0.30145  0.47096  0.19813  1.0000
  C   C154      1.0  0.13236  0.05438  0.01745  1.0000
  C   C155      1.0  0.03672  0.07524  0.04800  1.0000
  C   C156      1.0  0.35520  0.11420  0.06860  1.0000
  C   C157      1.0  0.07203  0.44927  0.07793  1.0000
  C   C158      1.0  0.26722  0.44310  0.17544  1.0000
  C   C159      1.0  0.26463  0.46923  0.11400  1.0000
  H   H118      1.0  0.10341  0.38608  0.20645  1.0000
  H   H119      1.0  0.46828  0.28772  0.96794  1.0000
  H   H120      1.0  0.19006  0.41782  0.19069  1.0000
  C   C160      1.0  0.43176  0.47162  0.20545  1.0000
  C   C161      1.0  0.13799  0.08857  0.01548  1.0000
  H   H121      1.0  0.42143  0.23747  0.05674  1.0000
  H   H122      1.0  0.32152  0.10759  0.05224  1.0000
  H   H123      1.0  0.26801  0.25895  0.09525  1.0000
  H   H124      1.0  0.43242  0.35744  0.13789  1.0000
  P   P5        1.0  0.14807  0.03704  0.19817  1.0000
  H   H125      1.0  0.17457  0.40251  0.04477  1.0000
  S   S29       1.0  0.46992  0.34703  0.19464  1.0000
  C   C162      1.0  0.44607  0.19323  0.09383  1.0000
  C   C163      1.0  0.40630  0.35839  0.13637  1.0000
  C   C164      1.0  0.26867  0.31156  0.09614  1.0000
  H   H126      1.0  0.28932  0.24577  0.12008  1.0000
  H   H127      1.0  0.42948  0.17376  0.05939  1.0000
  C   C165      1.0  0.39524  0.34568  0.12397  1.0000
  C   C166      1.0  0.44318  0.17689  0.06882  1.0000
  C   C167      1.0  0.27564  0.33719  0.10449  1.0000
  H   H128      1.0  0.27932  0.46179  0.15194  1.0000
  C   C168      1.0  0.47979  0.18478  0.09274  1.0000
  C   C169      1.0  0.21302  0.41478  0.00893  1.0000
  C   C170      1.0  0.34985  0.37296  0.14516  1.0000
  C   C171      1.0  0.04911  0.32957  0.14084  1.0000
  C   C172      1.0  0.28361  0.32908  0.15914  1.0000
  C   C173      1.0  0.02745  0.42211  0.09475  1.0000
  C   C174      1.0  0.19130  0.07970  0.02501  1.0000
  C   C175      1.0  0.28653  0.32997  0.11882  1.0000
  C   C176      1.0  0.29194  0.29676  0.12423  1.0000
  H   H129      1.0  0.44224  0.07752  0.02406  1.0000
  S   S30       1.0  0.10792  0.47225  0.15291  1.0000
  C   C177      1.0  0.24353  0.44322  0.11305  1.0000
  H   H130      1.0  0.39705  0.18952  0.97111  1.0000
  C   C178      1.0  0.47684  0.16848  0.06776  1.0000
  H   H131      1.0  0.22059  0.37994  0.02819  1.0000
  H   H132      1.0  0.41286  0.33491  0.11583  1.0000
  H   H133      1.0  0.31174  0.48305  0.11995  1.0000
  H   H134      1.0  0.16665  0.16204  0.20250  1.0000
  H   H135      1.0  0.30102  0.29036  0.13508  1.0000
  H   H136      1.0  0.21760  0.32324  0.18608  1.0000
  C   C179      1.0  0.20318  0.43603  0.16745  1.0000
  H   H137      1.0  0.37699  0.43630  0.18432  1.0000
  C   C180      1.0  0.16084  0.43994  0.02762  1.0000
  Fe  Fe13      1.0  0.49534  0.31318  0.17877  1.0000
  C   C181      1.0  0.25369  0.50893  0.97287  1.0000
  H   H138      1.0  0.14087  0.44984  0.03493  1.0000
  H   H139      1.0  0.27947  0.08619  0.19201  1.0000
  C   C182      1.0  0.02070  0.36477  0.11670  1.0000
  C   C183      1.0  0.07803  0.39007  0.21117  1.0000
  H   H140      1.0  0.05806  0.39917  0.07725  1.0000
  C   C184      1.0  0.42278  0.03568  0.01535  1.0000
  H   H141      1.0  0.45997  0.42854  0.19932  1.0000
  H   H142      1.0  0.14902  0.21903  0.96558  1.0000
  P   P6        1.0  0.29490  0.36224  0.13026  1.0000
  C   C185      1.0  0.36152  0.34686  0.12205  1.0000
  Fe  Fe14      1.0  0.50581  0.12574  0.02208  1.0000
  C   C186      1.0  0.26043  0.45150  0.16049  1.0000
  C   C187      1.0  0.22030  0.35543  0.16529  1.0000
  H   H143      1.0  0.22845  0.38332  0.14380  1.0000
  C   C188      1.0  0.13069  0.09939  0.18509  1.0000
  C   C189      1.0  0.20829  0.05702  0.18201  1.0000
  C   C190      1.0  0.27124  0.35248  0.14847  1.0000
  C   C191      1.0  0.23924  0.36553  0.15168  1.0000
  C   C192      1.0  0.28401  0.40381  0.12276  1.0000
  C   C193      1.0  0.33853  0.36035  0.13270  1.0000
  H   H144      1.0  0.08810  0.25240  0.17443  1.0000
  H   H145      1.0  0.11703  0.14651  0.17407  1.0000
  H   H146      1.0  0.41870  0.28180  0.98667  1.0000
  H   H147      1.0  0.19577  0.36582  0.16765  1.0000
  P   P7        1.0  0.30746  0.45044  0.18108  1.0000
  C   C194      1.0  0.04973  0.06358  0.99268  1.0000
  H   H148      1.0  0.21367  0.08952  0.02827  1.0000
  C   C195      1.0  0.16725  0.10110  0.01932  1.0000
  C   C196      1.0  0.02331  0.45040  0.10247  1.0000
  C   C197      1.0  0.42465  0.26319  0.97894  1.0000
  C   C198      1.0  0.33026  0.41210  0.18450  1.0000
  S   S31       1.0  0.11268  0.47861  0.11610  1.0000
  C   C199      1.0  0.36441  0.41294  0.18549  1.0000
  H   H149      1.0  0.24647  0.42395  0.19790  1.0000
  H   H150      1.0  0.32113  0.32831  0.18926  1.0000
  H   H151      1.0  0.09683  0.19980  0.19013  1.0000
  C   C200      1.0  0.36892  0.48427  0.14347  1.0000
  Fe  Fe15      1.0  0.14863  0.47753  0.13368  1.0000
  C   C201      1.0  0.38262  0.38374  0.18800  1.0000
  C   C202      1.0  0.43873  0.05103  0.02568  1.0000
  C   C203      1.0  0.08306  0.06028  0.99543  1.0000
  H   H152      1.0  0.11952  0.10563  0.01126  1.0000
  C   C204      1.0  0.36698  0.35327  0.18940  1.0000
  C   C205      1.0  0.33304  0.35206  0.18828  1.0000
  H   H153      1.0  0.18926  0.26355  0.97823  1.0000
  Fe  Fe16      1.0  0.48933  0.38769  0.17721  1.0000
  H   H154      1.0  0.38339  0.23282  0.98842  1.0000
  H   H155      1.0  0.21929  0.44864  0.10939  1.0000
  H   H156      1.0  0.22337  0.45456  0.14502  1.0000
  C   C206      1.0  0.01972  0.34758  0.14356  1.0000
  H   H157      1.0  0.42140  0.48929  0.16292  1.0000
  C   C207      1.0  0.31464  0.38135  0.18586  1.0000
  C   C208      1.0  0.10161  0.28575  0.97478  1.0000
  P   P8        1.0  0.09406  0.03828  0.01279  1.0000
  C   C209      1.0  0.20485  0.05856  0.20908  1.0000
  C   C210      1.0  0.48424  0.02457  0.09086  1.0000
  C   C211      1.0  0.24176  0.43049  0.18629  1.0000
  C   C212      1.0  0.45005  0.03233  0.03815  1.0000
  Fe  Fe17      1.0  0.12575  0.02657  0.09858  1.0000
  H   H158      1.0  0.04222  0.09877  0.20633  1.0000
  C   C213      1.0  0.08268  0.22013  0.21118  1.0000
  C   C214      1.0  0.19331  0.33303  0.96683  1.0000
  C   C215      1.0  0.23714  0.07043  0.20749  1.0000
  S   S32       1.0  0.10445  0.02183  0.05837  1.0000
  C   C216      1.0  0.05214  0.37658  0.20493  1.0000
  H   H159      1.0  0.10938  0.14665  0.21241  1.0000
  C   C217      1.0  0.40464  0.23551  0.97992  1.0000
  C   C218      1.0  0.45261  0.26645  0.96832  1.0000
  C   C219      1.0  0.41407  0.49975  0.20030  1.0000
  H   H160      1.0  0.20428  0.02910  0.03176  1.0000
  C   C220      1.0  0.09938  0.08718  0.97023  1.0000
  C   C221      1.0  0.15677  0.03307  0.02317  1.0000
  H   H161      1.0  0.40899  0.38489  0.18869  1.0000
  C   C222      1.0  0.40988  0.50574  0.18498  1.0000
  H   H162      1.0  0.49402  0.18787  0.10200  1.0000
  H   H163      1.0  0.25388  0.07419  0.16933  1.0000
  H   H164      1.0  0.46146  0.04516  0.04612  1.0000
  C   C223      1.0  0.25829  0.42397  0.97366  1.0000
  H   H165      1.0  0.13377  0.06873  0.98571  1.0000
  C   C224      1.0  0.06819  0.27841  0.20923  1.0000
  S   S33       1.0  0.02299  0.49845  0.13581  1.0000
  H   H166      1.0  0.19746  0.05246  0.17195  1.0000
  C   C225      1.0  0.32440  0.46701  0.20882  1.0000
  C   C226      1.0  0.22575  0.43494  0.97197  1.0000
  C   C227      1.0  0.27375  0.49182  0.20067  1.0000
  H   H167      1.0  0.03901  0.50012  0.10356  1.0000
  H   H168      1.0  0.34672  0.45240  0.20702  1.0000
  C   C228      1.0  0.23371  0.49581  0.98583  1.0000
  C   C229      1.0  0.50970  0.01407  0.06148  1.0000
  H   H169      1.0  0.21978  0.50020  0.00962  1.0000
  C   C230      1.0  0.06676  0.47781  0.08528  1.0000
  C   C231      1.0  0.04136  0.07878  0.97884  1.0000
  H   H170      1.0  0.08234  0.49909  0.08186  1.0000
  C   C232      1.0  0.27392  0.40164  0.96427  1.0000
  H   H171      1.0  0.03016  0.05412  0.00112  1.0000
  S   S34       1.0  0.51175  0.35372  0.16065  1.0000
  Fe  Fe18      1.0  0.28944  0.09911  0.45076  1.0000
  S   S35       1.0  0.28576  0.09840  0.42584  1.0000
  H   H172      1.0  0.49991  0.19521  0.31271  1.0000
  Fe  Fe19      1.0  0.36227  0.08000  0.44763  1.0000
  S   S36       1.0  0.36434  0.07753  0.42272  1.0000
  Fe  Fe20      1.0  0.49350  0.33408  0.35859  1.0000
  Fe  Fe21      1.0  0.33475  0.12495  0.42276  1.0000
  S   S37       1.0  0.34861  0.16574  0.40376  1.0000
  Fe  Fe22      1.0  0.31556  0.05115  0.42795  1.0000
  H   H173      1.0  0.33915  0.38705  0.40220  1.0000
  S   S38       1.0  0.33579  0.12917  0.44748  1.0000
  S   S39       1.0  0.31621  0.05014  0.45300  1.0000
  H   H174      1.0  0.33748  0.48045  0.22996  1.0000
  Fe  Fe23      1.0  0.07048  0.09448  0.26473  1.0000
  S   S40       1.0  0.10487  0.10004  0.28228  1.0000
  S   S41       1.0  0.08112  0.11231  0.24004  1.0000
  H   H175      1.0  0.21455  0.08007  0.44276  1.0000
  S   S42       1.0  0.04614  0.06839  0.30654  1.0000
  C   C233      1.0  0.36048  0.23590  0.28416  1.0000
  Fe  Fe24      1.0  0.05886  0.11901  0.29534  1.0000
  H   H176      1.0  0.24797  0.07665  0.21733  1.0000
  Fe  Fe25      1.0  0.08817  0.04853  0.29148  1.0000
  H   H177      1.0  0.19835  0.02071  0.36764  1.0000
  S   S43       1.0  0.05692  0.04202  0.27298  1.0000
  C   C234      1.0  0.03836  0.41518  0.22895  1.0000
  H   H178      1.0  0.41826  0.20659  0.22519  1.0000
  Fe  Fe26      1.0  0.46717  0.32127  0.39176  1.0000
  C   C235      1.0  0.45918  0.34893  0.26772  1.0000
  S   S44       1.0  0.43817  0.28868  0.41077  1.0000
  Fe  Fe27      1.0  0.47688  0.39313  0.37725  1.0000
  S   S45       1.0  0.45291  0.44487  0.37416  1.0000
  S   S46       1.0  0.44693  0.35049  0.37198  1.0000
  P   P9        1.0  0.06546  0.24561  0.23849  1.0000
  C   C236      1.0  0.46477  0.48363  0.37932  1.0000
  H   H179      1.0  0.39851  0.14319  0.38119  1.0000
  C   C237      1.0  0.31398  0.43248  0.40742  1.0000
  S   S47       1.0  0.49403  0.36495  0.39811  1.0000
  H   H180      1.0  0.47706  0.33125  0.30394  1.0000
  H   H181      1.0  0.22125  0.06517  0.31335  1.0000
  C   C238      1.0  0.20611  0.04695  0.32049  1.0000
  C   C239      1.0  0.02655  0.22434  0.24246  1.0000
  C   C240      1.0  0.02582  0.18992  0.24604  1.0000
  H   H182      1.0  0.11974  0.02740  0.25350  1.0000
  C   C241      1.0  0.07116  0.40926  0.22319  1.0000
  C   C242      1.0  0.36609  0.10693  0.37559  1.0000
  H   H183      1.0  0.49933  0.27813  0.24309  1.0000
  C   C243      1.0  0.09177  0.20980  0.26262  1.0000
  C   C244      1.0  0.50289  0.12557  0.43085  1.0000
  H   H184      1.0  0.06318  0.36989  0.26236  1.0000
  C   C245      1.0  0.13054  0.03103  0.22932  1.0000
  C   C246      1.0  0.39161  0.06356  0.36163  1.0000
  H   H185      1.0  0.50755  0.25603  0.35077  1.0000
  C   C247      1.0  0.12239  0.12276  0.23350  1.0000
  C   C248      1.0  0.14844  0.11345  0.24209  1.0000
  C   C249      1.0  0.18119  0.12142  0.23630  1.0000
  H   H186      1.0  0.19140  0.05570  0.22022  1.0000
  H   H187      1.0  0.47918  0.04812  0.42609  1.0000
  H   H188      1.0  0.14352  0.09968  0.25305  1.0000
  H   H189      1.0  0.20130  0.11409  0.24293  1.0000
  H   H190      1.0  0.15965  0.01378  0.27572  1.0000
  C   C250      1.0  0.49267  0.18069  0.32338  1.0000
  H   H191      1.0  0.03177  0.21853  0.32502  1.0000
  C   C251      1.0  0.49624  0.09064  0.37495  1.0000
  C   C252      1.0  0.37335  0.19995  0.40587  1.0000
  C   C253      1.0  0.38730  0.21958  0.39294  1.0000
  C   C254      1.0  0.40702  0.24697  0.39420  1.0000
  C   C255      1.0  0.41267  0.25522  0.40846  1.0000
  C   C256      1.0  0.39840  0.23581  0.42138  1.0000
  C   C257      1.0  0.37907  0.20820  0.42011  1.0000
  H   H192      1.0  0.38296  0.21345  0.38189  1.0000
  H   H193      1.0  0.41789  0.26164  0.38417  1.0000
  H   H194      1.0  0.40266  0.24194  0.43244  1.0000
  H   H195      1.0  0.36839  0.19346  0.43014  1.0000
  C   C258      1.0  0.42063  0.23459  0.28064  1.0000
  H   H196      1.0  0.39110  0.19258  0.31429  1.0000
  C   C259      1.0  0.12930  0.13982  0.21914  1.0000
  H   H197      1.0  0.44069  0.18392  0.35567  1.0000
  C   C260      1.0  0.45802  0.24088  0.21880  1.0000
  C   C261      1.0  0.16637  0.37503  0.45110  1.0000
  H   H198      1.0  0.02173  0.18289  0.28249  1.0000
  C   C262      1.0  0.46535  0.14965  0.38470  1.0000
  C   C263      1.0  0.27092  0.02499  0.38270  1.0000
  C   C264      1.0  0.47670  0.14479  0.35170  1.0000
  C   C265      1.0  0.09757  0.22203  0.24734  1.0000
  H   H199      1.0  0.49289  0.14695  0.43602  1.0000
  C   C266      1.0  0.02904  0.19710  0.30425  1.0000
  C   C267      1.0  0.48089  0.26092  0.22388  1.0000
  C   C268      1.0  0.12887  0.21712  0.23946  1.0000
  H   H200      1.0  0.33765  0.20978  0.30475  1.0000
  C   C269      1.0  0.17170  0.04845  0.32068  1.0000
  S   S48       1.0  0.49752  0.32084  0.33453  1.0000
  C   C270      1.0  0.39715  0.12065  0.37590  1.0000
  H   H201      1.0  0.16008  0.06760  0.31361  1.0000
  C   C271      1.0  0.43044  0.03581  0.45686  1.0000
  H   H202      1.0  0.50347  0.46442  0.39243  1.0000
  C   C272      1.0  0.08822  0.30887  0.24026  1.0000
  H   H203      1.0  0.12547  0.02620  0.33001  1.0000
  H   H204      1.0  0.10678  0.35725  0.24198  1.0000
  H   H205      1.0  0.23109  0.03367  0.46031  1.0000
  H   H206      1.0  0.10770  0.30346  0.23155  1.0000
  H   H207      1.0  0.46004  0.05368  0.38452  1.0000
  C   C273      1.0  0.42275  0.07719  0.36196  1.0000
  H   H208      1.0  0.17706  0.19410  0.24033  1.0000
  C   C274      1.0  0.36571  0.42973  0.39139  1.0000
  C   C275      1.0  0.50174  0.25235  0.43507  1.0000
  H   H209      1.0  0.22502  0.05239  0.38484  1.0000
  P   P10       1.0  0.46621  0.12239  0.37006  1.0000
  H   H210      1.0  0.33711  0.24388  0.28012  1.0000
  H   H211      1.0  0.49408  0.22783  0.45764  1.0000
  H   H212      1.0  0.01833  0.21309  0.35776  1.0000
  H   H213      1.0  0.46650  0.37909  0.28536  1.0000
  Fe  Fe28      1.0  0.01584  0.06406  0.28758  1.0000
  H   H214      1.0  0.17604  0.32677  0.46178  1.0000
  C   C276      1.0  0.11606  0.19112  0.26968  1.0000
  C   C277      1.0  0.48603  0.05934  0.38182  1.0000
  C   C278      1.0  0.34105  0.48324  0.39615  1.0000
  C   C279      1.0  0.17574  0.05348  0.43505  1.0000
  H   H215      1.0  0.34418  0.11858  0.38091  1.0000
  H   H216      1.0  0.33920  0.06752  0.36852  1.0000
  S   S49       1.0  0.02550  0.11592  0.27736  1.0000
  S   S50       1.0  0.22902  0.14909  0.21495  1.0000
  C   C280      1.0  0.39029  0.24510  0.27554  1.0000
  H   H217      1.0  0.33861  0.49980  0.36508  1.0000
  C   C281      1.0  0.48126  0.26270  0.23935  1.0000
  C   C282      1.0  0.08782  0.33933  0.24618  1.0000
  C   C283      1.0  0.42586  0.10520  0.36956  1.0000
  H   H218      1.0  0.46326  0.20739  0.41664  1.0000
  H   H219      1.0  0.38577  0.41539  0.38609  1.0000
  C   C284      1.0  0.50948  0.03503  0.38562  1.0000
  S   S51       1.0  0.05527  0.16310  0.30907  1.0000
  C   C285      1.0  0.33949  0.41383  0.40049  1.0000
  H   H220      1.0  0.16534  0.17024  0.26697  1.0000
  C   C286      1.0  0.31476  0.46706  0.40532  1.0000
  C   C287      1.0  0.06335  0.34642  0.25768  1.0000
  H   H221      1.0  0.49456  0.18827  0.37113  1.0000
  H   H222      1.0  0.13889  0.02091  0.42966  1.0000
  H   H223      1.0  0.45756  0.09869  0.43704  1.0000
  C   C288      1.0  0.01581  0.20079  0.29044  1.0000
  H   H224      1.0  0.29485  0.48090  0.41085  1.0000
  C   C289      1.0  0.48259  0.09813  0.43146  1.0000
  H   H225      1.0  0.06837  0.21451  0.26905  1.0000
  C   C290      1.0  0.36331  0.07824  0.36859  1.0000
  C   C291      1.0  0.02153  0.22112  0.31433  1.0000
  C   C292      1.0  0.03962  0.32281  0.26345  1.0000
  H   H226      1.0  0.01200  0.50000  0.30838  1.0000
  C   C293      1.0  0.44930  0.13984  0.39912  1.0000
  C   C294      1.0  0.44831  0.16078  0.41052  1.0000
  C   C295      1.0  0.46432  0.19110  0.40779  1.0000
  H   H227      1.0  0.38968  0.26057  0.26495  1.0000
  H   H228      1.0  0.16837  0.07419  0.42747  1.0000
  H   H229      1.0  0.04851  0.17561  0.24690  1.0000
  P   P11       1.0  0.45896  0.24781  0.26980  1.0000
  C   C296      1.0  0.15445  0.40698  0.45299  1.0000
  H   H230      1.0  0.43693  0.11628  0.40152  1.0000
  H   H231      1.0  0.43465  0.15371  0.42144  1.0000
  H   H232      1.0  0.03368  0.43054  0.23810  1.0000
  H   H233      1.0  0.17495  0.36842  0.43990  1.0000
  C   C297      1.0  0.42074  0.21601  0.29478  1.0000
  C   C298      1.0  0.45767  0.31678  0.26374  1.0000
  C   C299      1.0  0.18796  0.13881  0.22194  1.0000
  H   H234      1.0  0.15376  0.42514  0.44326  1.0000
  H   H235      1.0  0.40338  0.49663  0.40551  1.0000
  C   C300      1.0  0.22344  0.01434  0.36997  1.0000
  C   C301      1.0  0.48957  0.18692  0.27622  1.0000
  H   H236      1.0  0.11099  0.18108  0.28141  1.0000
  C   C302      1.0  0.14668  0.18522  0.26161  1.0000
  C   C303      1.0  0.15322  0.19859  0.24657  1.0000
  H   H237      1.0  0.48833  0.44849  0.23761  1.0000
  C   C304      1.0  0.06392  0.28538  0.24572  1.0000
  C   C305      1.0  0.23853  0.03258  0.37961  1.0000
  H   H238      1.0  0.05996  0.30052  0.21430  1.0000
  H   H239      1.0  0.48633  0.27362  0.43760  1.0000
  C   C306      1.0  0.15215  0.02497  0.32988  1.0000
  C   C307      1.0  0.46606  0.35418  0.28220  1.0000
  C   C308      1.0  0.36077  0.21672  0.29805  1.0000
  C   C309      1.0  0.21152  0.03008  0.45342  1.0000
  H   H240      1.0  0.45463  0.36975  0.25958  1.0000
  H   H241      1.0  0.44445  0.06565  0.35647  1.0000
  C   C310      1.0  0.47094  0.29510  0.28864  1.0000
  H   H242      1.0  0.45113  0.31347  0.25264  1.0000
  C   C311      1.0  0.39089  0.20693  0.30339  1.0000
  C   C312      1.0  0.12534  0.01387  0.24373  1.0000
  C   C313      1.0  0.49004  0.48633  0.38849  1.0000
  C   C314      1.0  0.22095  0.02184  0.32947  1.0000
  C   C315      1.0  0.50596  0.22648  0.44629  1.0000
  H   H243      1.0  0.24057  0.02289  0.41629  1.0000
  C   C316      1.0  0.49288  0.22138  0.27508  1.0000
  C   C317      1.0  0.43598  0.22420  0.24468  1.0000
  H   H244      1.0  0.41889  0.20921  0.25252  1.0000
  C   C318      1.0  0.50011  0.46453  0.22821  1.0000
  H   H245      1.0  0.47504  0.27457  0.29700  1.0000
  S   S52       1.0  0.40775  0.07233  0.45988  1.0000
  C   C319      1.0  0.49468  0.06970  0.42519  1.0000
  H   H246      1.0  0.12884  0.05770  0.22816  1.0000
  C   C320      1.0  0.43574  0.22235  0.22919  1.0000
  C   C321      1.0  0.47200  0.32728  0.29264  1.0000
  C   C322      1.0  0.45822  0.24512  0.24985  1.0000
  C   C323      1.0  0.46795  0.19242  0.33368  1.0000
  C   C324      1.0  0.04012  0.29228  0.25762  1.0000
  H   H247      1.0  0.45576  0.21594  0.33094  1.0000
  C   C325      1.0  0.48070  0.20092  0.39354  1.0000
  C   C326      1.0  0.45978  0.17441  0.34774  1.0000
  H   H248      1.0  0.08574  0.19681  0.21793  1.0000
  H   H249      1.0  0.29372  0.42003  0.41449  1.0000
  C   C327      1.0  0.20190  0.05672  0.44360  1.0000
  C   C328      1.0  0.13867  0.01401  0.21657  1.0000
  C   C329      1.0  0.46409  0.28958  0.27410  1.0000
  H   H250      1.0  0.46681  0.17617  0.27390  1.0000
  C   C330      1.0  0.36647  0.46421  0.38921  1.0000
  C   C331      1.0  0.48146  0.18022  0.38203  1.0000
  H   H251      1.0  0.44377  0.20888  0.29930  1.0000
  H   H252      1.0  0.49217  0.22496  0.39138  1.0000
  H   H253      1.0  0.38940  0.04152  0.35605  1.0000
  H   H254      1.0  0.13462  0.22719  0.22782  1.0000
  C   C332      1.0  0.07337  0.24864  0.21819  1.0000
  H   H255      1.0  0.02231  0.27397  0.26266  1.0000
  H   H256      1.0  0.38721  0.47595  0.38222  1.0000
  C   C333      1.0  0.31912  0.48277  0.22201  1.0000
  H   H257      1.0  0.28243  0.03873  0.39041  1.0000
  C   C334      1.0  0.29092  0.50250  0.22467  1.0000
  C   C335      1.0  0.01216  0.40206  0.22260  1.0000
  C   C336      1.0  0.48993  0.49757  0.22585  1.0000
  H   H258      1.0  0.24762  0.02116  0.32938  1.0000
  C   C337      1.0  0.15910  0.02356  0.43634  1.0000
  C   C338      1.0  0.50089  0.13272  0.34113  1.0000
  H   H259      1.0  0.09129  0.42003  0.22789  1.0000
  C   C339      1.0  0.46380  0.03359  0.45955  1.0000
  C   C340      1.0  0.50902  0.15083  0.32708  1.0000
  H   H260      1.0  0.02116  0.32779  0.27269  1.0000
  H   H261      1.0  0.47540  0.05444  0.46326  1.0000
  H   H262      1.0  0.47010  0.50714  0.23337  1.0000
  H   H263      1.0  0.43427  0.46644  0.21735  1.0000
  H   H264      1.0  0.49820  0.27529  0.21583  1.0000
  S   S53       1.0  0.51153  0.30171  0.37792  1.0000
  H   H265      1.0  0.50151  0.01091  0.39092  1.0000
  C   C341      1.0  0.16701  0.35138  0.46360  1.0000
  C   C342      1.0  0.26841  0.50728  0.21393  1.0000
  Fe  Fe29      1.0  0.18185  0.21246  0.53037  1.0000
  S   S54       1.0  0.14046  0.17602  0.53356  1.0000
  S   S55       1.0  0.22750  0.21377  0.51330  1.0000
  Fe  Fe30      1.0  0.15078  0.25136  0.55585  1.0000
  S   S56       1.0  0.10716  0.21779  0.56120  1.0000
  S   S57       1.0  0.15198  0.29553  0.56894  1.0000
  Fe  Fe31      1.0  0.14485  0.17688  0.55830  1.0000
  S   S58       1.0  0.14263  0.13167  0.57527  1.0000
  Fe  Fe32      1.0  0.10667  0.22036  0.53612  1.0000
  S   S59       1.0  0.06199  0.23086  0.52328  1.0000
  S   S60       1.0  0.18838  0.21043  0.55503  1.0000
  S   S61       1.0  0.14781  0.25656  0.53099  1.0000
  Fe  Fe33      1.0  0.26492  0.45978  0.60238  1.0000
  S   S62       1.0  0.31193  0.43252  0.59546  1.0000
  S   S63       1.0  0.24359  0.45229  0.62702  1.0000
  S   S64       1.0  0.30348  0.46433  0.56123  1.0000
  Fe  Fe34      1.0  0.28474  0.41981  0.57643  1.0000
  S   S65       1.0  0.28749  0.36864  0.56849  1.0000
  Fe  Fe35      1.0  0.32705  0.47940  0.58107  1.0000
  S   S66       1.0  0.23692  0.44438  0.58412  1.0000
  Fe  Fe36      1.0  0.15091  0.23118  0.68646  1.0000
  S   S67       1.0  0.11672  0.25128  0.66973  1.0000
  S   S68       1.0  0.16547  0.17730  0.68737  1.0000
  H   H266      1.0  0.16803  0.47001  0.55243  1.0000
  S   S69       1.0  0.11203  0.31949  0.68672  1.0000
  Fe  Fe37      1.0  0.08605  0.27051  0.68929  1.0000
  S   S70       1.0  0.03032  0.26447  0.69460  1.0000
  Fe  Fe38      1.0  0.14564  0.29810  0.66839  1.0000
  S   S71       1.0  0.15947  0.32169  0.64456  1.0000
  C   C343      1.0  0.24476  0.46655  0.69661  1.0000
  S   S72       1.0  0.18273  0.27607  0.68362  1.0000
  Fe  Fe39      1.0  0.28166  0.04877  0.61790  1.0000
  S   S73       1.0  0.32844  0.06337  0.62649  1.0000
  S   S74       1.0  0.27775  0.06576  0.59328  1.0000
  Fe  Fe40      1.0  0.29450  0.07935  0.64591  1.0000
  S   S75       1.0  0.30031  0.12976  0.65355  1.0000
  H   H267      1.0  0.28294  0.03337  0.70199  1.0000
  S   S76       1.0  0.24782  0.06827  0.63647  1.0000
  C   C344      1.0  0.24798  0.34401  0.51882  1.0000
  C   C345      1.0  0.22848  0.09311  0.52424  1.0000
  H   H268      1.0  0.01679  0.39437  0.63703  1.0000
  C   C346      1.0  0.40169  0.31419  0.60283  1.0000
  C   C347      1.0  0.20276  0.16511  0.67749  1.0000
  C   C348      1.0  0.20887  0.13136  0.67649  1.0000
  C   C349      1.0  0.23856  0.12053  0.66893  1.0000
  C   C350      1.0  0.26258  0.14339  0.66256  1.0000
  C   C351      1.0  0.25655  0.17720  0.66356  1.0000
  C   C352      1.0  0.22654  0.18813  0.67094  1.0000
  H   H269      1.0  0.19052  0.11348  0.68152  1.0000
  H   H270      1.0  0.24304  0.09440  0.66823  1.0000
  H   H271      1.0  0.27494  0.19489  0.65847  1.0000
  H   H272      1.0  0.22191  0.21418  0.67173  1.0000
  C   C353      1.0  0.38761  0.37379  0.58209  1.0000
  H   H273      1.0  0.10549  0.27642  0.49910  1.0000
  H   H274      1.0  0.10725  0.21931  0.49297  1.0000
  H   H275      1.0  0.32367  0.32895  0.65616  1.0000
  Fe  Fe41      1.0  0.32775  0.01323  0.63939  1.0000
  H   H276      1.0  0.36442  0.40727  0.54226  1.0000
  Fe  Fe42      1.0  0.14734  0.29462  0.70221  1.0000
  C   C354      1.0  0.22169  0.41509  0.63231  1.0000
  C   C355      1.0  0.20750  0.40728  0.64726  1.0000
  C   C356      1.0  0.18878  0.37836  0.65134  1.0000
  C   C357      1.0  0.18359  0.35757  0.64038  1.0000
  C   C358      1.0  0.19787  0.36541  0.62551  1.0000
  C   C359      1.0  0.21761  0.39344  0.62160  1.0000
  H   H277      1.0  0.21053  0.42380  0.65566  1.0000
  H   H278      1.0  0.17756  0.37264  0.66282  1.0000
  H   H279      1.0  0.19357  0.34967  0.61694  1.0000
  H   H280      1.0  0.22891  0.39871  0.61017  1.0000
  C   C360      1.0  0.19080  0.31274  0.57001  1.0000
  C   C361      1.0  0.21908  0.30341  0.56098  1.0000
  C   C362      1.0  0.24897  0.32003  0.56099  1.0000
  C   C363      1.0  0.25071  0.34596  0.56999  1.0000
  C   C364      1.0  0.22273  0.35437  0.57942  1.0000
  C   C365      1.0  0.19291  0.33771  0.57945  1.0000
  H   H281      1.0  0.21767  0.28409  0.55369  1.0000
  H   H282      1.0  0.27046  0.31357  0.55361  1.0000
  H   H283      1.0  0.22392  0.37389  0.58657  1.0000
  H   H284      1.0  0.17129  0.34445  0.58666  1.0000
  C   C366      1.0  0.23103  0.18463  0.49990  1.0000
  C   C367      1.0  0.20569  0.16244  0.49928  1.0000
  C   C368      1.0  0.20969  0.13838  0.48906  1.0000
  H   H285      1.0  0.18299  0.16384  0.50666  1.0000
  H   H286      1.0  0.19008  0.12106  0.48878  1.0000
  C   C369      1.0  0.18073  0.11476  0.58037  1.0000
  C   C370      1.0  0.21080  0.12323  0.57178  1.0000
  C   C371      1.0  0.24052  0.10819  0.57585  1.0000
  C   C372      1.0  0.24043  0.08535  0.58876  1.0000
  C   C373      1.0  0.21048  0.07741  0.59749  1.0000
  C   C374      1.0  0.18072  0.09169  0.59314  1.0000
  H   H287      1.0  0.21102  0.14039  0.56170  1.0000
  H   H288      1.0  0.26356  0.11406  0.56893  1.0000
  H   H289      1.0  0.21017  0.05973  0.60740  1.0000
  H   H290      1.0  0.15758  0.08527  0.59980  1.0000
  C   C375      1.0  0.03084  0.25800  0.53024  1.0000
  H   H291      1.0  0.23886  0.47825  0.65880  1.0000
  C   C376      1.0  0.25985  0.18344  0.48976  1.0000
  H   H292      1.0  0.05027  0.26073  0.55141  1.0000
  H   H293      1.0  0.03280  0.44556  0.54431  1.0000
  C   C377      1.0  0.23912  0.13622  0.47939  1.0000
  C   C378      1.0  0.02632  0.33781  0.66697  1.0000
  H   H294      1.0  0.29663  0.22521  0.67716  1.0000
  H   H295      1.0  0.16557  0.40990  0.58798  1.0000
  C   C379      1.0  0.10668  0.48982  0.52170  1.0000
  H   H296      1.0  0.04594  0.23539  0.66602  1.0000
  H   H297      1.0  0.40525  0.04363  0.63252  1.0000
  H   H298      1.0  0.24160  0.31499  0.63707  1.0000
  H   H299      1.0  0.01718  0.44793  0.58208  1.0000
  H   H300      1.0  0.01708  0.33193  0.67876  1.0000
  H   H301      1.0  0.29968  0.47031  0.71124  1.0000
  C   C380      1.0  0.15576  0.35958  0.47814  1.0000
  C   C381      1.0  0.26410  0.15909  0.47965  1.0000
  H   H302      1.0  0.24915  0.32744  0.60909  1.0000
  C   C382      1.0  0.10021  0.50063  0.50696  1.0000
  C   C383      1.0  0.32144  0.19222  0.61489  1.0000
  H   H303      1.0  0.22468  0.34357  0.67675  1.0000
  C   C384      1.0  0.45868  0.39179  0.59276  1.0000
  C   C385      1.0  0.31520  0.05720  0.54259  1.0000
  C   C386      1.0  0.18544  0.24131  0.47842  1.0000
  H   H304      1.0  0.48464  0.37761  0.63332  1.0000
  H   H305      1.0  0.06035  0.29666  0.66681  1.0000
  Fe  Fe43      1.0  0.25688  0.49020  0.57019  1.0000
  H   H306      1.0  0.23238  0.38669  0.54617  1.0000
  H   H307      1.0  0.44854  0.46306  0.61728  1.0000
  H   H308      1.0  0.15824  0.19621  0.47976  1.0000
  C   C387      1.0  0.40737  0.24494  0.60564  1.0000
  H   H309      1.0  0.12839  0.45568  0.57587  1.0000
  C   C388      1.0  0.03386  0.06544  0.65912  1.0000
  C   C389      1.0  0.34493  0.03628  0.56886  1.0000
  H   H310      1.0  0.24595  0.18617  0.57259  1.0000
  H   H311      1.0  0.22692  0.05855  0.70132  1.0000
  C   C390      1.0  0.20248  0.01173  0.70311  1.0000
  H   H312      1.0  0.19280  0.38838  0.49879  1.0000
  H   H313      1.0  0.43600  0.31242  0.58264  1.0000
  C   C391      1.0  0.25955  0.24382  0.61152  1.0000
  C   C392      1.0  0.38156  0.41959  0.56279  1.0000
  C   C393      1.0  0.05916  0.34596  0.51043  1.0000
  S   S77       1.0  0.37938  0.50154  0.57630  1.0000
  C   C394      1.0  0.45802  0.03368  0.63129  1.0000
  C   C395      1.0  0.09776  0.47798  0.55919  1.0000
  C   C396      1.0  0.29912  0.18306  0.60524  1.0000
  P   P12       1.0  0.10309  0.44425  0.54753  1.0000
  C   C397      1.0  0.14407  0.42602  0.54741  1.0000
  C   C398      1.0  0.07055  0.41530  0.55448  1.0000
  C   C399      1.0  0.07686  0.38564  0.56329  1.0000
  C   C400      1.0  0.05165  0.36265  0.56757  1.0000
  C   C401      1.0  0.32169  0.22996  0.69686  1.0000
  C   C402      1.0  0.08701  0.47900  0.49818  1.0000
  C   C403      1.0  0.03830  0.42238  0.55077  1.0000
  C   C404      1.0  0.14966  0.39370  0.54358  1.0000
  C   C405      1.0  0.18127  0.37939  0.54328  1.0000
  C   C406      1.0  0.20778  0.39758  0.54646  1.0000
  C   C407      1.0  0.20261  0.42993  0.55003  1.0000
  C   C408      1.0  0.17105  0.44442  0.55022  1.0000
  C   C409      1.0  0.09874  0.45754  0.52795  1.0000
  C   C410      1.0  0.33916  0.19296  0.67779  1.0000
  C   C411      1.0  0.18478  0.27399  0.48194  1.0000
  C   C412      1.0  0.15415  0.42988  0.60929  1.0000
  C   C413      1.0  0.08079  0.44627  0.50403  1.0000
  C   C414      1.0  0.08681  0.43551  0.51883  1.0000
  C   C415      1.0  0.11322  0.47672  0.57249  1.0000
  H   H314      1.0  0.39578  0.46768  0.60544  1.0000
  C   C416      1.0  0.25471  0.23697  0.62730  1.0000
  H   H315      1.0  0.31193  0.25886  0.58378  1.0000
  H   H316      1.0  0.10125  0.37985  0.56666  1.0000
  H   H317      1.0  0.05701  0.33931  0.57387  1.0000
  H   H318      1.0  0.31157  0.32698  0.70854  1.0000
  C   C417      1.0  0.22999  0.03189  0.70249  1.0000
  C   C418      1.0  0.12028  0.06928  0.70586  1.0000
  H   H319      1.0  0.12952  0.37948  0.54096  1.0000
  C   C419      1.0  0.15591  0.28745  0.48923  1.0000
  H   H320      1.0  0.22331  0.44400  0.55241  1.0000
  H   H321      1.0  0.17829  0.02287  0.70221  1.0000
  H   H322      1.0  0.43230  0.35427  0.62774  1.0000
  H   H323      1.0  0.03835  0.14396  0.66869  1.0000
  H   H324      1.0  0.20228  0.01518  0.52559  1.0000
  P   P13       1.0  0.15579  0.32926  0.49444  1.0000
  H   H325      1.0  0.08115  0.41029  0.52330  1.0000
  C   C420      1.0  0.11358  0.04532  0.69658  1.0000
  H   H326      1.0  0.18520  0.35403  0.54076  1.0000
  H   H327      1.0  0.23256  0.46737  0.52545  1.0000
  C   C421      1.0  0.25449  0.30793  0.68898  1.0000
  H   H328      1.0  0.39123  0.18629  0.70516  1.0000
  H   H329      1.0  0.08095  0.48783  0.48696  1.0000
  C   C422      1.0  0.25123  0.30224  0.61422  1.0000
  C   C423      1.0  0.47714  0.49138  0.59881  1.0000
  C   C424      1.0  0.19225  0.33514  0.50376  1.0000
  P   P14       1.0  0.26552  0.20995  0.60002  1.0000
  C   C425      1.0  0.22688  0.18831  0.60381  1.0000
  C   C426      1.0  0.22343  0.16036  0.61449  1.0000
  C   C427      1.0  0.19276  0.14503  0.61805  1.0000
  C   C428      1.0  0.16539  0.15747  0.61102  1.0000
  C   C429      1.0  0.16859  0.18543  0.60050  1.0000
  C   C430      1.0  0.19912  0.20107  0.59702  1.0000
  C   C431      1.0  0.27627  0.22266  0.58019  1.0000
  C   C432      1.0  0.26327  0.20609  0.56927  1.0000
  C   C433      1.0  0.27273  0.21494  0.55391  1.0000
  C   C434      1.0  0.29572  0.23995  0.54935  1.0000
  C   C435      1.0  0.30980  0.25567  0.56017  1.0000
  C   C436      1.0  0.30040  0.24683  0.57554  1.0000
  H   H330      1.0  0.25797  0.28254  0.59293  1.0000
  C   C437      1.0  0.24859  0.26264  0.63647  1.0000
  C   C438      1.0  0.32905  0.08030  0.55056  1.0000
  H   H331      1.0  0.13839  0.44321  0.63157  1.0000
  H   H332      1.0  0.24424  0.15038  0.62016  1.0000
  H   H333      1.0  0.19032  0.12315  0.62610  1.0000
  H   H334      1.0  0.14187  0.14502  0.61348  1.0000
  H   H335      1.0  0.14756  0.19451  0.59479  1.0000
  H   H336      1.0  0.20107  0.22301  0.58899  1.0000
  S   S78       1.0  0.28137  0.50831  0.58919  1.0000
  H   H337      1.0  0.26202  0.20249  0.54552  1.0000
  H   H338      1.0  0.30269  0.24696  0.53743  1.0000
  H   H339      1.0  0.15291  0.01786  0.61499  1.0000
  H   H340      1.0  0.12321  0.50270  0.59118  1.0000
  C   C439      1.0  0.34866  0.21890  0.70466  1.0000
  C   C440      1.0  0.26155  0.01768  0.70282  1.0000
  C   C441      1.0  0.29995  0.04225  0.51230  1.0000
  C   C442      1.0  0.41667  0.49646  0.58526  1.0000
  P   P15       1.0  0.29334  0.07082  0.52650  1.0000
  S   S79       1.0  0.11849  0.24745  0.70625  1.0000
  C   C443      1.0  0.30842  0.11065  0.51803  1.0000
  C   C444      1.0  0.29580  0.13973  0.52380  1.0000
  C   C445      1.0  0.30799  0.17047  0.51739  1.0000
  C   C446      1.0  0.33272  0.17244  0.50519  1.0000
  C   C447      1.0  0.34523  0.14366  0.49932  1.0000
  C   C448      1.0  0.33325  0.11287  0.50573  1.0000
  C   C449      1.0  0.07664  0.50479  0.55560  1.0000
  H   H341      1.0  0.08731  0.34485  0.48877  1.0000
  C   C450      1.0  0.24970  0.07384  0.53304  1.0000
  H   H342      1.0  0.39651  0.42507  0.58455  1.0000
  H   H343      1.0  0.38309  0.44578  0.55909  1.0000
  C   C451      1.0  0.20315  0.06142  0.55220  1.0000
  C   C452      1.0  0.23671  0.05795  0.54710  1.0000
  C   C453      1.0  0.33126  0.13281  0.60189  1.0000
  H   H344      1.0  0.28741  0.14572  0.59123  1.0000
  C   C454      1.0  0.11006  0.50321  0.58129  1.0000
  C   C455      1.0  0.34391  0.06981  0.56361  1.0000
  H   H345      1.0  0.27637  0.13872  0.53315  1.0000
  H   H346      1.0  0.29744  0.19287  0.52154  1.0000
  H   H347      1.0  0.34157  0.19631  0.50001  1.0000
  H   H348      1.0  0.36390  0.14514  0.48964  1.0000
  H   H349      1.0  0.34334  0.09101  0.50091  1.0000
  H   H350      1.0  0.03575  0.35049  0.50579  1.0000
  H   H351      1.0  0.33428  0.28743  0.67736  1.0000
  P   P16       1.0  0.39833  0.35877  0.60066  1.0000
  C   C456      1.0  0.24478  0.45908  0.68173  1.0000
  H   H352      1.0  0.19357  0.05019  0.56330  1.0000
  H   H353      1.0  0.03691  0.34325  0.53344  1.0000
  C   C457      1.0  0.11892  0.10276  0.70050  1.0000
  H   H354      1.0  0.17524  0.44617  0.60760  1.0000
  C   C458      1.0  0.25330  0.23857  0.71139  1.0000
  C   C459      1.0  0.01982  0.36951  0.56346  1.0000
  H   H355      1.0  0.40931  0.21820  0.60661  1.0000
  C   C460      1.0  0.25679  0.27660  0.60503  1.0000
  H   H356      1.0  0.24198  0.39580  0.51184  1.0000
  C   C461      1.0  0.48816  0.40498  0.59603  1.0000
  C   C462      1.0  0.38776  0.26072  0.61663  1.0000
  H   H357      1.0  0.25234  0.04369  0.55445  1.0000
  C   C463      1.0  0.38517  0.29523  0.61534  1.0000
  C   C464      1.0  0.36539  0.37324  0.61371  1.0000
  C   C465      1.0  0.33359  0.35988  0.61468  1.0000
  C   C466      1.0  0.30776  0.37153  0.62449  1.0000
  C   C467      1.0  0.31331  0.39702  0.63314  1.0000
  C   C468      1.0  0.34466  0.41091  0.63200  1.0000
  C   C469      1.0  0.37059  0.39925  0.62227  1.0000
  H   H358      1.0  0.20011  0.28300  0.51057  1.0000
  C   C470      1.0  0.37635  0.35221  0.57259  1.0000
  C   C471      1.0  0.36859  0.36421  0.55817  1.0000
  C   C472      1.0  0.37124  0.39787  0.55327  1.0000
  H   H359      1.0  0.37464  0.24620  0.62620  1.0000
  H   H360      1.0  0.04435  0.26054  0.59185  1.0000
  H   H361      1.0  0.37034  0.30685  0.62414  1.0000
  H   H362      1.0  0.32854  0.34110  0.60757  1.0000
  H   H363      1.0  0.28309  0.36183  0.62492  1.0000
  H   H364      1.0  0.29300  0.40690  0.64029  1.0000
  H   H365      1.0  0.34861  0.43139  0.63834  1.0000
  H   H366      1.0  0.39429  0.41127  0.62118  1.0000
  H   H367      1.0  0.37272  0.32631  0.57632  1.0000
  H   H368      1.0  0.35919  0.34765  0.55102  1.0000
  C   C473      1.0  0.34799  0.17128  0.61831  1.0000
  H   H369      1.0  0.06273  0.41928  0.59410  1.0000
  C   C474      1.0  0.38926  0.40771  0.57722  1.0000
  H   H370      1.0  0.42018  0.09397  0.66808  1.0000
  H   H371      1.0  0.02537  0.18785  0.57732  1.0000
  C   C475      1.0  0.18795  0.50272  0.49109  1.0000
  C   C476      1.0  0.02046  0.23027  0.67027  1.0000
  C   C477      1.0  0.20457  0.36693  0.50417  1.0000
  C   C478      1.0  0.43776  0.37411  0.60424  1.0000
  C   C479      1.0  0.42224  0.29818  0.59212  1.0000
  C   C480      1.0  0.30435  0.32297  0.66532  1.0000
  H   H372      1.0  0.46450  0.05937  0.62848  1.0000
  H   H373      1.0  0.26848  0.35666  0.65575  1.0000
  C   C481      1.0  0.44775  0.36834  0.61880  1.0000
  H   H374      1.0  0.27916  0.20114  0.48984  1.0000
  C   C482      1.0  0.10643  0.40682  0.62522  1.0000
  C   C483      1.0  0.32966  0.02387  0.51071  1.0000
  C   C484      1.0  0.06183  0.27363  0.59724  1.0000
  C   C485      1.0  0.09348  0.26028  0.59861  1.0000
  C   C486      1.0  0.11628  0.27723  0.60538  1.0000
  C   C487      1.0  0.10759  0.30769  0.61066  1.0000
  C   C488      1.0  0.07598  0.32159  0.60914  1.0000
  C   C489      1.0  0.05298  0.30403  0.60260  1.0000
  P   P17       1.0  0.06464  0.36039  0.61660  1.0000
  C   C490      1.0  0.03177  0.38114  0.60703  1.0000
  C   C491      1.0  0.05034  0.35212  0.63642  1.0000
  H   H375      1.0  0.47467  0.08003  0.67712  1.0000
  C   C492      1.0  0.09645  0.06995  0.63141  1.0000
  C   C493      1.0  0.23891  0.48404  0.67034  1.0000
  C   C494      1.0  0.05079  0.31781  0.66024  1.0000
  C   C495      1.0  0.06304  0.32499  0.64510  1.0000
  C   C496      1.0  0.14384  0.39182  0.47994  1.0000
  H   H376      1.0  0.04916  0.04490  0.65560  1.0000
  C   C497      1.0  0.10036  0.38673  0.61407  1.0000
  H   H377      1.0  0.18960  0.43431  0.51643  1.0000
  C   C498      1.0  0.18230  0.08086  0.54341  1.0000
  H   H378      1.0  0.35369  0.08778  0.56996  1.0000
  H   H379      1.0  0.31833  0.21524  0.61989  1.0000
  C   C499      1.0  0.12180  0.38807  0.60060  1.0000
  C   C500      1.0  0.42481  0.26368  0.59346  1.0000
  H   H380      1.0  0.10060  0.23709  0.59419  1.0000
  H   H381      1.0  0.14104  0.26718  0.60619  1.0000
  H   H382      1.0  0.12565  0.32032  0.61594  1.0000
  C   C501      1.0  0.01312  0.39941  0.55512  1.0000
  C   C502      1.0  0.03802  0.40960  0.59683  1.0000
  C   C503      1.0  0.27760  0.04144  0.50149  1.0000
  H   H383      1.0  0.36435  0.17763  0.62625  1.0000
  H   H384      1.0  0.44036  0.25147  0.58503  1.0000
  H   H385      1.0  0.08243  0.30931  0.64031  1.0000
  C   C504      1.0  0.24866  0.33139  0.67695  1.0000
  C   C505      1.0  0.24708  0.29527  0.62994  1.0000
  C   C506      1.0  0.31020  0.29938  0.67734  1.0000
  C   C507      1.0  0.37062  0.19497  0.69904  1.0000
  H   H386      1.0  0.11781  0.37242  0.59196  1.0000
  C   C508      1.0  0.08843  0.34292  0.50085  1.0000
  H   H387      1.0  0.24915  0.44693  0.70535  1.0000
  C   C509      1.0  0.28499  0.29120  0.68913  1.0000
  H   H388      1.0  0.23493  0.30261  0.69805  1.0000
  C   C510      1.0  0.04803  0.09588  0.66066  1.0000
  C   C511      1.0  0.23889  0.49905  0.70025  1.0000
  P   P18       1.0  0.09241  0.10043  0.65793  1.0000
  C   C512      1.0  0.10506  0.08841  0.67638  1.0000
  C   C513      1.0  0.11156  0.07410  0.64441  1.0000
  H   H389      1.0  0.09073  0.40580  0.63583  1.0000
  C   C514      1.0  0.31742  0.21712  0.68328  1.0000
  C   C515      1.0  0.18028  0.47112  0.49820  1.0000
  H   H390      1.0  0.25554  0.05685  0.50175  1.0000
  C   C516      1.0  0.14237  0.05880  0.64637  1.0000
  C   C517      1.0  0.10607  0.05482  0.68188  1.0000
  C   C518      1.0  0.47587  0.50851  0.58450  1.0000
  H   H391      1.0  0.13367  0.44007  0.46886  1.0000
  H   H392      1.0  0.34838  0.02571  0.51826  1.0000
  C   C519      1.0  0.11081  0.11233  0.68591  1.0000
  C   C520      1.0  0.10497  0.14178  0.65050  1.0000
  C   C521      1.0  0.13666  0.15254  0.65232  1.0000
  C   C522      1.0  0.14688  0.18432  0.64647  1.0000
  C   C523      1.0  0.12580  0.20539  0.63848  1.0000
  C   C524      1.0  0.09452  0.19459  0.63626  1.0000
  C   C525      1.0  0.08419  0.16279  0.64213  1.0000
  H   H393      1.0  0.33468  0.10959  0.59698  1.0000
  C   C526      1.0  0.36574  0.18185  0.68568  1.0000
  C   C527      1.0  0.35298  0.14167  0.61176  1.0000
  C   C528      1.0  0.03065  0.26854  0.54458  1.0000
  C   C529      1.0  0.47735  0.38144  0.62201  1.0000
  C   C530      1.0  0.22738  0.50870  0.50894  1.0000
  H   H394      1.0  0.07016  0.42956  0.49731  1.0000
  H   H395      1.0  0.06300  0.50572  0.54586  1.0000
  H   H396      1.0  0.25509  0.21167  0.63249  1.0000
  H   H397      1.0  0.15519  0.06241  0.65603  1.0000
  H   H398      1.0  0.33497  0.18232  0.66758  1.0000
  H   H399      1.0  0.13487  0.39867  0.49103  1.0000
  H   H400      1.0  0.35548  0.02837  0.57926  1.0000
  H   H401      1.0  0.20496  0.35536  0.70250  1.0000
  H   H402      1.0  0.10884  0.13843  0.68217  1.0000
  H   H403      1.0  0.15344  0.13649  0.65839  1.0000
  H   H404      1.0  0.17112  0.19265  0.64826  1.0000
  H   H405      1.0  0.13373  0.23013  0.63411  1.0000
  H   H406      1.0  0.07823  0.21095  0.63005  1.0000
  H   H407      1.0  0.06006  0.15472  0.64013  1.0000
  C   C531      1.0  0.08957  0.33422  0.53211  1.0000
  C   C532      1.0  0.05974  0.34166  0.52606  1.0000
  C   C533      1.0  0.41797  0.47895  0.59952  1.0000
  H   H408      1.0  0.45242  0.39586  0.58130  1.0000
  C   C534      1.0  0.11869  0.33627  0.50686  1.0000
  C   C535      1.0  0.11902  0.33209  0.52256  1.0000
  H   H409      1.0  0.37326  0.12520  0.61456  1.0000
  C   C536      1.0  0.19607  0.45840  0.51067  1.0000
  H   H410      1.0  0.23809  0.10604  0.51351  1.0000
  H   H411      1.0  0.17876  0.11171  0.52263  1.0000
  C   C537      1.0  0.30432  0.15329  0.59871  1.0000
  C   C538      1.0  0.12874  0.23475  0.48961  1.0000
  C   C539      1.0  0.12788  0.26745  0.49306  1.0000
  H   H412      1.0  0.08988  0.32935  0.54422  1.0000
  H   H413      1.0  0.15658  0.08456  0.54766  1.0000
  C   C540      1.0  0.23248  0.37127  0.51157  1.0000
  H   H414      1.0  0.14184  0.32634  0.52750  1.0000
  C   C541      1.0  0.19491  0.09645  0.52937  1.0000
  H   H415      1.0  0.32781  0.27491  0.55665  1.0000
  P   P19       1.0  0.29164  0.25933  0.70423  1.0000
  C   C542      1.0  0.15743  0.22172  0.48224  1.0000
  C   C543      1.0  0.14870  0.40944  0.59827  1.0000
  C   C544      1.0  0.27344  0.33874  0.66508  1.0000
  C   C545      1.0  0.20845  0.30789  0.51087  1.0000
  C   C546      1.0  0.13327  0.42828  0.62282  1.0000
  C   C547      1.0  0.22003  0.47699  0.51584  1.0000
  H   H416      1.0  0.24794  0.29100  0.52396  1.0000
  H   H417      1.0  0.32776  0.10646  0.54698  1.0000
  H   H418      1.0  0.38183  0.04939  0.66490  1.0000
  C   C548      1.0  0.23597  0.31233  0.51843  1.0000
  H   H419      1.0  0.26370  0.19434  0.69992  1.0000
  C   C549      1.0  0.18510  0.02187  0.50359  1.0000
  H   H420      1.0  0.24417  0.25719  0.64862  1.0000
  C   C550      1.0  0.31638  0.02349  0.54792  1.0000
  H   H421      1.0  0.26926  0.34739  0.52476  1.0000
  H   H422      1.0  0.38234  0.16286  0.68147  1.0000
  C   C551      1.0  0.44794  0.47655  0.60624  1.0000
  H   H423      1.0  0.12399  0.12153  0.70762  1.0000
  H   H424      1.0  0.24913  0.43388  0.67907  1.0000
  C   C552      1.0  0.11116  0.04947  0.62091  1.0000
  H   H425      1.0  0.16170  0.45671  0.49421  1.0000
  H   H426      1.0  0.02842  0.31381  0.60135  1.0000
  C   C553      1.0  0.42735  0.06838  0.67067  1.0000
  H   H427      1.0  0.07330  0.08249  0.62940  1.0000
  C   C554      1.0  0.02781  0.12098  0.66652  1.0000
  H   H428      1.0  0.20706  0.28844  0.47929  1.0000
  C   C555      1.0  0.24662  0.20705  0.70749  1.0000
  H   H429      1.0  0.26706  0.02162  0.48128  1.0000
  C   C556      1.0  0.42436  0.02482  0.63353  1.0000
  C   C557      1.0  0.28415  0.02149  0.48973  1.0000
  P   P20       1.0  0.50697  0.01708  0.68598  1.0000
  S   S80       1.0  0.29719  0.03027  0.65979  1.0000
  C   C558      1.0  0.01213  0.42610  0.58999  1.0000
  H   H430      1.0  0.25295  0.38882  0.70638  1.0000
  H   H431      1.0  0.09943  0.04627  0.61090  1.0000
  C   C559      1.0  0.14134  0.03356  0.62317  1.0000
  C   C560      1.0  0.15706  0.03851  0.63580  1.0000
  H   H432      1.0  0.11675  0.50700  0.52835  1.0000
  Fe  Fe44      1.0  0.25242  0.01749  0.64883  1.0000
  C   C561      1.0  0.49736  0.40005  0.61065  1.0000
  C   C562      1.0  0.02626  0.37269  0.64333  1.0000
  C   C563      1.0  0.46813  0.02718  0.67846  1.0000
  H   H433      1.0  0.28675  0.15789  0.47214  1.0000
  H   H434      1.0  0.18072  0.02658  0.63741  1.0000
  H   H435      1.0  0.21188  0.16723  0.71010  1.0000
  C   C564      1.0  0.50052  0.02558  0.70544  1.0000
  C   C565      1.0  0.01418  0.36540  0.65854  1.0000
  C   C566      1.0  0.45830  0.06037  0.67561  1.0000
  H   H436      1.0  0.17130  0.04434  0.50572  1.0000
  H   H437      1.0  0.50363  0.41973  0.58730  1.0000
  H   H438      1.0  0.10067  0.03595  0.67487  1.0000
  H   H439      1.0  0.20799  0.23076  0.47313  1.0000
  H   H440      1.0  0.17171  0.02271  0.48114  1.0000
  C   C567      1.0  0.40562  0.04333  0.66897  1.0000
  C   C568      1.0  0.14318  0.41538  0.46741  1.0000
  S   S81       1.0  0.24367  0.10429  0.46741  1.0000
  H   H441      1.0  0.11400  0.01936  0.70074  1.0000
  C   C569      1.0  0.21712  0.19127  0.71335  1.0000
  H   H442      1.0  0.01757  0.18105  0.60535  1.0000
  C   C570      1.0  0.33127  0.01311  0.56099  1.0000
  C   C571      1.0  0.21188  0.35641  0.71372  1.0000
  Fe  Fe45      1.0  0.46155  0.12879  0.84689  1.0000
  S   S82       1.0  0.45078  0.16585  0.86403  1.0000
  S   S83       1.0  0.43720  0.07768  0.85217  1.0000
  H   H443      1.0  0.19668  0.50637  0.82330  1.0000
  C   C572      1.0  0.19352  0.33904  0.72602  1.0000
  Fe  Fe46      1.0  0.44491  0.20412  0.84428  1.0000
  S   S84       1.0  0.40835  0.24765  0.84541  1.0000
  S   S85       1.0  0.45110  0.16646  0.82753  1.0000
  C   C573      1.0  0.49562  0.27937  0.78214  1.0000
  C   C574      1.0  0.30514  0.27746  0.72003  1.0000
  Fe  Fe47      1.0  0.29653  0.44104  0.78551  1.0000
  S   S86       1.0  0.31283  0.45882  0.76143  1.0000
  S   S87       1.0  0.27350  0.47871  0.80085  1.0000
  Fe  Fe48      1.0  0.32840  0.37257  0.78272  1.0000
  S   S88       1.0  0.34768  0.38673  0.75849  1.0000
  S   S89       1.0  0.33956  0.31837  0.78971  1.0000
  Fe  Fe49      1.0  0.36116  0.43476  0.76591  1.0000
  S   S90       1.0  0.40852  0.45963  0.75572  1.0000
  Fe  Fe50      1.0  0.29765  0.40923  0.75586  1.0000
  S   S91       1.0  0.27922  0.40511  0.73306  1.0000
  S   S92       1.0  0.34634  0.41907  0.79044  1.0000
  S   S93       1.0  0.27683  0.39273  0.77981  1.0000
  Fe  Fe51      1.0  0.12503  0.43417  0.91464  1.0000
  S   S94       1.0  0.08759  0.44435  0.93400  1.0000
  S   S95       1.0  0.15817  0.47512  0.90263  1.0000
  Fe  Fe52      1.0  0.09967  0.36357  0.91384  1.0000
  S   S96       1.0  0.06080  0.36888  0.93330  1.0000
  S   S97       1.0  0.10568  0.31355  0.90450  1.0000
  Fe  Fe53      1.0  0.05186  0.41942  0.92172  1.0000
  C   C575      1.0  0.43709  0.27238  0.87817  1.0000
  Fe  Fe54      1.0  0.10047  0.39292  0.94377  1.0000
  C   C576      1.0  0.03024  0.26973  0.87762  1.0000
  S   S98       1.0  0.08815  0.41265  0.90148  1.0000
  S   S99       1.0  0.14049  0.38430  0.92512  1.0000
  C   C577      1.0  0.04632  0.50767  0.86467  1.0000
  H   H444      1.0  0.18045  0.47143  0.86168  1.0000
  C   C578      1.0  0.19151  0.49507  0.86238  1.0000
  H   H445      1.0  0.46569  0.44997  0.79234  1.0000
  C   C579      1.0  0.44220  0.37086  0.83099  1.0000
  C   C580      1.0  0.42632  0.48361  0.76777  1.0000
  C   C581      1.0  0.23003  0.25368  0.72140  1.0000
  H   H446      1.0  0.46607  0.41358  0.86727  1.0000
  H   H447      1.0  0.08172  0.32172  0.95868  1.0000
  C   C582      1.0  0.41067  0.48773  0.78217  1.0000
  C   C583      1.0  0.48211  0.38601  0.75050  1.0000
  H   H448      1.0  0.38644  0.47760  0.78573  1.0000
  C   C584      1.0  0.24688  0.37859  0.73063  1.0000
  H   H449      1.0  0.22738  0.47378  0.87669  1.0000
  C   C585      1.0  0.42206  0.39062  0.82191  1.0000
  C   C586      1.0  0.47955  0.35574  0.75968  1.0000
  C   C587      1.0  0.20193  0.34154  0.74063  1.0000
  C   C588      1.0  0.22862  0.36109  0.74294  1.0000
  C   C589      1.0  0.30515  0.48814  0.71868  1.0000
  H   H450      1.0  0.01987  0.41129  0.87135  1.0000
  H   H451      1.0  0.18749  0.32847  0.75020  1.0000
  H   H452      1.0  0.23462  0.36328  0.75424  1.0000
  C   C590      1.0  0.47103  0.41951  0.83556  1.0000
  H   H453      1.0  0.08361  0.49807  0.89704  1.0000
  C   C591      1.0  0.05631  0.31789  0.88533  1.0000
  C   C592      1.0  0.07557  0.29730  0.89451  1.0000
  C   C593      1.0  0.07212  0.26286  0.89516  1.0000
  C   C594      1.0  0.42661  0.01139  0.85034  1.0000
  C   C595      1.0  0.50699  0.20776  0.93710  1.0000
  C   C596      1.0  0.10937  0.28362  0.94771  1.0000
  H   H454      1.0  0.08722  0.24670  0.90207  1.0000
  H   H455      1.0  0.21287  0.39408  0.94189  1.0000
  H   H456      1.0  0.01505  0.41908  0.95737  1.0000
  C   C597      1.0  0.39048  0.26755  0.82959  1.0000
  C   C598      1.0  0.38631  0.25094  0.81709  1.0000
  C   C599      1.0  0.37098  0.26708  0.80495  1.0000
  C   C600      1.0  0.35999  0.30007  0.80506  1.0000
  C   C601      1.0  0.36435  0.31685  0.81751  1.0000
  C   C602      1.0  0.37942  0.30057  0.82975  1.0000
  H   H457      1.0  0.39437  0.22545  0.81688  1.0000
  H   H458      1.0  0.36748  0.25382  0.79543  1.0000
  H   H459      1.0  0.35538  0.34200  0.81786  1.0000
  H   H460      1.0  0.38223  0.31349  0.83945  1.0000
  C   C603      1.0  0.45056  0.43930  0.82663  1.0000
  C   C604      1.0  0.44601  0.03907  0.84461  1.0000
  P   P21       1.0  0.49243  0.35947  0.84980  1.0000
  C   C605      1.0  0.25756  0.29396  0.78599  1.0000
  C   C606      1.0  0.22998  0.30470  0.77875  1.0000
  C   C607      1.0  0.20215  0.31724  0.78702  1.0000
  C   C608      1.0  0.20174  0.31851  0.80259  1.0000
  C   C609      1.0  0.22887  0.30641  0.81005  1.0000
  C   C610      1.0  0.25715  0.29500  0.80154  1.0000
  P   P22       1.0  0.22903  0.30981  0.82999  1.0000
  C   C611      1.0  0.26161  0.28397  0.83727  1.0000
  C   C612      1.0  0.23665  0.35288  0.83123  1.0000
  C   C613      1.0  0.26626  0.36692  0.82404  1.0000
  C   C614      1.0  0.27238  0.40039  0.82458  1.0000
  C   C615      1.0  0.24901  0.42009  0.83224  1.0000
  C   C616      1.0  0.21931  0.40643  0.83925  1.0000
  C   C617      1.0  0.21289  0.37307  0.83858  1.0000
  C   C618      1.0  0.28452  0.29656  0.84575  1.0000
  C   C619      1.0  0.31012  0.27633  0.85090  1.0000
  C   C620      1.0  0.31301  0.24350  0.84767  1.0000
  C   C621      1.0  0.28986  0.23060  0.83956  1.0000
  C   C622      1.0  0.26405  0.25064  0.83450  1.0000
  C   C623      1.0  0.19118  0.29540  0.84106  1.0000
  C   C624      1.0  0.16795  0.27749  0.83483  1.0000
  C   C625      1.0  0.13856  0.26707  0.84352  1.0000
  C   C626      1.0  0.13240  0.27392  0.85852  1.0000
  C   C627      1.0  0.15590  0.29061  0.86498  1.0000
  C   C628      1.0  0.18538  0.30093  0.85635  1.0000
  H   H461      1.0  0.27966  0.28541  0.77954  1.0000
  H   H462      1.0  0.23049  0.30375  0.76670  1.0000
  H   H463      1.0  0.18104  0.32620  0.78130  1.0000
  H   H464      1.0  0.18031  0.32896  0.80880  1.0000
  H   H465      1.0  0.27931  0.28750  0.80675  1.0000
  H   H466      1.0  0.28452  0.35203  0.81790  1.0000
  H   H467      1.0  0.29503  0.41128  0.81887  1.0000
  H   H468      1.0  0.25366  0.44614  0.83245  1.0000
  H   H469      1.0  0.20097  0.42188  0.84497  1.0000
  H   H470      1.0  0.18923  0.36346  0.84364  1.0000
  H   H471      1.0  0.28289  0.32192  0.84834  1.0000
  H   H472      1.0  0.32822  0.28617  0.85717  1.0000
  H   H473      1.0  0.33343  0.22818  0.85135  1.0000
  H   H474      1.0  0.29216  0.20512  0.83708  1.0000
  H   H475      1.0  0.24634  0.24033  0.82817  1.0000
  H   H476      1.0  0.17242  0.27122  0.82336  1.0000
  H   H477      1.0  0.12049  0.25353  0.83867  1.0000
  H   H478      1.0  0.10951  0.26602  0.86520  1.0000
  H   H479      1.0  0.15115  0.29550  0.87671  1.0000
  H   H480      1.0  0.20350  0.31350  0.86160  1.0000
  C   C629      1.0  0.49369  0.27817  0.93012  1.0000
  H   H481      1.0  0.41732  0.04966  0.93297  1.0000
  C   C630      1.0  0.41986  0.06152  0.90886  1.0000
  C   C631      1.0  0.18867  0.46072  0.72666  1.0000
  C   C632      1.0  0.51026  0.38151  0.78396  1.0000
  C   C633      1.0  0.28025  0.50898  0.72474  1.0000
  C   C634      1.0  0.42323  0.04903  0.89485  1.0000
  H   H482      1.0  0.42288  0.06572  0.88458  1.0000
  H   H483      1.0  0.10530  0.29428  0.93645  1.0000
  H   H484      1.0  0.41540  0.50631  0.80348  1.0000
  C   C635      1.0  0.21821  0.49630  0.87087  1.0000
  H   H485      1.0  0.40359  0.37937  0.81632  1.0000
  C   C636      1.0  0.48615  0.32572  0.90555  1.0000
  C   C637      1.0  0.45739  0.49758  0.76310  1.0000
  H   H486      1.0  0.15077  0.42384  0.73192  1.0000
  C   C638      1.0  0.44021  0.21445  0.95942  1.0000
  H   H487      1.0  0.47768  0.22028  0.91846  1.0000
  H   H488      1.0  0.20587  0.46108  0.80708  1.0000
  C   C639      1.0  0.42684  0.50434  0.79213  1.0000
  H   H489      1.0  0.18254  0.46624  0.93209  1.0000
  C   C640      1.0  0.01786  0.01784  0.87857  1.0000
  H   H490      1.0  0.01967  0.32024  0.86956  1.0000
  H   H491      1.0  0.42415  0.25155  0.88454  1.0000
  C   C641      1.0  0.20045  0.23787  0.72712  1.0000
  H   H492      1.0  0.23444  0.27792  0.72466  1.0000
  H   H493      1.0  0.18228  0.24999  0.73455  1.0000
  H   H494      1.0  0.21576  0.43088  0.76604  1.0000
  C   C642      1.0  0.49302  0.31129  0.78676  1.0000
  H   H495      1.0  0.48640  0.05622  0.82847  1.0000
  H   H496      1.0  0.48485  0.22784  0.78828  1.0000
  C   C643      1.0  0.47143  0.27094  0.87482  1.0000
  C   C644      1.0  0.21617  0.47503  0.73151  1.0000
  C   C645      1.0  0.20968  0.42428  0.96029  1.0000
  C   C646      1.0  0.46629  0.38524  0.83821  1.0000
  H   H497      1.0  0.43895  0.34435  0.83235  1.0000
  H   H498      1.0  0.40759  0.32934  0.74890  1.0000
  C   C647      1.0  0.08084  0.50299  0.88510  1.0000
  C   C648      1.0  0.45822  0.39554  0.74077  1.0000
  H   H499      1.0  0.10442  0.46199  0.84330  1.0000
  C   C649      1.0  0.43594  0.32691  0.86439  1.0000
  H   H500      1.0  0.04314  0.02621  0.87733  1.0000
  H   H501      1.0  0.11478  0.41667  0.82734  1.0000
  C   C650      1.0  0.04973  0.50116  0.88007  1.0000
  H   H502      1.0  0.12623  0.06200  0.71722  1.0000
  H   H503      1.0  0.49021  0.16823  0.90718  1.0000
  H   H504      1.0  0.46922  0.49491  0.75187  1.0000
  C   C651      1.0  0.46835  0.25712  0.80633  1.0000
  C   C652      1.0  0.46575  0.28877  0.81101  1.0000
  C   C653      1.0  0.47772  0.31591  0.80122  1.0000
  H   H505      1.0  0.29932  0.23222  0.73510  1.0000
  H   H506      1.0  0.16534  0.41615  0.80904  1.0000
  C   C654      1.0  0.41939  0.30045  0.87306  1.0000
  Fe  Fe55      1.0  0.50522  0.17792  0.82630  1.0000
  H   H507      1.0  0.39272  0.30132  0.87558  1.0000
  C   C655      1.0  0.48299  0.25246  0.79187  1.0000
  C   C656      1.0  0.43156  0.37501  0.74009  1.0000
  C   C657      1.0  0.18364  0.46161  0.81494  1.0000
  S   S100      1.0  0.15948  0.31452  0.72379  1.0000
  C   C658      1.0  0.18784  0.49119  0.92710  1.0000
  C   C659      1.0  0.47033  0.32512  0.86050  1.0000
  C   C660      1.0  0.45260  0.33522  0.75890  1.0000
  H   H508      1.0  0.47502  0.34027  0.80500  1.0000
  H   H509      1.0  0.15607  0.34626  0.95193  1.0000
  H   H510      1.0  0.45884  0.23618  0.81390  1.0000
  H   H511      1.0  0.45420  0.29208  0.82223  1.0000
  H   H512      1.0  0.05905  0.34439  0.88455  1.0000
  H   H513      1.0  0.16770  0.40519  0.75718  1.0000
  C   C661      1.0  0.46615  0.29976  0.93040  1.0000
  C   C662      1.0  0.14902  0.48866  0.83407  1.0000
  H   H514      1.0  0.24705  0.49372  0.77228  1.0000
  H   H515      1.0  0.49063  0.43094  0.84030  1.0000
  C   C663      1.0  0.51195  0.05415  0.86880  1.0000
  C   C664      1.0  0.16075  0.43626  0.81604  1.0000
  H   H516      1.0  0.44904  0.31232  0.76615  1.0000
  C   C665      1.0  0.42881  0.34483  0.74911  1.0000
  C   C666      1.0  0.42692  0.01501  0.89403  1.0000
  H   H517      1.0  0.25319  0.49884  0.96221  1.0000
  H   H518      1.0  0.48663  0.43901  0.88819  1.0000
  C   C667      1.0  0.17815  0.48739  0.82409  1.0000
  H   H519      1.0  0.20911  0.32090  0.95849  1.0000
  H   H520      1.0  0.50715  0.27530  0.77099  1.0000
  C   C668      1.0  0.19386  0.20681  0.72299  1.0000
  C   C669      1.0  0.32162  0.32496  0.73156  1.0000
  C   C670      1.0  0.32250  0.30545  0.74533  1.0000
  C   C671      1.0  0.31475  0.27199  0.74650  1.0000
  C   C672      1.0  0.30593  0.25806  0.73394  1.0000
  C   C673      1.0  0.13230  0.43663  0.82631  1.0000
  H   H521      1.0  0.41032  0.44011  0.81282  1.0000
  H   H522      1.0  0.44601  0.19507  0.95215  1.0000
  C   C674      1.0  0.17130  0.43558  0.73590  1.0000
  H   H523      1.0  0.49956  0.08298  0.88747  1.0000
  H   H524      1.0  0.42177  0.34856  0.86075  1.0000
  C   C675      1.0  0.42002  0.03997  0.92209  1.0000
  C   C676      1.0  0.04924  0.24911  0.88692  1.0000
  H   H525      1.0  0.45954  0.41954  0.73421  1.0000
  C   C677      1.0  0.12641  0.46267  0.83531  1.0000
  H   H526      1.0  0.44725  0.29821  0.93994  1.0000
  H   H527      1.0  0.41699  0.08792  0.90945  1.0000
  H   H528      1.0  0.50564  0.29806  0.83517  1.0000
  H   H529      1.0  0.24710  0.47434  0.74957  1.0000
  H   H530      1.0  0.32703  0.35106  0.73074  1.0000
  H   H531      1.0  0.32882  0.31631  0.75516  1.0000
  H   H532      1.0  0.31525  0.25698  0.75721  1.0000
  H   H533      1.0  0.45424  0.46580  0.82460  1.0000
  C   C678      1.0  0.20788  0.43948  0.75513  1.0000
  C   C679      1.0  0.47129  0.01400  0.73057  1.0000
  H   H534      1.0  0.48516  0.24918  0.87883  1.0000
  H   H535      1.0  0.48773  0.04307  0.86978  1.0000
  C   C680      1.0  0.03404  0.30413  0.87683  1.0000
  C   C681      1.0  0.48355  0.40394  0.78498  1.0000
  C   C682      1.0  0.47207  0.03508  0.83335  1.0000
  C   C683      1.0  0.31289  0.31112  0.71895  1.0000
  H   H536      1.0  0.02838  0.49459  0.88815  1.0000
  C   C684      1.0  0.48797  0.29733  0.86612  1.0000
  H   H537      1.0  0.17052  0.19497  0.72709  1.0000
  C   C685      1.0  0.50019  0.17229  0.91753  1.0000
  C   C686      1.0  0.12847  0.25482  0.94970  1.0000
  C   C687      1.0  0.42590  0.42486  0.81991  1.0000
  C   C688      1.0  0.46246  0.32342  0.91815  1.0000
  C   C689      1.0  0.22569  0.40259  0.95069  1.0000
  C   C690      1.0  0.46055  0.24216  0.95843  1.0000
  P   P23       1.0  0.49784  0.24595  0.94538  1.0000
  H   H538      1.0  0.44108  0.33986  0.91842  1.0000
  C   C691      1.0  0.22558  0.46424  0.74580  1.0000
  H   H539      1.0  0.46071  0.39959  0.78035  1.0000
  H   H540      1.0  0.40596  0.01419  0.85884  1.0000
  C   C692      1.0  0.18080  0.42508  0.75016  1.0000
  H   H541      1.0  0.41249  0.38298  0.73291  1.0000
  H   H542      1.0  0.13915  0.24322  0.93991  1.0000
  H   H543      1.0  0.04691  0.22257  0.88746  1.0000
  C   C693      1.0  0.25758  0.39087  0.95282  1.0000
  H   H544      1.0  0.18080  0.46871  0.71568  1.0000
  C   C694      1.0  0.48619  0.43275  0.79182  1.0000
  H   H545      1.0  0.01905  0.47433  0.94048  1.0000
  C   C695      1.0  0.48827  0.03937  0.73560  1.0000
  S   S101      1.0  0.49858  0.21796  0.84171  1.0000
  C   C696      1.0  0.48962  0.40542  0.87102  1.0000
  C   C697      1.0  0.33743  0.48933  0.72259  1.0000
  H   H546      1.0  0.35627  0.47250  0.71822  1.0000
  C   C698      1.0  0.23870  0.37578  0.71600  1.0000
  H   H547      1.0  0.48320  0.34390  0.89604  1.0000
  H   H548      1.0  0.26942  0.37304  0.94575  1.0000
  C   C699      1.0  0.49336  0.20191  0.92392  1.0000
  Fe  Fe56      1.0  0.50510  0.17735  0.86011  1.0000
  C   C700      1.0  0.50097  0.41960  0.88302  1.0000
  H   H549      1.0  0.21463  0.50296  0.94510  1.0000
  C   C701      1.0  0.17783  0.50205  0.91298  1.0000
  P   P24       1.0  0.23839  0.50777  0.71966  1.0000
  C   C702      1.0  0.50818  0.38032  0.86426  1.0000
  H   H550      1.0  0.02210  0.50656  0.86079  1.0000
  H   H551      1.0  0.18472  0.43225  0.95854  1.0000
  H   H552      1.0  0.50170  0.40299  0.75135  1.0000
  H   H553      1.0  0.48358  0.04462  0.74726  1.0000
  H   H554      1.0  0.35282  0.22848  0.71507  1.0000
  P   P25       1.0  0.50793  0.34591  0.77377  1.0000
  H   H555      1.0  0.05962  0.10207  0.95684  1.0000
  C   C703      1.0  0.10866  0.51039  0.87474  1.0000
  C   C704      1.0  0.16335  0.34767  0.96304  1.0000
  C   C705      1.0  0.09592  0.29899  0.96024  1.0000
  C   C706      1.0  0.11250  0.50427  0.96346  1.0000
  H   H556      1.0  0.11862  0.09605  0.96146  1.0000
  C   C707      1.0  0.51101  0.05819  0.72555  1.0000
  H   H557      1.0  0.26829  0.80554  0.09410  1.0000
  C   C708      1.0  0.34439  0.53214  0.15440  1.0000
  S   S102      1.0  0.02818  0.97299  0.07610  1.0000
  Fe  Fe57      1.0  0.40083  0.89991  0.99856  1.0000
  S   S103      1.0  0.40577  0.88905  0.02323  1.0000
  S   S104      1.0  0.42884  0.93941  0.98314  1.0000
  Fe  Fe58      1.0  0.34615  0.85077  0.99938  1.0000
  S   S105      1.0  0.34659  0.83575  0.02422  1.0000
  S   S106      1.0  0.30802  0.83635  0.98477  1.0000
  Fe  Fe59      1.0  0.35017  0.88994  0.02644  1.0000
  S   S107      1.0  0.32556  0.91458  0.04650  1.0000
  Fe  Fe60      1.0  0.40235  0.83591  0.01912  1.0000
  S   S108      1.0  0.43251  0.79729  0.03231  1.0000
  S   S109      1.0  0.34556  0.90508  0.00201  1.0000
  S   S110      1.0  0.40138  0.84670  0.99396  1.0000
  C   C709      1.0  0.50446  0.51804  0.21347  1.0000
  C   C710      1.0  0.19952  0.52636  0.15979  1.0000
  C   C711      1.0  0.27381  0.53602  0.97341  1.0000
  S   S111      1.0  0.17688  0.96801  0.05144  1.0000
  H   H558      1.0  0.50614  0.73967  0.96687  1.0000
  H   H559      1.0  0.24371  0.96144  0.98025  1.0000
  C   C712      1.0  0.38886  0.72932  0.20754  1.0000
  C   C713      1.0  0.49004  0.79156  0.01271  1.0000
  C   C714      1.0  0.30956  0.73410  0.96779  1.0000
  Fe  Fe61      1.0  0.14796  0.99805  0.06878  1.0000
  Fe  Fe62      1.0  0.31143  0.59814  0.18697  1.0000
  C   C715      1.0  0.16960  0.97140  0.16681  1.0000
  S   S112      1.0  0.26361  0.57677  0.18063  1.0000
  Fe  Fe63      1.0  0.37357  0.64061  0.18686  1.0000
  C   C716      1.0  0.09887  0.99463  0.01070  1.0000
  S   S113      1.0  0.41008  0.67837  0.17409  1.0000
  Fe  Fe64      1.0  0.37063  0.57203  0.20351  1.0000
  H   H560      1.0  0.47850  0.75912  0.04938  1.0000
  H   H561      1.0  0.42580  0.95644  0.03117  1.0000
  C   C717      1.0  0.38308  0.85276  0.06452  1.0000
  S   S114      1.0  0.36572  0.59033  0.17930  1.0000
  S   S115      1.0  0.31855  0.65043  0.19252  1.0000
  C   C718      1.0  0.47435  0.60908  0.16904  1.0000
  C   C719      1.0  0.40850  0.79953  0.07099  1.0000
  H   H562      1.0  0.32902  0.77859  0.09873  1.0000
  C   C720      1.0  0.50008  0.71722  0.17825  1.0000
  H   H563      1.0  0.04766  0.86870  0.05817  1.0000
  H   H564      1.0  0.14436  0.96508  0.14738  1.0000
  H   H565      1.0  0.24926  0.86224  0.96827  1.0000
  C   C721      1.0  0.23463  0.88437  0.97000  1.0000
  C   C722      1.0  0.45849  0.66799  0.19381  1.0000
  C   C723      1.0  0.44834  0.68622  0.18095  1.0000
  C   C724      1.0  0.46595  0.91032  0.04758  1.0000
  C   C725      1.0  0.25542  0.53652  0.99999  1.0000
  C   C726      1.0  0.21348  0.52821  0.14474  1.0000
  C   C727      1.0  0.24405  0.54417  0.14075  1.0000
  C   C728      1.0  0.26020  0.55852  0.15157  1.0000
  C   C729      1.0  0.24587  0.55726  0.16656  1.0000
  C   C730      1.0  0.21552  0.54094  0.17058  1.0000
  H   H566      1.0  0.10881  0.94081  0.98381  1.0000
  H   H567      1.0  0.25509  0.54584  0.12915  1.0000
  H   H568      1.0  0.28321  0.57136  0.14823  1.0000
  H   H569      1.0  0.20412  0.53977  0.18211  1.0000
  H   H570      1.0  0.40568  0.98961  0.00947  1.0000
  C   C731      1.0  0.46045  0.95631  0.99162  1.0000
  C   C732      1.0  0.46970  0.98922  0.98738  1.0000
  S   S116      1.0  0.39845  0.52747  0.21313  1.0000
  C   C733      1.0  0.47561  0.93754  0.00299  1.0000
  C   C734      1.0  0.46396  0.57728  0.17465  1.0000
  H   H571      1.0  0.47374  0.74677  0.99143  1.0000
  H   H572      1.0  0.46921  0.91192  0.00606  1.0000
  C   C735      1.0  0.21903  0.95577  0.05017  1.0000
  C   C736      1.0  0.23745  0.95423  0.06249  1.0000
  C   C737      1.0  0.27020  0.94180  0.06116  1.0000
  C   C738      1.0  0.28481  0.93110  0.04751  1.0000
  C   C739      1.0  0.26656  0.93327  0.03512  1.0000
  C   C740      1.0  0.23378  0.94547  0.03649  1.0000
  H   H573      1.0  0.22629  0.96201  0.07309  1.0000
  H   H574      1.0  0.28407  0.94004  0.07083  1.0000
  H   H575      1.0  0.27766  0.92542  0.02453  1.0000
  H   H576      1.0  0.21972  0.94716  0.02691  1.0000
  C   C741      1.0  0.47398  0.78432  0.02728  1.0000
  C   C742      1.0  0.20181  0.75304  0.96733  1.0000
  C   C743      1.0  0.24985  0.91138  0.97462  1.0000
  C   C744      1.0  0.16791  0.51245  0.96980  1.0000
  H   H577      1.0  0.47752  0.80647  0.00428  1.0000
  H   H578      1.0  0.29014  0.57100  0.98730  1.0000
  C   C745      1.0  0.33053  0.74051  0.97855  1.0000
  C   C746      1.0  0.33054  0.77188  0.98381  1.0000
  C   C747      1.0  0.30960  0.79693  0.97829  1.0000
  S   S117      1.0  0.11628  0.97778  0.08983  1.0000
  H   H579      1.0  0.44313  0.64863  0.19980  1.0000
  H   H580      1.0  0.34671  0.72111  0.98286  1.0000
  H   H581      1.0  0.34659  0.77661  0.99216  1.0000
  H   H582      1.0  0.46187  0.72512  0.16322  1.0000
  H   H583      1.0  0.32083  0.73532  0.12025  1.0000
  H   H584      1.0  0.39558  0.52682  0.18096  1.0000
  C   C748      1.0  0.47998  0.99894  0.06784  1.0000
  H   H585      1.0  0.43044  0.78468  0.07286  1.0000
  C   C749      1.0  0.39020  0.76374  0.20629  1.0000
  C   C750      1.0  0.19863  0.61016  0.20640  1.0000
  H   H586      1.0  0.41700  0.77062  0.99220  1.0000
  C   C751      1.0  0.50675  0.98545  0.00694  1.0000
  H   H587      1.0  0.49609  0.54351  0.21178  1.0000
  C   C752      1.0  0.43117  0.76781  0.98141  1.0000
  C   C753      1.0  0.46317  0.75436  0.98099  1.0000
  H   H588      1.0  0.47122  0.86163  0.04004  1.0000
  H   H589      1.0  0.33673  0.97038  0.07124  1.0000
  H   H590      1.0  0.18962  0.95445  0.16381  1.0000
  C   C754      1.0  0.46703  0.00494  0.08252  1.0000
  H   H591      1.0  0.27573  0.90959  0.97660  1.0000
  C   C755      1.0  0.36055  0.95973  0.07360  1.0000
  H   H592      1.0  0.45663  0.62720  0.16492  1.0000
  C   C756      1.0  0.46941  0.71081  0.17317  1.0000
  C   C757      1.0  0.48214  0.93764  0.05163  1.0000
  C   C758      1.0  0.42191  0.93110  0.07899  1.0000
  C   C759      1.0  0.39285  0.91818  0.08710  1.0000
  C   C760      1.0  0.10334  0.93796  0.02205  1.0000
  H   H593      1.0  0.04229  0.84484  0.97205  1.0000
  C   C761      1.0  0.12175  0.86189  0.97705  1.0000
  H   H594      1.0  0.51062  0.93747  0.01928  1.0000
  S   S118      1.0  0.31672  0.57687  0.21075  1.0000
  C   C762      1.0  0.28887  0.79050  0.96749  1.0000
  H   H595      1.0  0.43935  0.91061  0.04761  1.0000
  H   H596      1.0  0.31111  0.52269  0.17460  1.0000
  H   H597      1.0  0.38748  0.99389  0.05721  1.0000
  C   C763      1.0  0.41799  0.00160  0.01750  1.0000
  H   H598      1.0  0.50319  0.94086  0.08648  1.0000
  H   H599      1.0  0.18919  0.52828  0.96884  1.0000
  C   C764      1.0  0.50745  0.61759  0.16890  1.0000
  H   H600      1.0  0.39240  0.78725  0.96856  1.0000
  H   H601      1.0  0.03378  0.00105  0.02446  1.0000
  C   C765      1.0  0.42041  0.95832  0.06802  1.0000
  C   C766      1.0  0.48654  0.55400  0.18026  1.0000
  H   H602      1.0  0.34132  0.55869  0.15413  1.0000
  H   H603      1.0  0.17609  0.51417  0.16307  1.0000
  S   S119      1.0  0.38170  0.62132  0.21047  1.0000
  H   H604      1.0  0.33953  0.92190  0.09028  1.0000
  H   H605      1.0  0.15331  0.00670  0.02505  1.0000
  C   C767      1.0  0.20838  0.80865  0.98250  1.0000
  C   C768      1.0  0.21776  0.77741  0.98886  1.0000
  C   C769      1.0  0.21456  0.74962  0.98126  1.0000
  C   C770      1.0  0.49906  0.95201  0.01047  1.0000
  H   H606      1.0  0.13568  0.87166  0.98513  1.0000
  C   C771      1.0  0.48142  0.75037  0.96713  1.0000
  C   C772      1.0  0.20111  0.88615  0.96749  1.0000
  C   C773      1.0  0.08726  0.85983  0.97999  1.0000
  H   H607      1.0  0.15831  0.91869  0.96620  1.0000
  C   C774      1.0  0.27470  0.54982  0.98696  1.0000
  C   C775      1.0  0.10644  0.94942  0.99490  1.0000
  C   C776      1.0  0.10259  0.98326  0.99634  1.0000
  C   C777      1.0  0.38951  0.97284  0.06554  1.0000
  C   C778      1.0  0.11852  0.99944  0.16129  1.0000
  H   H608      1.0  0.43827  0.57080  0.17483  1.0000
  C   C779      1.0  0.16996  0.98842  0.17954  1.0000
  C   C780      1.0  0.48880  0.94487  0.11011  1.0000
  H   H609      1.0  0.46256  0.94684  0.10894  1.0000
  H   H610      1.0  0.22256  0.72547  0.98596  1.0000
  H   H611      1.0  0.44545  0.91948  0.08105  1.0000
  H   H612      1.0  0.20390  0.59709  0.19648  1.0000
  H   H613      1.0  0.21098  0.82976  0.98863  1.0000
  H   H614      1.0  0.22831  0.77484  0.99950  1.0000
  C   C781      1.0  0.14407  0.97718  0.15760  1.0000
  H   H615      1.0  0.22606  0.84977  0.09635  1.0000
  H   H616      1.0  0.48217  0.94825  0.13410  1.0000
  H   H617      1.0  0.14735  0.96547  0.20892  1.0000
  C   C782      1.0  0.19626  0.81235  0.96833  1.0000
  H   H618      1.0  0.18492  0.96570  0.97512  1.0000
  C   C783      1.0  0.49071  0.76494  0.03809  1.0000
  C   C784      1.0  0.36532  0.51854  0.14316  1.0000
  C   C785      1.0  0.41741  0.77745  0.96796  1.0000
  H   H619      1.0  0.19053  0.98455  0.18627  1.0000
  C   C786      1.0  0.19200  0.73521  0.06097  1.0000
  C   C787      1.0  0.19627  0.74435  0.07521  1.0000
  C   C788      1.0  0.18794  0.77636  0.07867  1.0000
  C   C789      1.0  0.17522  0.79927  0.06794  1.0000
  C   C790      1.0  0.17051  0.79026  0.05364  1.0000
  C   C791      1.0  0.17940  0.75809  0.05019  1.0000
  P   P26       1.0  0.15597  0.82031  0.03937  1.0000
  C   C792      1.0  0.13363  0.79891  0.02705  1.0000
  C   C793      1.0  0.12931  0.85054  0.04838  1.0000
  C   C794      1.0  0.09465  0.84789  0.04970  1.0000
  C   C795      1.0  0.07438  0.87075  0.05714  1.0000
  C   C796      1.0  0.08844  0.89630  0.06340  1.0000
  C   C797      1.0  0.12281  0.89915  0.06213  1.0000
  C   C798      1.0  0.14318  0.87662  0.05456  1.0000
  C   C799      1.0  0.13945  0.80587  0.01128  1.0000
  C   C800      1.0  0.12353  0.78782  0.00182  1.0000
  C   C801      1.0  0.10130  0.76312  0.00801  1.0000
  C   C802      1.0  0.09504  0.75632  0.02367  1.0000
  C   C803      1.0  0.11121  0.77403  0.03317  1.0000
  C   C804      1.0  0.19148  0.83994  0.02843  1.0000
  C   C805      1.0  0.22144  0.82231  0.02614  1.0000
  C   C806      1.0  0.24875  0.83717  0.01741  1.0000
  C   C807      1.0  0.24629  0.86961  0.01078  1.0000
  C   C808      1.0  0.21634  0.88704  0.01266  1.0000
  C   C809      1.0  0.18900  0.87236  0.02148  1.0000
  H   H620      1.0  0.19848  0.71035  0.05830  1.0000
  H   H621      1.0  0.20595  0.72661  0.08359  1.0000
  H   H622      1.0  0.19128  0.78347  0.08971  1.0000
  H   H623      1.0  0.16914  0.82392  0.07090  1.0000
  H   H624      1.0  0.17680  0.75066  0.03914  1.0000
  H   H625      1.0  0.08301  0.82826  0.04510  1.0000
  S   S120      1.0  0.19347  0.51176  0.13048  1.0000
  H   H626      1.0  0.07273  0.91406  0.06918  1.0000
  H   H627      1.0  0.13358  0.91907  0.06699  1.0000
  H   H628      1.0  0.16976  0.87960  0.05364  1.0000
  H   H629      1.0  0.15653  0.82486  0.00622  1.0000
  H   H630      1.0  0.12862  0.79269  0.98966  1.0000
  H   H631      1.0  0.08906  0.74913  0.00064  1.0000
  H   H632      1.0  0.07782  0.73708  0.02846  1.0000
  H   H633      1.0  0.10637  0.76817  0.04529  1.0000
  H   H634      1.0  0.22391  0.79714  0.03107  1.0000
  H   H635      1.0  0.27196  0.82360  0.01572  1.0000
  H   H636      1.0  0.26769  0.88115  0.00416  1.0000
  H   H637      1.0  0.21447  0.91215  0.00744  1.0000
  H   H638      1.0  0.16610  0.88642  0.02288  1.0000
  C   C810      1.0  0.31174  0.73173  0.10963  1.0000
  C   C811      1.0  0.29538  0.70264  0.10820  1.0000
  C   C812      1.0  0.28364  0.69795  0.09453  1.0000
  C   C813      1.0  0.28833  0.72228  0.08224  1.0000
  C   C814      1.0  0.30507  0.75144  0.08353  1.0000
  C   C815      1.0  0.31646  0.75610  0.09738  1.0000
  P   P27       1.0  0.31043  0.78354  0.06792  1.0000
  C   C816      1.0  0.34968  0.80328  0.06819  1.0000
  C   C817      1.0  0.31021  0.76566  0.05028  1.0000
  C   C818      1.0  0.33992  0.75831  0.04159  1.0000
  C   C819      1.0  0.33927  0.74506  0.02786  1.0000
  C   C820      1.0  0.30906  0.73871  0.02276  1.0000
  C   C821      1.0  0.27941  0.74561  0.03139  1.0000
  C   C822      1.0  0.27995  0.75907  0.04508  1.0000
  C   C823      1.0  0.35249  0.83762  0.06494  1.0000
  C   C824      1.0  0.37792  0.78431  0.07132  1.0000
  C   C825      1.0  0.27735  0.81392  0.06971  1.0000
  C   C826      1.0  0.26160  0.81973  0.08397  1.0000
  C   C827      1.0  0.23758  0.84482  0.08530  1.0000
  C   C828      1.0  0.22901  0.86414  0.07244  1.0000
  C   C829      1.0  0.24425  0.85822  0.05822  1.0000
  C   C830      1.0  0.26859  0.83354  0.05685  1.0000
  H   H639      1.0  0.29186  0.68371  0.11770  1.0000
  H   H640      1.0  0.27105  0.67530  0.09345  1.0000
  H   H641      1.0  0.27909  0.71804  0.07178  1.0000
  H   H642      1.0  0.36374  0.76338  0.04509  1.0000
  H   H643      1.0  0.36234  0.74003  0.02112  1.0000
  H   H644      1.0  0.30870  0.72847  0.01209  1.0000
  H   H645      1.0  0.25607  0.74053  0.02741  1.0000
  H   H646      1.0  0.25682  0.76443  0.05164  1.0000
  H   H647      1.0  0.33124  0.85281  0.06247  1.0000
  H   H648      1.0  0.37654  0.75768  0.07359  1.0000
  H   H649      1.0  0.21111  0.88422  0.07349  1.0000
  H   H650      1.0  0.23810  0.87365  0.04828  1.0000
  H   H651      1.0  0.28137  0.83060  0.04581  1.0000
  H   H652      1.0  0.07456  0.86855  0.99013  1.0000
  C   C831      1.0  0.41111  0.83373  0.06753  1.0000
  H   H653      1.0  0.43498  0.84531  0.06686  1.0000
  C   C832      1.0  0.48391  0.88232  0.04344  1.0000
  H   H654      1.0  0.38289  0.77813  0.19630  1.0000
  H   H655      1.0  0.44360  0.99471  0.08758  1.0000
  H   H656      1.0  0.38500  0.87921  0.06152  1.0000
  H   H657      1.0  0.10985  0.90063  0.00674  1.0000
  H   H658      1.0  0.47798  0.52943  0.18454  1.0000
  H   H659      1.0  0.38070  0.71702  0.19848  1.0000
  C   C833      1.0  0.36216  0.93233  0.08431  1.0000
  C   C834      1.0  0.42982  0.98273  0.02979  1.0000
  H   H660      1.0  0.50527  0.69100  0.14146  1.0000
  H   H661      1.0  0.25614  0.54724  0.01050  1.0000
  P   P28       1.0  0.45789  0.97353  0.05695  1.0000
  C   C835      1.0  0.18348  0.91592  0.96904  1.0000
  C   C836      1.0  0.22392  0.62651  0.21180  1.0000
  H   H662      1.0  0.37881  0.53459  0.13425  1.0000
  C   C837      1.0  0.50999  0.69898  0.19116  1.0000
  H   H663      1.0  0.39401  0.89678  0.09533  1.0000
  C   C838      1.0  0.09915  0.97165  0.02354  1.0000
  C   C839      1.0  0.49255  0.00395  0.99519  1.0000
  C   C840      1.0  0.23183  0.94054  0.97665  1.0000
  C   C841      1.0  0.19866  0.94283  0.97384  1.0000
  H   H664      1.0  0.24885  0.62581  0.20609  1.0000
  C   C842      1.0  0.10691  0.92680  0.00777  1.0000
  H   H665      1.0  0.49646  0.66000  0.20881  1.0000
  C   C843      1.0  0.06902  0.84630  0.96986  1.0000
  H   H666      1.0  0.09923  0.00446  0.15388  1.0000
  C   C844      1.0  0.44622  0.99784  0.04019  1.0000
  C   C845      1.0  0.32726  0.51158  0.16605  1.0000
  H   H667      1.0  0.10374  0.92061  0.03206  1.0000
  Fe  Fe65      1.0  0.07294  0.00378  0.07968  1.0000
  H   H668      1.0  0.09643  0.97975  0.03475  1.0000
  H   H669      1.0  0.14705  0.59788  0.20958  1.0000
  C   C846      1.0  0.48900  0.67438  0.19887  1.0000
  C   C847      1.0  0.49985  0.94568  0.12429  1.0000
  H   H670      1.0  0.45811  0.00376  0.97855  1.0000
  H   H671      1.0  0.10236  0.00035  0.98624  1.0000
  C   C848      1.0  0.51162  0.94154  0.09748  1.0000
  C   C849      1.0  0.16658  0.61064  0.21380  1.0000
  C   C850      1.0  0.24216  0.99625  0.41682  1.0000
  C   C851      1.0  0.39131  0.60826  0.24709  1.0000
  H   H672      1.0  0.01786  0.88186  0.32346  1.0000
  C   C852      1.0  0.06440  0.68628  0.25913  1.0000
  S   S121      1.0  0.08812  0.66996  0.29687  1.0000
  Fe  Fe66      1.0  0.25103  0.86925  0.28837  1.0000
  S   S122      1.0  0.22843  0.82865  0.27807  1.0000
  S   S123      1.0  0.24073  0.92255  0.27946  1.0000
  Fe  Fe67      1.0  0.28958  0.81963  0.30885  1.0000
  S   S124      1.0  0.26953  0.77549  0.30008  1.0000
  S   S125      1.0  0.32066  0.81677  0.32854  1.0000
  Fe  Fe68      1.0  0.27893  0.80463  0.27724  1.0000
  S   S126      1.0  0.30333  0.78779  0.25530  1.0000
  Fe  Fe69      1.0  0.22095  0.80350  0.30161  1.0000
  S   S127      1.0  0.17189  0.78644  0.31362  1.0000
  S   S128      1.0  0.30251  0.84720  0.28591  1.0000
  S   S129      1.0  0.24019  0.84573  0.31206  1.0000
  Fe  Fe70      1.0  0.17512  0.86655  0.41215  1.0000
  S   S130      1.0  0.20021  0.82809  0.42677  1.0000
  S   S131      1.0  0.17871  0.92169  0.41448  1.0000
  Fe  Fe71      1.0  0.14353  0.81324  0.39573  1.0000
  S   S132      1.0  0.16697  0.77128  0.40939  1.0000
  S   S133      1.0  0.11875  0.80668  0.37458  1.0000
  Fe  Fe72      1.0  0.15212  0.80057  0.42919  1.0000
  Fe  Fe73      1.0  0.21236  0.80268  0.40587  1.0000
  S   S134      1.0  0.26402  0.79093  0.39616  1.0000
  S   S135      1.0  0.12579  0.84091  0.41572  1.0000
  S   S136      1.0  0.19028  0.84288  0.39098  1.0000
  Fe  Fe74      1.0  0.46746  0.70659  0.39873  1.0000
  S   S137      1.0  0.44743  0.65946  0.41172  1.0000
  Fe  Fe75      1.0  0.43585  0.69209  0.37075  1.0000
  S   S138      1.0  0.41413  0.64405  0.38168  1.0000
  S   S139      1.0  0.42668  0.70651  0.34637  1.0000
  Fe  Fe76      1.0  0.40024  0.67231  0.40161  1.0000
  S   S140      1.0  0.34983  0.66591  0.41514  1.0000
  Fe  Fe77      1.0  0.46309  0.63449  0.39077  1.0000
  H   H673      1.0  0.23714  0.65628  0.22847  1.0000
  S   S141      1.0  0.41884  0.72114  0.39018  1.0000
  S   S142      1.0  0.48661  0.68084  0.37834  1.0000
  C   C853      1.0  0.28404  0.75325  0.40069  1.0000
  C   C854      1.0  0.27328  0.73163  0.41342  1.0000
  C   C855      1.0  0.29302  0.70392  0.41754  1.0000
  C   C856      1.0  0.32315  0.69798  0.40900  1.0000
  C   C857      1.0  0.33238  0.71841  0.39578  1.0000
  C   C858      1.0  0.31314  0.74611  0.39173  1.0000
  H   H674      1.0  0.25064  0.73700  0.42033  1.0000
  H   H675      1.0  0.28569  0.68762  0.42750  1.0000
  H   H676      1.0  0.35416  0.71277  0.38852  1.0000
  H   H677      1.0  0.32118  0.76238  0.38173  1.0000
  C   C859      1.0  0.45513  0.54359  0.37863  1.0000
  C   C860      1.0  0.48021  0.54625  0.38790  1.0000
  C   C861      1.0  0.05049  0.93546  0.25649  1.0000
  H   H678      1.0  0.44168  0.56550  0.37475  1.0000
  C   C862      1.0  0.30337  0.74640  0.25109  1.0000
  C   C863      1.0  0.29199  0.72065  0.26190  1.0000
  C   C864      1.0  0.29219  0.68809  0.25799  1.0000
  H   H679      1.0  0.28302  0.72585  0.27323  1.0000
  H   H680      1.0  0.28335  0.66826  0.26636  1.0000
  C   C865      1.0  0.39455  0.73474  0.34182  1.0000
  C   C866      1.0  0.38841  0.74164  0.32667  1.0000
  C   C867      1.0  0.36460  0.76564  0.32253  1.0000
  C   C868      1.0  0.34699  0.78313  0.33349  1.0000
  C   C869      1.0  0.35274  0.77585  0.34865  1.0000
  C   C870      1.0  0.37607  0.75146  0.35284  1.0000
  H   H681      1.0  0.40277  0.72903  0.31806  1.0000
  H   H682      1.0  0.36096  0.77179  0.31079  1.0000
  H   H683      1.0  0.33969  0.78978  0.35713  1.0000
  H   H684      1.0  0.38072  0.74668  0.36451  1.0000
  C   C871      1.0  0.11338  0.70079  0.30163  1.0000
  C   C872      1.0  0.10890  0.71087  0.31612  1.0000
  C   C873      1.0  0.12772  0.73666  0.31970  1.0000
  C   C874      1.0  0.15101  0.75262  0.30883  1.0000
  C   C875      1.0  0.15588  0.74240  0.29435  1.0000
  C   C876      1.0  0.13701  0.71647  0.29074  1.0000
  H   H685      1.0  0.09084  0.69887  0.32461  1.0000
  H   H686      1.0  0.12413  0.74436  0.33094  1.0000
  H   H687      1.0  0.17330  0.75524  0.28585  1.0000
  H   H688      1.0  0.13976  0.70953  0.27939  1.0000
  C   C877      1.0  0.04166  0.73148  0.36587  1.0000
  C   C878      1.0  0.06201  0.74807  0.35397  1.0000
  C   C879      1.0  0.08591  0.77032  0.35692  1.0000
  C   C880      1.0  0.09005  0.77621  0.37176  1.0000
  C   C881      1.0  0.07023  0.75909  0.38372  1.0000
  C   C882      1.0  0.04606  0.73700  0.38077  1.0000
  C   C883      1.0  0.16689  0.99933  0.33854  1.0000
  H   H689      1.0  0.10142  0.78297  0.34761  1.0000
  H   H690      1.0  0.07289  0.76352  0.39520  1.0000
  H   H691      1.0  0.32414  0.70159  0.22120  1.0000
  C   C884      1.0  0.20432  0.94403  0.28582  1.0000
  C   C885      1.0  0.19499  0.97323  0.27738  1.0000
  S   S143      1.0  0.49183  0.73999  0.41316  1.0000
  C   C886      1.0  0.14713  0.98021  0.29565  1.0000
  C   C887      1.0  0.15641  0.95096  0.30406  1.0000
  C   C888      1.0  0.18486  0.93292  0.29917  1.0000
  H   H692      1.0  0.29227  0.70236  0.45085  1.0000
  H   H693      1.0  0.32411  0.75908  0.22807  1.0000
  H   H694      1.0  0.14169  0.94235  0.31449  1.0000
  H   H695      1.0  0.19206  0.91073  0.30584  1.0000
  H   H696      1.0  0.50622  0.89280  0.39459  1.0000
  C   C889      1.0  0.13062  0.60220  0.46330  1.0000
  H   H697      1.0  0.50808  0.00309  0.45935  1.0000
  C   C890      1.0  0.39808  0.71059  0.22044  1.0000
  H   H698      1.0  0.47125  0.59641  0.23279  1.0000
  H   H699      1.0  0.27761  0.81515  0.44934  1.0000
  C   C891      1.0  0.27257  0.98017  0.41830  1.0000
  C   C892      1.0  0.15844  0.88701  0.45639  1.0000
  C   C893      1.0  0.21403  0.97795  0.41522  1.0000
  C   C894      1.0  0.21551  0.94335  0.41574  1.0000
  C   C895      1.0  0.24569  0.92711  0.41769  1.0000
  C   C896      1.0  0.27407  0.94549  0.41888  1.0000
  H   H700      1.0  0.21863  0.58769  0.41116  1.0000
  H   H701      1.0  0.19098  0.99071  0.41339  1.0000
  H   H702      1.0  0.24722  0.90045  0.41819  1.0000
  H   H703      1.0  0.29729  0.93271  0.42035  1.0000
  C   C897      1.0  0.30614  0.86989  0.38399  1.0000
  C   C898      1.0  0.30443  0.90259  0.38742  1.0000
  C   C899      1.0  0.33156  0.91645  0.39260  1.0000
  C   C900      1.0  0.36000  0.89733  0.39486  1.0000
  C   C901      1.0  0.36164  0.86413  0.39181  1.0000
  C   C902      1.0  0.33477  0.85088  0.38595  1.0000
  P   P29       1.0  0.39793  0.83871  0.39513  1.0000
  C   C903      1.0  0.41597  0.82356  0.37770  1.0000
  C   C904      1.0  0.42826  0.86189  0.40280  1.0000
  C   C905      1.0  0.42172  0.87062  0.41761  1.0000
  C   C906      1.0  0.48242  0.88690  0.40093  1.0000
  C   C907      1.0  0.45877  0.87031  0.39446  1.0000
  C   C908      1.0  0.40459  0.83528  0.36382  1.0000
  C   C909      1.0  0.41789  0.82262  0.35050  1.0000
  C   C910      1.0  0.44284  0.79843  0.35087  1.0000
  C   C911      1.0  0.45500  0.78735  0.36450  1.0000
  C   C912      1.0  0.44184  0.80000  0.37783  1.0000
  C   C913      1.0  0.38788  0.80409  0.40928  1.0000
  C   C914      1.0  0.41347  0.78659  0.41612  1.0000
  C   C915      1.0  0.40650  0.75900  0.42658  1.0000
  C   C916      1.0  0.37385  0.74910  0.43066  1.0000
  C   C917      1.0  0.34810  0.76732  0.42456  1.0000
  C   C918      1.0  0.35497  0.79456  0.41388  1.0000
  H   H704      1.0  0.28502  0.85891  0.38012  1.0000
  H   H705      1.0  0.38044  0.90862  0.39905  1.0000
  H   H706      1.0  0.33559  0.82554  0.38320  1.0000
  H   H707      1.0  0.39839  0.86427  0.42424  1.0000
  H   H708      1.0  0.46467  0.86380  0.38308  1.0000
  H   H709      1.0  0.38521  0.85385  0.36314  1.0000
  H   H710      1.0  0.12425  0.96627  0.25679  1.0000
  C   C919      1.0  0.41971  0.59188  0.24123  1.0000
  H   H711      1.0  0.44001  0.57320  0.42801  1.0000
  H   H712      1.0  0.45178  0.79095  0.38820  1.0000
  H   H713      1.0  0.43900  0.79399  0.41332  1.0000
  H   H714      1.0  0.42663  0.74503  0.43131  1.0000
  H   H715      1.0  0.36855  0.72720  0.43841  1.0000
  H   H716      1.0  0.32272  0.75990  0.42778  1.0000
  H   H717      1.0  0.33432  0.80761  0.40932  1.0000
  H   H718      1.0  0.15109  0.98115  0.34532  1.0000
  C   C920      1.0  0.40883  0.72619  0.23222  1.0000
  H   H719      1.0  0.47414  0.65497  0.23708  1.0000
  C   C921      1.0  0.20107  0.66947  0.42521  1.0000
  C   C922      1.0  0.22593  0.65337  0.43288  1.0000
  C   C923      1.0  0.23370  0.66413  0.44636  1.0000
  C   C924      1.0  0.18981  0.86546  0.24862  1.0000
  H   H720      1.0  0.28190  0.91703  0.38629  1.0000
  S   S144      1.0  0.13191  0.78432  0.45349  1.0000
  H   H721      1.0  0.17232  0.62034  0.30262  1.0000
  H   H722      1.0  0.39355  0.60841  0.35293  1.0000
  C   C925      1.0  0.07707  0.65426  0.26186  1.0000
  H   H723      1.0  0.51067  0.78688  0.43211  1.0000
  H   H724      1.0  0.06086  0.63463  0.26716  1.0000
  H   H725      1.0  0.21002  0.98206  0.26707  1.0000
  C   C926      1.0  0.21715  0.64359  0.22455  1.0000
  H   H726      1.0  0.03046  0.72436  0.39008  1.0000
  H   H727      1.0  0.25274  0.65106  0.45213  1.0000
  H   H728      1.0  0.19498  0.66140  0.41473  1.0000
  H   H729      1.0  0.23955  0.63289  0.42828  1.0000
  C   C927      1.0  0.14685  0.92419  0.38076  1.0000
  H   H730      1.0  0.16615  0.61711  0.44444  1.0000
  H   H731      1.0  0.04380  0.94070  0.24511  1.0000
  C   C928      1.0  0.21979  0.75217  0.22996  1.0000
  P   P30       1.0  0.34343  0.52790  0.39381  1.0000
  H   H732      1.0  0.36787  0.59554  0.24926  1.0000
  H   H733      1.0  0.15991  0.87269  0.44681  1.0000
  C   C929      1.0  0.12794  0.97944  0.24556  1.0000
  C   C930      1.0  0.25812  0.80327  0.35695  1.0000
  C   C931      1.0  0.23009  0.82135  0.35311  1.0000
  C   C932      1.0  0.20343  0.80518  0.34875  1.0000
  C   C933      1.0  0.20477  0.77102  0.34824  1.0000
  C   C934      1.0  0.23290  0.75257  0.35205  1.0000
  C   C935      1.0  0.25962  0.76905  0.35642  1.0000
  P   P31       1.0  0.23263  0.70799  0.35261  1.0000
  C   C936      1.0  0.26508  0.68958  0.36316  1.0000
  C   C937      1.0  0.19167  0.69686  0.36142  1.0000
  C   C938      1.0  0.17895  0.71075  0.37462  1.0000
  C   C939      1.0  0.14565  0.70681  0.38027  1.0000
  C   C940      1.0  0.12481  0.68897  0.37283  1.0000
  C   C941      1.0  0.13728  0.67484  0.35979  1.0000
  C   C942      1.0  0.17058  0.67872  0.35408  1.0000
  C   C943      1.0  0.29819  0.69176  0.35667  1.0000
  C   C944      1.0  0.32347  0.67588  0.36416  1.0000
  C   C945      1.0  0.31591  0.65776  0.37821  1.0000
  C   C946      1.0  0.28319  0.65614  0.38493  1.0000
  C   C947      1.0  0.25777  0.67188  0.37743  1.0000
  C   C948      1.0  0.23893  0.69463  0.33386  1.0000
  C   C949      1.0  0.22622  0.71339  0.32173  1.0000
  C   C950      1.0  0.23033  0.70276  0.30730  1.0000
  C   C951      1.0  0.24747  0.67339  0.30481  1.0000
  C   C952      1.0  0.25981  0.65415  0.31686  1.0000
  C   C953      1.0  0.25527  0.66451  0.33136  1.0000
  H   H734      1.0  0.27877  0.81567  0.36042  1.0000
  H   H735      1.0  0.22897  0.84779  0.35358  1.0000
  H   H736      1.0  0.18148  0.81888  0.34584  1.0000
  H   H737      1.0  0.18342  0.75906  0.34511  1.0000
  H   H738      1.0  0.28143  0.75582  0.35972  1.0000
  H   H739      1.0  0.19432  0.72621  0.38005  1.0000
  H   H740      1.0  0.13556  0.71905  0.38997  1.0000
  H   H741      1.0  0.09870  0.68706  0.37688  1.0000
  H   H742      1.0  0.12072  0.66207  0.35375  1.0000
  H   H743      1.0  0.17921  0.66884  0.34359  1.0000
  H   H744      1.0  0.30449  0.70598  0.34582  1.0000
  H   H745      1.0  0.34903  0.67826  0.35921  1.0000
  H   H746      1.0  0.33563  0.64622  0.38419  1.0000
  H   H747      1.0  0.27778  0.64337  0.39612  1.0000
  H   H748      1.0  0.23263  0.67037  0.38281  1.0000
  H   H749      1.0  0.21331  0.73636  0.32338  1.0000
  H   H750      1.0  0.22061  0.71770  0.29802  1.0000
  H   H751      1.0  0.25113  0.66568  0.29354  1.0000
  H   H752      1.0  0.27295  0.63126  0.31495  1.0000
  H   H753      1.0  0.26456  0.64900  0.34058  1.0000
  C   C954      1.0  0.18043  0.91282  0.45644  1.0000
  C   C955      1.0  0.24055  0.98812  0.36339  1.0000
  H   H754      1.0  0.13785  0.93546  0.23440  1.0000
  C   C956      1.0  0.30356  0.54642  0.39921  1.0000
  Fe  Fe78      1.0  0.03785  0.67182  0.31014  1.0000
  H   H755      1.0  0.40801  0.83074  0.33995  1.0000
  C   C957      1.0  0.35637  0.54232  0.37430  1.0000
  C   C958      1.0  0.19249  0.70776  0.44425  1.0000
  H   H756      1.0  0.19891  0.91808  0.44684  1.0000
  H   H757      1.0  0.37001  0.65423  0.25331  1.0000
  H   H758      1.0  0.28203  0.93119  0.30341  1.0000
  C   C959      1.0  0.31281  0.56395  0.45341  1.0000
  C   C960      1.0  0.38145  0.58471  0.35561  1.0000
  C   C961      1.0  0.11202  0.74653  0.46006  1.0000
  C   C962      1.0  0.05418  0.95293  0.28121  1.0000
  H   H759      1.0  0.17912  0.96517  0.37976  1.0000
  C   C963      1.0  0.25663  0.80262  0.45585  1.0000
  H   H760      1.0  0.19585  0.91281  0.25656  1.0000
  H   H761      1.0  0.13389  0.92903  0.39155  1.0000
  C   C964      1.0  0.24228  0.57617  0.40786  1.0000
  C   C965      1.0  0.19543  0.99960  0.45457  1.0000
  C   C966      1.0  0.21783  0.69214  0.45188  1.0000
  H   H762      1.0  0.29141  0.55931  0.37633  1.0000
  S   S145      1.0  0.11157  0.00226  0.30255  1.0000
  C   C967      1.0  0.18494  0.64424  0.23210  1.0000
  S   S146      1.0  0.30977  0.00251  0.41786  1.0000
  P   P32       1.0  0.17649  0.66546  0.24890  1.0000
  C   C968      1.0  0.19168  0.64073  0.26479  1.0000
  C   C969      1.0  0.19748  0.70453  0.24629  1.0000
  C   C970      1.0  0.20530  0.71924  0.25888  1.0000
  C   C971      1.0  0.21995  0.75029  0.25701  1.0000
  C   C972      1.0  0.22757  0.76656  0.24256  1.0000
  C   C973      1.0  0.39261  0.64162  0.24934  1.0000
  C   C974      1.0  0.01616  0.90849  0.32182  1.0000
  C   C975      1.0  0.17392  0.63921  0.27922  1.0000
  C   C976      1.0  0.18636  0.62117  0.29157  1.0000
  C   C977      1.0  0.21678  0.60456  0.28966  1.0000
  C   C978      1.0  0.23489  0.60628  0.27541  1.0000
  C   C979      1.0  0.22243  0.62429  0.26305  1.0000
  C   C980      1.0  0.13246  0.67361  0.25254  1.0000
  C   C981      1.0  0.11095  0.64793  0.25864  1.0000
  C   C982      1.0  0.08550  0.71192  0.25289  1.0000
  C   C983      1.0  0.11937  0.70565  0.24953  1.0000
  C   C984      1.0  0.31530  0.70679  0.23255  1.0000
  H   H763      1.0  0.20026  0.70674  0.27016  1.0000
  H   H764      1.0  0.22662  0.76126  0.26672  1.0000
  H   H765      1.0  0.24018  0.79004  0.24116  1.0000
  C   C985      1.0  0.25558  0.94678  0.32370  1.0000
  C   C986      1.0  0.41070  0.76080  0.23076  1.0000
  H   H766      1.0  0.15051  0.65201  0.28107  1.0000
  H   H767      1.0  0.16390  0.70790  0.42543  1.0000
  C   C987      1.0  0.08008  0.79232  0.28322  1.0000
  H   H768      1.0  0.25878  0.59394  0.27386  1.0000
  H   H769      1.0  0.23717  0.62556  0.25222  1.0000
  C   C988      1.0  0.27297  0.96921  0.45577  1.0000
  C   C989      1.0  0.49774  0.51747  0.39270  1.0000
  H   H770      1.0  0.13520  0.72602  0.24489  1.0000
  C   C990      1.0  0.28873  0.89462  0.33888  1.0000
  C   C991      1.0  0.40106  0.77950  0.21792  1.0000
  H   H771      1.0  0.06956  0.74028  0.28582  1.0000
  H   H772      1.0  0.31209  0.88559  0.31689  1.0000
  H   H773      1.0  0.30107  0.87389  0.34466  1.0000
  C   C992      1.0  0.16262  0.60545  0.45592  1.0000
  C   C993      1.0  0.44949  0.60889  0.23769  1.0000
  C   C994      1.0  0.16893  0.99669  0.44598  1.0000
  H   H774      1.0  0.21261  0.86709  0.24107  1.0000
  C   C995      1.0  0.48235  0.00461  0.45727  1.0000
  C   C996      1.0  0.42257  0.65874  0.24608  1.0000
  C   C997      1.0  0.45097  0.64220  0.24010  1.0000
  P   P33       1.0  0.42317  0.70223  0.24845  1.0000
  C   C998      1.0  0.39764  0.70806  0.26589  1.0000
  H   H775      1.0  0.17929  0.72892  0.44846  1.0000
  C   C999      1.0  0.37540  0.73486  0.26695  1.0000
  C   C1000     1.0  0.35563  0.73851  0.28049  1.0000
  C   C1001     1.0  0.35748  0.71526  0.29301  1.0000
  C   C1002     1.0  0.37971  0.68866  0.29212  1.0000
  C   C1003     1.0  0.39968  0.68501  0.27863  1.0000
  H   H776      1.0  0.11917  0.88033  0.37941  1.0000
  C   C1004     1.0  0.04495  0.95932  0.26661  1.0000
  H   H777      1.0  0.39689  0.68402  0.22107  1.0000
  C   C1005     1.0  0.09090  0.69321  0.45606  1.0000
  S   S147      1.0  0.02214  0.64139  0.33208  1.0000
  P   P34       1.0  0.22095  0.96609  0.35032  1.0000
  H   H778      1.0  0.37259  0.75277  0.25737  1.0000
  H   H779      1.0  0.33842  0.75922  0.28118  1.0000
  H   H780      1.0  0.34174  0.71799  0.30341  1.0000
  H   H781      1.0  0.38146  0.67091  0.30192  1.0000
  H   H782      1.0  0.41670  0.66417  0.27811  1.0000
  C   C1006     1.0  0.04209  0.92687  0.32557  1.0000
  C   C1007     1.0  0.31517  0.73930  0.23645  1.0000
  C   C1008     1.0  0.25651  0.76809  0.45832  1.0000
  C   C1009     1.0  0.26205  0.56274  0.41885  1.0000
  C   C1010     1.0  0.17032  0.83728  0.24996  1.0000
  C   C1011     1.0  0.14148  0.83475  0.26008  1.0000
  C   C1012     1.0  0.13189  0.86053  0.26895  1.0000
  C   C1013     1.0  0.15156  0.88885  0.26746  1.0000
  P   P35       1.0  0.09339  0.85933  0.28120  1.0000
  C   C1014     1.0  0.06856  0.82435  0.27886  1.0000
  C   C1015     1.0  0.09967  0.85540  0.30094  1.0000
  C   C1016     1.0  0.07382  0.84358  0.31176  1.0000
  C   C1017     1.0  0.07822  0.83944  0.32707  1.0000
  C   C1018     1.0  0.10836  0.84739  0.33174  1.0000
  C   C1019     1.0  0.13415  0.85947  0.32109  1.0000
  C   C1020     1.0  0.12995  0.86325  0.30572  1.0000
  C   C1021     1.0  0.26616  0.91428  0.34700  1.0000
  H   H783      1.0  0.06951  0.88687  0.25303  1.0000
  C   C1022     1.0  0.07314  0.89799  0.27585  1.0000
  C   C1023     1.0  0.06838  0.92243  0.28581  1.0000
  C   C1024     1.0  0.28354  0.55997  0.38824  1.0000
  C   C1025     1.0  0.06067  0.76491  0.28236  1.0000
  C   C1026     1.0  0.03661  0.82853  0.27427  1.0000
  C   C1027     1.0  0.20147  0.99749  0.33835  1.0000
  C   C1028     1.0  0.18386  0.69610  0.43112  1.0000
  H   H784      1.0  0.33027  0.94186  0.39525  1.0000
  H   H785      1.0  0.17772  0.81723  0.24326  1.0000
  H   H786      1.0  0.12687  0.81275  0.26082  1.0000
  H   H787      1.0  0.14475  0.90912  0.27416  1.0000
  C   C1029     1.0  0.15571  0.89000  0.36023  1.0000
  H   H788      1.0  0.05859  0.82927  0.33534  1.0000
  H   H789      1.0  0.11189  0.84308  0.34358  1.0000
  H   H790      1.0  0.15794  0.86446  0.32466  1.0000
  H   H791      1.0  0.15073  0.87128  0.29769  1.0000
  C   C1030     1.0  0.02929  0.76922  0.27750  1.0000
  H   H792      1.0  0.10390  0.78861  0.28756  1.0000
  H   H793      1.0  0.07628  0.91842  0.29700  1.0000
  H   H794      1.0  0.37544  0.58838  0.37938  1.0000
  C   C1031     1.0  0.18076  0.91095  0.35315  1.0000
  C   C1032     1.0  0.39977  0.52088  0.40933  1.0000
  C   C1033     1.0  0.06481  0.90499  0.26104  1.0000
  C   C1034     1.0  0.42345  0.53218  0.41766  1.0000
  C   C1035     1.0  0.37031  0.57324  0.41023  1.0000
  C   C1036     1.0  0.30154  0.59316  0.45926  1.0000
  H   H795      1.0  0.28728  0.51529  0.23473  1.0000
  C   C1037     1.0  0.29254  0.54787  0.41454  1.0000
  C   C1038     1.0  0.18040  0.89122  0.25736  1.0000
  C   C1039     1.0  0.37649  0.56544  0.34409  1.0000
  C   C1040     1.0  0.36100  0.53489  0.34759  1.0000
  C   C1041     1.0  0.35072  0.52344  0.36263  1.0000
  H   H796      1.0  0.35054  0.59005  0.40711  1.0000
  H   H797      1.0  0.39230  0.60923  0.42188  1.0000
  C   C1042     1.0  0.39402  0.58436  0.41860  1.0000
  H   H798      1.0  0.47865  0.71808  0.22525  1.0000
  C   C1043     1.0  0.48659  0.72155  0.23613  1.0000
  H   H799      1.0  0.38479  0.57417  0.33246  1.0000
  H   H800      1.0  0.35725  0.51990  0.33865  1.0000
  H   H801      1.0  0.26101  0.90841  0.35910  1.0000
  C   C1044     1.0  0.25016  0.94118  0.33953  1.0000
  H   H802      1.0  0.05921  0.74403  0.34246  1.0000
  H   H803      1.0  0.22644  0.59065  0.29924  1.0000
  C   C1045     1.0  0.13845  0.89682  0.37391  1.0000
  C   C1046     1.0  0.37130  0.57324  0.37064  1.0000
  C   C1047     1.0  0.17265  0.94469  0.37398  1.0000
  H   H804      1.0  0.41828  0.56635  0.23894  1.0000
  H   H805      1.0  0.47410  0.76831  0.36481  1.0000
  H   H806      1.0  0.11274  0.72884  0.43828  1.0000
  H   H807      1.0  0.22885  0.84764  0.45889  1.0000
  C   C1048     1.0  0.27327  0.98089  0.36648  1.0000
  H   H808      1.0  0.15574  0.97378  0.44656  1.0000
  C   C1049     1.0  0.44539  0.88735  0.42399  1.0000
  H   H809      1.0  0.32435  0.97172  0.44673  1.0000
  H   H810      1.0  0.03835  0.69129  0.26219  1.0000
  H   H811      1.0  0.07571  0.73681  0.25096  1.0000
  H   H812      1.0  0.42836  0.51094  0.36704  1.0000
  C   C1050     1.0  0.29492  0.90114  0.32321  1.0000
  H   H813      1.0  0.06358  0.91441  0.32981  1.0000
  C   C1051     1.0  0.42075  0.56398  0.42219  1.0000
  H   H814      1.0  0.13470  0.62735  0.23209  1.0000
  H   H815      1.0  0.27772  0.75480  0.45364  1.0000
  H   H816      1.0  0.02609  0.85285  0.27171  1.0000
  C   C1052     1.0  0.10604  0.72336  0.45029  1.0000
  H   H817      1.0  0.08630  0.67543  0.44842  1.0000
  H   H818      1.0  0.30768  0.53755  0.42313  1.0000
  C   C1053     1.0  0.30386  0.68111  0.24331  1.0000
  S   S148      1.0  0.49045  0.58471  0.39389  1.0000
  H   H819      1.0  0.19317  0.90557  0.34233  1.0000
  C   C1054     1.0  0.27810  0.92696  0.31562  1.0000
  H   H820      1.0  0.45216  0.78764  0.34065  1.0000
  H   H821      1.0  0.28755  0.96147  0.36141  1.0000
  S   S149      1.0  0.30384  0.64007  0.23876  1.0000
  C   C1055     1.0  0.16643  0.99121  0.28224  1.0000
  H   H822      1.0  0.06082  0.97561  0.32641  1.0000
  C   C1056     1.0  0.46497  0.71534  0.24947  1.0000
  H   H823      1.0  0.23782  0.58538  0.38404  1.0000
  H   H824      1.0  0.12048  0.62315  0.26126  1.0000
  C   C1057     1.0  0.28822  0.99912  0.37620  1.0000
  C   C1058     1.0  0.18963  0.93838  0.36003  1.0000
  C   C1059     1.0  0.20440  0.72144  0.23181  1.0000
  C   C1060     1.0  0.47614  0.72016  0.26335  1.0000
  C   C1061     1.0  0.43376  0.97938  0.45033  1.0000
  H   H825      1.0  0.26818  0.99436  0.45136  1.0000
  C   C1062     1.0  0.30504  0.95631  0.45300  1.0000
  H   H826      1.0  0.44046  0.89404  0.43543  1.0000
  C   C1063     1.0  0.22922  0.82097  0.46126  1.0000
  H   H827      1.0  0.14995  0.86809  0.35528  1.0000
  H   H828      1.0  0.41958  0.77333  0.23957  1.0000
  C   C1064     1.0  0.37302  0.54137  0.40547  1.0000
  C   C1065     1.0  0.25303  0.57478  0.39258  1.0000
  C   C1066     1.0  0.47579  0.89527  0.41569  1.0000
  H   H829      1.0  0.05043  0.83687  0.30836  1.0000
  H   H830      1.0  0.24209  0.96578  0.31744  1.0000
  H   H831      1.0  0.46006  0.71596  0.27380  1.0000
  S   S150      1.0  0.02082  0.72046  0.31785  1.0000
  C   C1067     1.0  0.14102  0.97934  0.21848  1.0000
  C   C1068     1.0  0.04053  0.96136  0.32370  1.0000
  H   H832      1.0  0.01407  0.74788  0.27719  1.0000
  H   H833      1.0  0.33463  0.56422  0.44522  1.0000
  H   H834      1.0  0.25383  0.56388  0.43071  1.0000
  H   H835      1.0  0.10952  0.61161  0.45764  1.0000
  H   H836      1.0  0.42195  0.95827  0.44696  1.0000
  H   H837      1.0  0.03355  0.98280  0.26310  1.0000
  H   H838      1.0  0.44480  0.51679  0.42000  1.0000
  C   C1069     1.0  0.13562  0.96216  0.23293  1.0000
  C   C1070     1.0  0.44759  0.51252  0.37433  1.0000
  H   H839      1.0  0.49426  0.90770  0.42078  1.0000
  H   H840      1.0  0.05078  0.97177  0.28894  1.0000
  H   H841      1.0  0.21426  0.59663  0.45736  1.0000
  H   H842      1.0  0.19808  0.71092  0.22193  1.0000
  H   H843      1.0  0.31317  0.99311  0.37883  1.0000
  C   C1071     1.0  0.31209  0.92349  0.45794  1.0000
  C   C1072     1.0  0.01711  0.80100  0.27361  1.0000
  H   H844      1.0  0.22607  0.76468  0.21876  1.0000
  H   H845      1.0  0.40204  0.80620  0.21698  1.0000
  C   C1073     1.0  0.46720  0.97727  0.45289  1.0000
  C   C1074     1.0  0.50844  0.73076  0.26385  1.0000
  C   C1075     1.0  0.29609  0.53445  0.45819  1.0000
  H   H846      1.0  0.33689  0.91359  0.45552  1.0000
  H   H847      1.0  0.34657  0.67973  0.45645  1.0000
  H   H848      1.0  0.24743  0.52396  0.21559  1.0000
  H   H849      1.0  0.31451  0.61600  0.45545  1.0000
  C   C1076     1.0  0.15972  0.62747  0.22662  1.0000
  S   S151      1.0  0.48890  0.93957  0.45160  1.0000
  Fe  Fe79      1.0  0.32705  0.62784  0.21580  1.0000
  C   C1077     1.0  0.01294  0.97748  0.31819  1.0000
  C   C1078     1.0  0.29515  0.69182  0.46222  1.0000
  C   C1079     1.0  0.41556  0.00881  0.45203  1.0000
  H   H850      1.0  0.38985  0.01038  0.44993  1.0000
  H   H851      1.0  0.30504  0.51175  0.45373  1.0000
  C   C1080     1.0  0.18981  0.59408  0.46339  1.0000
  C   C1081     1.0  0.24771  0.94946  0.46376  1.0000
  H   H852      1.0  0.35752  0.90866  0.66019  1.0000
  H   H853      1.0  0.49364  0.95770  0.63721  1.0000
  H   H854      1.0  0.46029  0.68281  0.66150  1.0000
  H   H855      1.0  0.46355  0.98779  0.71171  1.0000
  S   S152      1.0  0.02968  0.83241  0.68251  1.0000
  H   H856      1.0  0.41619  0.56448  0.64159  1.0000
  Fe  Fe80      1.0  0.05615  0.88125  0.67735  1.0000
  S   S153      1.0  0.09884  0.89137  0.65880  1.0000
  C   C1082     1.0  0.31330  0.00262  0.48847  1.0000
  S   S154      1.0  0.06126  0.88681  0.70164  1.0000
  C   C1083     1.0  0.22063  0.97668  0.51196  1.0000
  H   H857      1.0  0.33521  0.51342  0.62805  1.0000
  H   H858      1.0  0.24069  0.63054  0.53885  1.0000
  H   H859      1.0  0.22797  0.53565  0.66502  1.0000
  H   H860      1.0  0.23434  0.96407  0.52062  1.0000
  C   C1084     1.0  0.08111  0.68625  0.47160  1.0000
  H   H861      1.0  0.06567  0.71835  0.66186  1.0000
  H   H862      1.0  0.35943  0.99048  0.49752  1.0000
  S   S155      1.0  0.22760  0.51450  0.55141  1.0000
  H   H863      1.0  0.01657  0.67751  0.65420  1.0000
  H   H864      1.0  0.17875  0.75845  0.47676  1.0000
  C   C1085     1.0  0.41553  0.99175  0.63738  1.0000
  C   C1086     1.0  0.01911  0.73998  0.67058  1.0000
  Fe  Fe81      1.0  0.04457  0.63354  0.50308  1.0000
  S   S156      1.0  0.04415  0.66407  0.52264  1.0000
  S   S157      1.0  0.06266  0.64781  0.47839  1.0000
  Fe  Fe82      1.0  0.06587  0.61826  0.53468  1.0000
  S   S158      1.0  0.10658  0.61743  0.55034  1.0000
  S   S159      1.0  0.06977  0.58964  0.51464  1.0000
  C   C1087     1.0  0.46558  0.59685  0.59383  1.0000
  S   S160      1.0  0.37342  0.97949  0.64131  1.0000
  Fe  Fe83      1.0  0.01841  0.57242  0.52309  1.0000
  C   C1088     1.0  0.13411  0.88007  0.46852  1.0000
  C   C1089     1.0  0.08677  0.70960  0.48134  1.0000
  C   C1090     1.0  0.10241  0.73948  0.47560  1.0000
  C   C1091     1.0  0.39357  0.56113  0.60630  1.0000
  H   H865      1.0  0.11709  0.86000  0.46838  1.0000
  H   H866      1.0  0.07925  0.70461  0.49331  1.0000
  H   H867      1.0  0.10685  0.75732  0.48323  1.0000
  H   H868      1.0  0.17552  0.51204  0.48141  1.0000
  C   C1092     1.0  0.39043  0.67867  0.62404  1.0000
  C   C1093     1.0  0.44082  0.96768  0.63872  1.0000
  H   H869      1.0  0.43430  0.94205  0.64169  1.0000
  C   C1094     1.0  0.20124  0.77027  0.47140  1.0000
  H   H870      1.0  0.17616  0.60502  0.50761  1.0000
  C   C1095     1.0  0.18564  0.00958  0.48958  1.0000
  C   C1096     1.0  0.19210  0.54095  0.55225  1.0000
  C   C1097     1.0  0.18465  0.56133  0.56381  1.0000
  C   C1098     1.0  0.15811  0.58430  0.56318  1.0000
  C   C1099     1.0  0.13832  0.58665  0.55119  1.0000
  C   C1100     1.0  0.14513  0.56551  0.53989  1.0000
  C   C1101     1.0  0.17204  0.54305  0.54036  1.0000
  H   H871      1.0  0.19998  0.56018  0.57297  1.0000
  H   H872      1.0  0.15309  0.60058  0.57196  1.0000
  H   H873      1.0  0.13027  0.56715  0.53057  1.0000
  H   H874      1.0  0.21413  0.72447  0.50007  1.0000
  C   C1102     1.0  0.47706  0.58606  0.62592  1.0000
  C   C1103     1.0  0.12788  0.92269  0.65996  1.0000
  C   C1104     1.0  0.12530  0.94167  0.67217  1.0000
  C   C1105     1.0  0.14991  0.96470  0.67334  1.0000
  C   C1106     1.0  0.17729  0.96924  0.66231  1.0000
  C   C1107     1.0  0.17953  0.95090  0.64989  1.0000
  C   C1108     1.0  0.15492  0.92772  0.64874  1.0000
  H   H875      1.0  0.10459  0.93825  0.68084  1.0000
  H   H876      1.0  0.14780  0.97898  0.68290  1.0000
  H   H877      1.0  0.20043  0.95418  0.64131  1.0000
  H   H878      1.0  0.15713  0.91322  0.63924  1.0000
  H   H879      1.0  0.05853  0.55264  0.56118  1.0000
  C   C1109     1.0  0.49685  0.60104  0.56410  1.0000
  H   H880      1.0  0.39891  0.72999  0.61623  1.0000
  H   H881      1.0  0.10431  0.52613  0.50254  1.0000
  C   C1110     1.0  0.20856  0.90086  0.69711  1.0000
  H   H882      1.0  0.11233  0.89406  0.48997  1.0000
  H   H883      1.0  0.08853  0.71209  0.68641  1.0000
  C   C1111     1.0  0.30517  0.89122  0.69242  1.0000
  H   H884      1.0  0.17753  0.52747  0.53135  1.0000
  C   C1112     1.0  0.20154  0.80477  0.46898  1.0000
  H   H885      1.0  0.03381  0.88468  0.63939  1.0000
  S   S161      1.0  0.01584  0.59864  0.54388  1.0000
  C   C1113     1.0  0.40836  0.70489  0.61594  1.0000
  H   H886      1.0  0.27906  0.57469  0.50269  1.0000
  P   P36       1.0  0.22788  0.70668  0.46918  1.0000
  C   C1114     1.0  0.22714  0.58848  0.50302  1.0000
  H   H887      1.0  0.31876  0.98790  0.47911  1.0000
  C   C1115     1.0  0.48372  0.68782  0.65469  1.0000
  C   C1116     1.0  0.17999  0.89544  0.70736  1.0000
  H   H888      1.0  0.07841  0.84243  0.63825  1.0000
  H   H889      1.0  0.05684  0.72530  0.60228  1.0000
  C   C1117     1.0  0.49325  0.60984  0.63258  1.0000
  C   C1118     1.0  0.04004  0.66769  0.63241  1.0000
  C   C1119     1.0  0.02760  0.85869  0.64114  1.0000
  C   C1120     1.0  0.09058  0.53070  0.57712  1.0000
  C   C1121     1.0  0.05281  0.83479  0.64050  1.0000
  C   C1122     1.0  0.48540  0.55257  0.62899  1.0000
  H   H890      1.0  0.29254  0.87798  0.46957  1.0000
  H   H891      1.0  0.42415  0.62115  0.58377  1.0000
  H   H892      1.0  0.30498  0.00536  0.54223  1.0000
  C   C1123     1.0  0.05077  0.72593  0.67171  1.0000
  H   H893      1.0  0.38760  0.62622  0.62960  1.0000
  C   C1124     1.0  0.27287  0.67579  0.48809  1.0000
  H   H894      1.0  0.48748  0.63582  0.63035  1.0000
  H   H895      1.0  0.18529  0.63207  0.52981  1.0000
  H   H896      1.0  0.10071  0.58500  0.48373  1.0000
  C   C1125     1.0  0.40252  0.55792  0.63268  1.0000
  C   C1126     1.0  0.27375  0.59285  0.47000  1.0000
  C   C1127     1.0  0.20090  0.60489  0.51085  1.0000
  C   C1128     1.0  0.15276  0.57616  0.48568  1.0000
  C   C1129     1.0  0.20598  0.62045  0.52355  1.0000
  P   P37       1.0  0.20632  0.96593  0.46814  1.0000
  C   C1130     1.0  0.01457  0.74802  0.69720  1.0000
  H   H897      1.0  0.31250  0.94853  0.65474  1.0000
  C   C1131     1.0  0.48425  0.70269  0.63988  1.0000
  H   H898      1.0  0.44531  0.52488  0.56685  1.0000
  C   C1132     1.0  0.47452  0.97650  0.63626  1.0000
  C   C1133     1.0  0.17809  0.93215  0.46860  1.0000
  H   H899      1.0  0.33150  0.98721  0.56526  1.0000
  H   H900      1.0  0.35152  0.53460  0.60143  1.0000
  H   H901      1.0  0.16991  0.66287  0.47164  1.0000
  C   C1134     1.0  0.22147  0.96446  0.49791  1.0000
  C   C1135     1.0  0.44899  0.61116  0.58175  1.0000
  H   H902      1.0  0.30747  0.65206  0.50247  1.0000
  C   C1136     1.0  0.19606  0.69411  0.48441  1.0000
  H   H903      1.0  0.23585  0.94234  0.49594  1.0000
  H   H904      1.0  0.26536  0.61559  0.47451  1.0000
  C   C1137     1.0  0.27988  0.91433  0.68945  1.0000
  H   H905      1.0  0.47355  0.66187  0.60019  1.0000
  H   H906      1.0  0.29044  0.97287  0.70326  1.0000
  H   H907      1.0  0.45222  0.71900  0.60106  1.0000
  C   C1138     1.0  0.36572  0.54122  0.61017  1.0000
  C   C1139     1.0  0.49803  0.58474  0.59082  1.0000
  H   H908      1.0  0.14843  0.56490  0.49722  1.0000
  H   H909      1.0  0.36785  0.52828  0.64812  1.0000
  H   H910      1.0  0.51145  0.57328  0.59977  1.0000
  H   H911      1.0  0.18492  0.96259  0.70351  1.0000
  C   C1140     1.0  0.30397  0.66311  0.49122  1.0000
  C   C1141     1.0  0.41226  0.56969  0.61753  1.0000
  S   S162      1.0  0.20826  0.99738  0.66493  1.0000
  C   C1142     1.0  0.40218  0.64618  0.62345  1.0000
  C   C1143     1.0  0.23720  0.61955  0.52866  1.0000
  C   C1144     1.0  0.43836  0.69870  0.60739  1.0000
  C   C1145     1.0  0.04837  0.71503  0.61369  1.0000
  C   C1146     1.0  0.25860  0.58809  0.50816  1.0000
  C   C1147     1.0  0.32609  0.67890  0.46535  1.0000
  H   H912      1.0  0.39800  0.99091  0.67077  1.0000
  C   C1148     1.0  0.31048  0.93254  0.66526  1.0000
  C   C1149     1.0  0.28271  0.93491  0.67577  1.0000
  C   C1150     1.0  0.46446  0.61290  0.56694  1.0000
  H   H913      1.0  0.49812  0.51941  0.57847  1.0000
  C   C1151     1.0  0.23816  0.96290  0.70388  1.0000
  C   C1152     1.0  0.37497  0.53757  0.63646  1.0000
  C   C1153     1.0  0.26798  0.53414  0.46877  1.0000
  P   P38       1.0  0.21987  0.56365  0.48812  1.0000
  C   C1154     1.0  0.20426  0.98101  0.48652  1.0000
  C   C1155     1.0  0.44589  0.00217  0.67696  1.0000
  C   C1156     1.0  0.22891  0.75150  0.46629  1.0000
  H   H914      1.0  0.18185  0.86845  0.66709  1.0000
  C   C1157     1.0  0.12569  0.58726  0.47810  1.0000
  H   H915      1.0  0.05631  0.73183  0.70900  1.0000
  C   C1158     1.0  0.33615  0.00399  0.49890  1.0000
  C   C1159     1.0  0.03411  0.73567  0.62422  1.0000
  C   C1160     1.0  0.21104  0.52210  0.49665  1.0000
  C   C1161     1.0  0.06395  0.72255  0.68558  1.0000
  H   H916      1.0  0.22749  0.54907  0.69119  1.0000
  S   S163      1.0  0.28298  0.99665  0.62935  1.0000
  C   C1162     1.0  0.45033  0.66629  0.60690  1.0000
  C   C1163     1.0  0.48332  0.00965  0.63263  1.0000
  H   H917      1.0  0.08889  0.55177  0.58361  1.0000
  H   H918      1.0  0.35461  0.65473  0.48229  1.0000
  C   C1164     1.0  0.43210  0.63973  0.61476  1.0000
  H   H919      1.0  0.40045  0.56917  0.59452  1.0000
  H   H920      1.0  0.26343  0.95288  0.67321  1.0000
  H   H921      1.0  0.46120  0.70926  0.63528  1.0000
  H   H922      1.0  0.23034  0.89529  0.67424  1.0000
  C   C1165     1.0  0.18165  0.87552  0.67842  1.0000
  C   C1166     1.0  0.23284  0.51642  0.67386  1.0000
  C   C1167     1.0  0.20257  0.00545  0.51478  1.0000
  H   H923      1.0  0.45137  0.62349  0.55765  1.0000
  H   H924      1.0  0.06510  0.78316  0.64346  1.0000
  C   C1168     1.0  0.13152  0.89925  0.48067  1.0000
  H   H925      1.0  0.28748  0.60186  0.52521  1.0000
  C   C1169     1.0  0.15254  0.88032  0.70312  1.0000
  C   C1170     1.0  0.26352  0.60344  0.52095  1.0000
  H   H926      1.0  0.50900  0.60245  0.55266  1.0000
  H   H927      1.0  0.49727  0.81948  0.62246  1.0000
  C   C1171     1.0  0.33310  0.88910  0.68189  1.0000
  P   P39       1.0  0.44661  0.59784  0.61304  1.0000
  C   C1172     1.0  0.17104  0.67238  0.48236  1.0000
  C   C1173     1.0  0.14626  0.66349  0.49412  1.0000
  C   C1174     1.0  0.14607  0.67626  0.50798  1.0000
  C   C1175     1.0  0.17071  0.69807  0.51009  1.0000
  C   C1176     1.0  0.19553  0.70708  0.49835  1.0000
  H   H928      1.0  0.25273  0.67361  0.49706  1.0000
  H   H929      1.0  0.06232  0.66511  0.60956  1.0000
  H   H930      1.0  0.12650  0.64743  0.49237  1.0000
  H   H931      1.0  0.12656  0.66955  0.51701  1.0000
  H   H932      1.0  0.17022  0.70830  0.52078  1.0000
  H   H933      1.0  0.36709  0.68346  0.63062  1.0000
  H   H934      1.0  0.23623  0.90060  0.47503  1.0000
  C   C1177     1.0  0.07354  0.53126  0.56441  1.0000
  C   C1178     1.0  0.15330  0.92537  0.48069  1.0000
  C   C1179     1.0  0.15343  0.87010  0.68871  1.0000
  C   C1180     1.0  0.23271  0.52395  0.68875  1.0000
  H   H935      1.0  0.03140  0.76179  0.62072  1.0000
  H   H936      1.0  0.47344  0.53387  0.62383  1.0000
  C   C1181     1.0  0.26565  0.98335  0.70355  1.0000
  C   C1182     1.0  0.04514  0.80128  0.64346  1.0000
  P   P40       1.0  0.24441  0.91890  0.70312  1.0000
  C   C1183     1.0  0.20907  0.89103  0.68253  1.0000
  H   H937      1.0  0.25760  0.57604  0.70989  1.0000
  C   C1184     1.0  0.05141  0.68108  0.61778  1.0000
  C   C1185     1.0  0.33055  0.66464  0.47986  1.0000
  H   H938      1.0  0.35274  0.87149  0.68423  1.0000
  Fe  Fe84      1.0  0.03110  0.84066  0.70684  1.0000
  C   C1186     1.0  0.18513  0.57962  0.47842  1.0000
  H   H939      1.0  0.13049  0.87659  0.71096  1.0000
  C   C1187     1.0  0.33580  0.90987  0.66834  1.0000
  C   C1188     1.0  0.04584  0.73359  0.69832  1.0000
  H   H940      1.0  0.15059  0.94024  0.49007  1.0000
  H   H941      1.0  0.24534  0.52275  0.51355  1.0000
  C   C1189     1.0  0.02312  0.72245  0.63901  1.0000
  H   H942      1.0  0.45235  0.97637  0.67938  1.0000
  H   H943      1.0  0.17957  0.81881  0.47252  1.0000
  C   C1190     1.0  0.20645  0.97738  0.70384  1.0000
  C   C1191     1.0  0.28712  0.90351  0.46581  1.0000
  H   H944      1.0  0.04207  0.64131  0.63552  1.0000
  C   C1192     1.0  0.51007  0.54297  0.63830  1.0000
  C   C1193     1.0  0.35655  0.52924  0.62520  1.0000
  H   H945      1.0  0.13197  0.85870  0.68536  1.0000
  C   C1194     1.0  0.25513  0.91644  0.46878  1.0000
  C   C1195     1.0  0.25666  0.56338  0.47478  1.0000
  C   C1196     1.0  0.26818  0.69058  0.47355  1.0000
  H   H946      1.0  0.30354  0.87501  0.70286  1.0000
  C   C1197     1.0  0.02575  0.68826  0.64297  1.0000
  C   C1198     1.0  0.44584  0.51128  0.57787  1.0000
  H   H947      1.0  0.25530  0.51106  0.47225  1.0000
  C   C1199     1.0  0.41479  0.01029  0.67226  1.0000
  C   C1200     1.0  0.01208  0.79140  0.64697  1.0000
  Fe  Fe85      1.0  0.01225  0.91321  0.70114  1.0000
  Fe  Fe86      1.0  0.19897  0.65762  0.77888  1.0000
  S   S164      1.0  0.22875  0.69671  0.76411  1.0000
  S   S165      1.0  0.19919  0.60561  0.77167  1.0000
  Fe  Fe87      1.0  0.17421  0.70559  0.80182  1.0000
  S   S166      1.0  0.20260  0.74832  0.78910  1.0000
  S   S167      1.0  0.14817  0.70653  0.82559  1.0000
  Fe  Fe88      1.0  0.18500  0.73053  0.76841  1.0000
  S   S168      1.0  0.17581  0.76990  0.74933  1.0000
  Fe  Fe89      1.0  0.24415  0.71178  0.78553  1.0000
  S   S169      1.0  0.29834  0.71877  0.78727  1.0000
  S   S170      1.0  0.15313  0.69018  0.78144  1.0000
  S   S171      1.0  0.21766  0.67022  0.80003  1.0000
  Fe  Fe90      1.0  0.45370  0.81640  0.82033  1.0000
  S   S172      1.0  0.43495  0.86435  0.80911  1.0000
  Fe  Fe91      1.0  0.41320  0.82799  0.85027  1.0000
  S   S173      1.0  0.39149  0.87638  0.84112  1.0000
  S   S174      1.0  0.39883  0.80733  0.87459  1.0000
  Fe  Fe92      1.0  0.38540  0.84932  0.82095  1.0000
  S   S175      1.0  0.33902  0.85331  0.80901  1.0000
  Fe  Fe93      1.0  0.44310  0.88763  0.83010  1.0000
  S   S176      1.0  0.47103  0.93693  0.82738  1.0000
  S   S177      1.0  0.40333  0.80027  0.83102  1.0000
  S   S178      1.0  0.46575  0.84048  0.84059  1.0000
  Fe  Fe94      1.0  0.26667  0.68485  0.91132  1.0000
  S   S179      1.0  0.25374  0.72174  0.92805  1.0000
  S   S180      1.0  0.28581  0.69972  0.88699  1.0000
  Fe  Fe95      1.0  0.24216  0.62548  0.93311  1.0000
  S   S181      1.0  0.23681  0.56963  0.93797  1.0000
  Fe  Fe96      1.0  0.20696  0.69281  0.93389  1.0000
  S   S182      1.0  0.15585  0.71476  0.93880  1.0000
  S   S183      1.0  0.21795  0.65864  0.91586  1.0000
  S   S184      1.0  0.29214  0.64900  0.92718  1.0000
  Fe  Fe97      1.0  0.06593  0.84706  0.89472  1.0000
  S   S185      1.0  0.11708  0.84931  0.90218  1.0000
  C   C1201     1.0  0.13568  0.56163  0.83451  1.0000
  C   C1202     1.0  0.07587  0.78855  0.73065  1.0000
  C   C1203     1.0  0.17809  0.52431  0.85559  1.0000
  C   C1204     1.0  0.12748  0.62346  0.81801  1.0000
  C   C1205     1.0  0.46113  0.94351  0.88947  1.0000
  C   C1206     1.0  0.48910  0.96362  0.88580  1.0000
  C   C1207     1.0  0.12820  0.81204  0.91231  1.0000
  C   C1208     1.0  0.10383  0.79208  0.92068  1.0000
  C   C1209     1.0  0.11278  0.76265  0.92894  1.0000
  C   C1210     1.0  0.14596  0.75226  0.92845  1.0000
  C   C1211     1.0  0.17042  0.77210  0.91998  1.0000
  C   C1212     1.0  0.16157  0.80217  0.91208  1.0000
  H   H948      1.0  0.07804  0.79953  0.92094  1.0000
  H   H949      1.0  0.09385  0.74776  0.93562  1.0000
  H   H950      1.0  0.19606  0.76434  0.91953  1.0000
  H   H951      1.0  0.18046  0.81718  0.90541  1.0000
  C   C1213     1.0  0.21318  0.54466  0.92822  1.0000
  H   H952      1.0  0.03107  0.81185  0.78743  1.0000
  S   S186      1.0  0.03649  0.79782  0.72477  1.0000
  C   C1214     1.0  0.43904  0.90669  0.94912  1.0000
  H   H953      1.0  0.10013  0.82852  0.71650  1.0000
  C   C1215     1.0  0.20251  0.55583  0.91422  1.0000
  H   H954      1.0  0.15310  0.60160  0.79911  1.0000
  C   C1216     1.0  0.46973  0.66574  0.75889  1.0000
  H   H955      1.0  0.16736  0.61972  0.86868  1.0000
  H   H956      1.0  0.20804  0.58067  0.90918  1.0000
  C   C1217     1.0  0.46000  0.97603  0.83403  1.0000
  C   C1218     1.0  0.20602  0.51216  0.93449  1.0000
  C   C1219     1.0  0.33456  0.90070  0.89984  1.0000
  C   C1220     1.0  0.43343  0.98012  0.84508  1.0000
  C   C1221     1.0  0.39353  0.93079  0.90433  1.0000
  C   C1222     1.0  0.43910  0.81680  0.90815  1.0000
  H   H957      1.0  0.41829  0.95916  0.84963  1.0000
  C   C1223     1.0  0.28810  0.53041  0.73512  1.0000
  C   C1224     1.0  0.36723  0.77754  0.87793  1.0000
  C   C1225     1.0  0.34792  0.77136  0.86659  1.0000
  C   C1226     1.0  0.32325  0.74722  0.86948  1.0000
  C   C1227     1.0  0.31732  0.72944  0.88376  1.0000
  C   C1228     1.0  0.33623  0.73592  0.89521  1.0000
  C   C1229     1.0  0.36108  0.75992  0.89228  1.0000
  H   H958      1.0  0.35181  0.78524  0.85560  1.0000
  H   H959      1.0  0.30871  0.74223  0.86063  1.0000
  H   H960      1.0  0.33178  0.72236  0.90628  1.0000
  H   H961      1.0  0.37572  0.76465  0.90112  1.0000
  C   C1230     1.0  0.31022  0.75725  0.79198  1.0000
  C   C1231     1.0  0.34117  0.75984  0.79715  1.0000
  C   C1232     1.0  0.35074  0.78964  0.80179  1.0000
  C   C1233     1.0  0.32918  0.81694  0.80153  1.0000
  C   C1234     1.0  0.29882  0.81481  0.79570  1.0000
  C   C1235     1.0  0.28915  0.78492  0.79107  1.0000
  H   H962      1.0  0.35781  0.73870  0.79763  1.0000
  H   H963      1.0  0.37492  0.79146  0.80542  1.0000
  H   H964      1.0  0.28267  0.83623  0.79488  1.0000
  H   H965      1.0  0.26548  0.78333  0.78683  1.0000
  C   C1236     1.0  0.13755  0.77535  0.74175  1.0000
  C   C1237     1.0  0.11074  0.75467  0.74683  1.0000
  C   C1238     1.0  0.07985  0.76154  0.74144  1.0000
  H   H966      1.0  0.11361  0.73377  0.75513  1.0000
  H   H967      1.0  0.05895  0.74602  0.74570  1.0000
  C   C1239     1.0  0.12013  0.73834  0.83046  1.0000
  C   C1240     1.0  0.11335  0.74419  0.84567  1.0000
  C   C1241     1.0  0.08991  0.76836  0.84995  1.0000
  C   C1242     1.0  0.07254  0.78627  0.83908  1.0000
  C   C1243     1.0  0.07944  0.78044  0.82392  1.0000
  C   C1244     1.0  0.10341  0.75681  0.81957  1.0000
  H   H968      1.0  0.12628  0.73017  0.85419  1.0000
  H   H969      1.0  0.08511  0.77282  0.86165  1.0000
  H   H970      1.0  0.46560  0.57241  0.75421  1.0000
  H   H971      1.0  0.10816  0.75204  0.80790  1.0000
  C   C1245     1.0  0.22106  0.57129  0.77991  1.0000
  C   C1246     1.0  0.23207  0.57083  0.79419  1.0000
  C   C1247     1.0  0.24823  0.54248  0.80056  1.0000
  H   H972      1.0  0.06573  0.79388  0.81557  1.0000
  C   C1248     1.0  0.19196  0.60804  0.73073  1.0000
  C   C1249     1.0  0.22655  0.54323  0.77208  1.0000
  H   H973      1.0  0.22794  0.59225  0.80030  1.0000
  H   H974      1.0  0.01555  0.94333  0.74310  1.0000
  S   S187      1.0  0.30944  0.69439  0.96167  1.0000
  H   H975      1.0  0.21783  0.54312  0.76113  1.0000
  C   C1250     1.0  0.17578  0.57880  0.73650  1.0000
  C   C1251     1.0  0.13031  0.73786  0.89140  1.0000
  C   C1252     1.0  0.14337  0.70591  0.89366  1.0000
  C   C1253     1.0  0.17560  0.69895  0.88756  1.0000
  C   C1254     1.0  0.19522  0.72413  0.87962  1.0000
  C   C1255     1.0  0.18230  0.75632  0.87728  1.0000
  C   C1256     1.0  0.14960  0.76300  0.88318  1.0000
  P   P41       1.0  0.20752  0.78836  0.86648  1.0000
  C   C1257     1.0  0.18026  0.82175  0.86063  1.0000
  C   C1258     1.0  0.23845  0.80285  0.87713  1.0000
  C   C1259     1.0  0.24782  0.78374  0.88997  1.0000
  C   C1260     1.0  0.27537  0.79246  0.89664  1.0000
  C   C1261     1.0  0.29414  0.81981  0.89037  1.0000
  C   C1262     1.0  0.28414  0.83980  0.87799  1.0000
  C   C1263     1.0  0.25607  0.83167  0.87154  1.0000
  C   C1264     1.0  0.16082  0.81869  0.84890  1.0000
  C   C1265     1.0  0.13776  0.84331  0.84511  1.0000
  C   C1266     1.0  0.13375  0.87107  0.85306  1.0000
  C   C1267     1.0  0.15240  0.87392  0.86500  1.0000
  C   C1268     1.0  0.17540  0.84925  0.86888  1.0000
  C   C1269     1.0  0.22828  0.77110  0.85007  1.0000
  C   C1270     1.0  0.21219  0.74771  0.84313  1.0000
  C   C1271     1.0  0.22889  0.73237  0.83120  1.0000
  C   C1272     1.0  0.26173  0.73994  0.82618  1.0000
  C   C1273     1.0  0.27773  0.76377  0.83268  1.0000
  C   C1274     1.0  0.26116  0.77931  0.84456  1.0000
  H   H976      1.0  0.10548  0.74340  0.89633  1.0000
  H   H977      1.0  0.12865  0.68664  0.90028  1.0000
  H   H978      1.0  0.18557  0.67410  0.88918  1.0000
  H   H979      1.0  0.22051  0.71854  0.87533  1.0000
  H   H980      1.0  0.13896  0.78764  0.88175  1.0000
  H   H981      1.0  0.23495  0.76129  0.89449  1.0000
  H   H982      1.0  0.28323  0.77687  0.90618  1.0000
  H   H983      1.0  0.31682  0.82501  0.89490  1.0000
  H   H984      1.0  0.29899  0.86071  0.87296  1.0000
  H   H985      1.0  0.24944  0.84658  0.86153  1.0000
  H   H986      1.0  0.16259  0.79688  0.84296  1.0000
  H   H987      1.0  0.12230  0.84027  0.83631  1.0000
  H   H988      1.0  0.11542  0.88982  0.85032  1.0000
  H   H989      1.0  0.14799  0.89455  0.87171  1.0000
  H   H990      1.0  0.18821  0.85108  0.87869  1.0000
  H   H991      1.0  0.18686  0.74097  0.84700  1.0000
  H   H992      1.0  0.21655  0.71425  0.82591  1.0000
  H   H993      1.0  0.27472  0.72724  0.81726  1.0000
  H   H994      1.0  0.30316  0.77002  0.82863  1.0000
  H   H995      1.0  0.27472  0.79699  0.84949  1.0000
  C   C1275     1.0  0.44400  0.64677  0.76706  1.0000
  H   H996      1.0  0.13969  0.67138  0.85879  1.0000
  P   P42       1.0  0.41516  0.66491  0.78086  1.0000
  C   C1276     1.0  0.43222  0.65958  0.79878  1.0000
  C   C1277     1.0  0.40970  0.70845  0.77491  1.0000
  C   C1278     1.0  0.38268  0.71970  0.76715  1.0000
  C   C1279     1.0  0.37789  0.75351  0.76315  1.0000
  C   C1280     1.0  0.39995  0.77634  0.76684  1.0000
  C   C1281     1.0  0.42711  0.76534  0.77435  1.0000
  C   C1282     1.0  0.43208  0.73157  0.77828  1.0000
  C   C1283     1.0  0.42527  0.68277  0.80929  1.0000
  C   C1284     1.0  0.44145  0.68061  0.82234  1.0000
  C   C1285     1.0  0.46395  0.65483  0.82522  1.0000
  C   C1286     1.0  0.47001  0.63093  0.81514  1.0000
  C   C1287     1.0  0.45416  0.63318  0.80201  1.0000
  C   C1288     1.0  0.37478  0.64631  0.78274  1.0000
  C   C1289     1.0  0.35283  0.64913  0.79580  1.0000
  C   C1290     1.0  0.47165  0.82756  0.92808  1.0000
  H   H997      1.0  0.22867  0.57941  0.86749  1.0000
  H   H998      1.0  0.35876  0.85481  0.90692  1.0000
  C   C1291     1.0  0.36378  0.63178  0.77069  1.0000
  H   H999      1.0  0.12454  0.64741  0.81169  1.0000
  H   H1000     1.0  0.36458  0.70270  0.76460  1.0000
  H   H1001     1.0  0.35623  0.76203  0.75775  1.0000
  H   H1002     1.0  0.39557  0.80258  0.76424  1.0000
  H   H1003     1.0  0.50032  0.93989  0.91490  1.0000
  H   H1004     1.0  0.45302  0.72363  0.78426  1.0000
  H   H1005     1.0  0.40836  0.70329  0.80718  1.0000
  H   H1006     1.0  0.43746  0.69961  0.82996  1.0000
  H   H1007     1.0  0.47730  0.65379  0.83507  1.0000
  C   C1292     1.0  0.47931  0.00374  0.82827  1.0000
  H   H1008     1.0  0.45987  0.61464  0.79429  1.0000
  H   H1009     1.0  0.36007  0.66186  0.80487  1.0000
  H   H1010     1.0  0.47204  0.69157  0.76037  1.0000
  H   H1011     1.0  0.48786  0.61119  0.81725  1.0000
  H   H1012     1.0  0.37946  0.63097  0.76016  1.0000
  H   H1013     1.0  0.28387  0.91091  0.75384  1.0000
  C   C1293     1.0  0.48293  0.93040  0.92428  1.0000
  H   H1014     1.0  0.44397  0.78303  0.77747  1.0000
  C   C1294     1.0  0.01296  0.61597  0.89902  1.0000
  C   C1295     1.0  0.35242  0.54524  0.81419  1.0000
  C   C1296     1.0  0.22666  0.84616  0.93457  1.0000
  C   C1297     1.0  0.10304  0.80818  0.72502  1.0000
  H   H1015     1.0  0.08036  0.59395  0.89873  1.0000
  C   C1298     1.0  0.06328  0.92172  0.73786  1.0000
  C   C1299     1.0  0.05329  0.69435  0.93880  1.0000
  C   C1300     1.0  0.01322  0.59229  0.88870  1.0000
  C   C1301     1.0  0.48632  0.85281  0.90252  1.0000
  H   H1016     1.0  0.13181  0.82634  0.94402  1.0000
  C   C1302     1.0  0.13372  0.80184  0.73067  1.0000
  Fe  Fe98      1.0  0.03365  0.82912  0.86800  1.0000
  C   C1303     1.0  0.27202  0.89823  0.74588  1.0000
  H   H1017     1.0  0.15372  0.57971  0.74446  1.0000
  H   H1018     1.0  0.31188  0.88912  0.89800  1.0000
  S   S188      1.0  0.48003  0.53337  0.80098  1.0000
  C   C1304     1.0  0.26677  0.91455  0.73176  1.0000
  H   H1019     1.0  0.08773  0.84417  0.75058  1.0000
  H   H1020     1.0  0.22727  0.87672  0.89766  1.0000
  H   H1021     1.0  0.32901  0.52137  0.88904  1.0000
  H   H1022     1.0  0.42944  0.00584  0.88305  1.0000
  H   H1023     1.0  0.10924  0.89442  0.73482  1.0000
  C   C1305     1.0  0.25162  0.89813  0.72139  1.0000
  H   H1024     1.0  0.08340  0.68523  0.86914  1.0000
  C   C1306     1.0  0.02719  0.71485  0.87927  1.0000
  H   H1025     1.0  0.28517  0.61298  0.78578  1.0000
  C   C1307     1.0  0.39000  0.89642  0.90734  1.0000
  C   C1308     1.0  0.08393  0.89405  0.74004  1.0000
  H   H1026     1.0  0.06382  0.76444  0.77821  1.0000
  C   C1309     1.0  0.20023  0.82042  0.81449  1.0000
  C   C1310     1.0  0.22546  0.84301  0.81450  1.0000
  C   C1311     1.0  0.22186  0.87547  0.80801  1.0000
  C   C1312     1.0  0.19300  0.88531  0.80147  1.0000
  C   C1313     1.0  0.16754  0.86266  0.80139  1.0000
  C   C1314     1.0  0.17096  0.83039  0.80841  1.0000
  P   P43       1.0  0.12995  0.87592  0.79336  1.0000
  C   C1315     1.0  0.10616  0.89842  0.80731  1.0000
  C   C1316     1.0  0.13977  0.90145  0.77578  1.0000
  C   C1317     1.0  0.11782  0.92662  0.77104  1.0000
  C   C1318     1.0  0.12555  0.94638  0.75739  1.0000
  C   C1319     1.0  0.15472  0.94051  0.74819  1.0000
  C   C1320     1.0  0.17608  0.91474  0.75260  1.0000
  C   C1321     1.0  0.16863  0.89517  0.76631  1.0000
  C   C1322     1.0  0.11230  0.93203  0.80794  1.0000
  C   C1323     1.0  0.09500  0.94924  0.81914  1.0000
  C   C1324     1.0  0.07191  0.93290  0.82994  1.0000
  C   C1325     1.0  0.06627  0.89932  0.82960  1.0000
  C   C1326     1.0  0.08343  0.88208  0.81840  1.0000
  C   C1327     1.0  0.10863  0.84117  0.78820  1.0000
  C   C1328     1.0  0.07392  0.84054  0.78946  1.0000
  C   C1329     1.0  0.05781  0.81280  0.78599  1.0000
  C   C1330     1.0  0.07619  0.78603  0.78085  1.0000
  C   C1331     1.0  0.11069  0.78709  0.77907  1.0000
  C   C1332     1.0  0.12686  0.81482  0.78234  1.0000
  H   H1027     1.0  0.20323  0.79516  0.81928  1.0000
  H   H1028     1.0  0.24794  0.83529  0.81946  1.0000
  H   H1029     1.0  0.24162  0.89288  0.80800  1.0000
  H   H1030     1.0  0.19057  0.91058  0.79651  1.0000
  H   H1031     1.0  0.15119  0.81274  0.80925  1.0000
  H   H1032     1.0  0.09467  0.93091  0.77783  1.0000
  H   H1033     1.0  0.10866  0.96597  0.75386  1.0000
  H   H1034     1.0  0.16062  0.95570  0.73757  1.0000
  H   H1035     1.0  0.19840  0.90980  0.74539  1.0000
  H   H1036     1.0  0.18529  0.87503  0.76944  1.0000
  H   H1037     1.0  0.13073  0.94492  0.79992  1.0000
  H   H1038     1.0  0.09977  0.97517  0.81959  1.0000
  H   H1039     1.0  0.23115  0.85142  0.71745  1.0000
  C   C1333     1.0  0.11922  0.58772  0.84147  1.0000
  H   H1040     1.0  0.07930  0.85586  0.81863  1.0000
  H   H1041     1.0  0.05927  0.86118  0.79324  1.0000
  C   C1334     1.0  0.17624  0.87709  0.93042  1.0000
  C   C1335     1.0  0.26213  0.86549  0.74977  1.0000
  H   H1042     1.0  0.12510  0.76627  0.77529  1.0000
  H   H1043     1.0  0.15365  0.81524  0.78050  1.0000
  C   C1336     1.0  0.07185  0.86576  0.74893  1.0000
  H   H1044     1.0  0.10971  0.58444  0.85330  1.0000
  C   C1337     1.0  0.19186  0.55468  0.85738  1.0000
  H   H1045     1.0  0.05870  0.94609  0.83873  1.0000
  C   C1338     1.0  0.18541  0.53436  0.90654  1.0000
  H   H1046     1.0  0.04903  0.72246  0.88383  1.0000
  C   C1339     1.0  0.02624  0.70474  0.93109  1.0000
  H   H1047     1.0  0.10273  0.63866  0.83865  1.0000
  C   C1340     1.0  0.36864  0.57432  0.81576  1.0000
  C   C1341     1.0  0.21866  0.55585  0.86582  1.0000
  C   C1342     1.0  0.33785  0.93493  0.89681  1.0000
  C   C1343     1.0  0.31250  0.55522  0.83540  1.0000
  C   C1344     1.0  0.32741  0.58555  0.83650  1.0000
  C   C1345     1.0  0.35621  0.59447  0.82686  1.0000
  P   P44       1.0  0.30867  0.61305  0.84977  1.0000
  C   C1346     1.0  0.33286  0.65002  0.84859  1.0000
  C   C1347     1.0  0.26776  0.62618  0.84516  1.0000
  C   C1348     1.0  0.25109  0.65182  0.85236  1.0000
  C   C1349     1.0  0.21833  0.65993  0.85005  1.0000
  C   C1350     1.0  0.20244  0.64363  0.84002  1.0000
  C   C1351     1.0  0.21933  0.61953  0.83216  1.0000
  C   C1352     1.0  0.25189  0.61094  0.83459  1.0000
  C   C1353     1.0  0.35441  0.65416  0.85942  1.0000
  C   C1354     1.0  0.37353  0.68262  0.85815  1.0000
  C   C1355     1.0  0.37142  0.70696  0.84605  1.0000
  C   C1356     1.0  0.34992  0.70310  0.83527  1.0000
  C   C1357     1.0  0.33064  0.67479  0.83654  1.0000
  C   C1358     1.0  0.30541  0.59243  0.86887  1.0000
  C   C1359     1.0  0.32097  0.56160  0.87204  1.0000
  C   C1360     1.0  0.31719  0.54522  0.88668  1.0000
  C   C1361     1.0  0.29814  0.55954  0.89831  1.0000
  C   C1362     1.0  0.28346  0.59054  0.89537  1.0000
  C   C1363     1.0  0.28728  0.60704  0.88080  1.0000
  H   H1048     1.0  0.39055  0.58156  0.80818  1.0000
  H   H1049     1.0  0.29487  0.54687  0.90965  1.0000
  C   C1364     1.0  0.49344  0.65125  0.74898  1.0000
  H   H1050     1.0  0.29067  0.54746  0.84290  1.0000
  H   H1051     1.0  0.36892  0.61715  0.82767  1.0000
  H   H1052     1.0  0.26336  0.66586  0.85969  1.0000
  H   H1053     1.0  0.20542  0.67931  0.85581  1.0000
  H   H1054     1.0  0.17718  0.64995  0.83811  1.0000
  H   H1055     1.0  0.20703  0.60750  0.82417  1.0000
  H   H1056     1.0  0.26418  0.59265  0.82804  1.0000
  H   H1057     1.0  0.35632  0.63569  0.86891  1.0000
  H   H1058     1.0  0.38954  0.68619  0.86670  1.0000
  H   H1059     1.0  0.38595  0.72918  0.84521  1.0000
  H   H1060     1.0  0.34797  0.72228  0.82605  1.0000
  H   H1061     1.0  0.31395  0.67235  0.82812  1.0000
  H   H1062     1.0  0.33617  0.55010  0.86332  1.0000
  H   H1063     1.0  0.27460  0.93986  0.72900  1.0000
  C   C1365     1.0  0.28899  0.75932  0.96217  1.0000
  H   H1064     1.0  0.26922  0.60186  0.90449  1.0000
  H   H1065     1.0  0.27629  0.63133  0.87907  1.0000
  C   C1366     1.0  0.18760  0.88363  0.91511  1.0000
  H   H1066     1.0  0.35144  0.87863  0.95466  1.0000
  H   H1067     1.0  0.30358  0.63976  0.80686  1.0000
  C   C1367     1.0  0.22108  0.60696  0.72091  1.0000
  C   C1368     1.0  0.02191  0.69236  0.91750  1.0000
  H   H1068     1.0  0.13678  0.58040  0.88804  1.0000
  H   H1069     1.0  0.04884  0.88652  0.83819  1.0000
  C   C1369     1.0  0.14774  0.56686  0.81912  1.0000
  C   C1370     1.0  0.46653  0.59853  0.75540  1.0000
  H   H1070     1.0  0.26231  0.84461  0.91507  1.0000
  H   H1071     1.0  0.16035  0.54755  0.81326  1.0000
  C   C1371     1.0  0.45463  0.92037  0.87965  1.0000
  H   H1072     1.0  0.32619  0.54790  0.74707  1.0000
  H   H1073     1.0  0.47625  0.82482  0.93981  1.0000
  H   H1074     1.0  0.30148  0.81453  0.92971  1.0000
  H   H1075     1.0  0.09768  0.66442  0.93866  1.0000
  S   S189      1.0  0.05279  0.87710  0.87357  1.0000
  C   C1372     1.0  0.08526  0.83438  0.95691  1.0000
  S   S190      1.0  0.01733  0.85697  0.90818  1.0000
  C   C1373     1.0  0.07753  0.64079  0.88487  1.0000
  C   C1374     1.0  0.09445  0.66218  0.87338  1.0000
  C   C1375     1.0  0.12662  0.65437  0.86744  1.0000
  C   C1376     1.0  0.14208  0.62519  0.87288  1.0000
  C   C1377     1.0  0.12497  0.60317  0.88388  1.0000
  C   C1378     1.0  0.09283  0.61087  0.88984  1.0000
  C   C1379     1.0  0.43576  0.77395  0.95398  1.0000
  C   C1380     1.0  0.04456  0.66935  0.91153  1.0000
  H   H1076     1.0  0.26922  0.54572  0.74055  1.0000
  C   C1381     1.0  0.21862  0.87183  0.90955  1.0000
  C   C1382     1.0  0.23821  0.85336  0.91932  1.0000
  C   C1383     1.0  0.47298  0.90649  0.95030  1.0000
  H   H1077     1.0  0.17630  0.52608  0.73764  1.0000
  C   C1384     1.0  0.19542  0.85770  0.94021  1.0000
  P   P45       1.0  0.41808  0.78502  0.93649  1.0000
  H   H1078     1.0  0.07232  0.94347  0.73068  1.0000
  C   C1385     1.0  0.10576  0.51551  0.85921  1.0000
  C   C1386     1.0  0.32076  0.63670  0.79696  1.0000
  C   C1387     1.0  0.03067  0.92132  0.74477  1.0000
  H   H1079     1.0  0.43303  0.90494  0.88185  1.0000
  H   H1080     1.0  0.51056  0.60638  0.73974  1.0000
  C   C1388     1.0  0.49174  0.61770  0.74717  1.0000
  H   H1081     1.0  0.41015  0.88112  0.91121  1.0000
  S   S191      1.0  0.48277  0.78515  0.80351  1.0000
  H   H1082     1.0  0.05681  0.70421  0.94925  1.0000
  C   C1389     1.0  0.36732  0.94995  0.89892  1.0000
  H   H1083     1.0  0.07122  0.82363  0.94908  1.0000
  H   H1084     1.0  0.46993  0.90043  0.85862  1.0000
  H   H1085     1.0  0.37000  0.51148  0.73593  1.0000
  C   C1390     1.0  0.47358  0.51413  0.77307  1.0000
  H   H1086     1.0  0.36118  0.53031  0.80521  1.0000
  C   C1391     1.0  0.45854  0.51697  0.78768  1.0000
  P   P46       1.0  0.43271  0.94927  0.90602  1.0000
  H   H1087     1.0  0.30115  0.86434  0.94363  1.0000
  C   C1392     1.0  0.32048  0.53178  0.73888  1.0000
  C   C1393     1.0  0.24719  0.84893  0.73949  1.0000
  C   C1394     1.0  0.23435  0.57657  0.71706  1.0000
  S   S192      1.0  0.05047  0.79872  0.88817  1.0000
  C   C1395     1.0  0.32466  0.53545  0.82413  1.0000
  C   C1396     1.0  0.07173  0.65902  0.91936  1.0000
  H   H1088     1.0  0.18149  0.57743  0.85253  1.0000
  H   H1089     1.0  0.03171  0.96591  0.88096  1.0000
  C   C1397     1.0  0.21849  0.54698  0.72300  1.0000
  C   C1398     1.0  0.14364  0.59767  0.81095  1.0000
  C   C1399     1.0  0.36075  0.88143  0.90499  1.0000
  C   C1400     1.0  0.49223  0.84804  0.91767  1.0000
  C   C1401     1.0  0.47718  0.00727  0.71552  1.0000
  C   C1402     1.0  0.49494  0.91831  0.93788  1.0000
  H   H1090     1.0  0.08962  0.64124  0.91517  1.0000
  C   C1403     1.0  0.44538  0.81114  0.92329  1.0000
  H   H1091     1.0  0.43765  0.69914  0.90105  1.0000
  C   C1404     1.0  0.35207  0.80166  0.93257  1.0000
  C   C1405     1.0  0.38032  0.83770  0.94664  1.0000
  H   H1092     1.0  0.35156  0.78039  0.92634  1.0000
  C   C1406     1.0  0.42306  0.70659  0.91102  1.0000
  H   H1093     1.0  0.45055  0.75069  0.91100  1.0000
  C   C1407     1.0  0.33176  0.61923  0.77193  1.0000
  H   H1094     1.0  0.18233  0.63147  0.73419  1.0000
  H   H1095     1.0  0.35868  0.68075  0.93682  1.0000
  C   C1408     1.0  0.32343  0.84939  0.94204  1.0000
  C   C1409     1.0  0.35182  0.85750  0.94824  1.0000
  H   H1096     1.0  0.39144  0.66413  0.91376  1.0000
  H   H1097     1.0  0.25635  0.54221  0.81165  1.0000
  H   H1098     1.0  0.24217  0.83184  0.94198  1.0000
  C   C1410     1.0  0.39711  0.68683  0.91818  1.0000
  C   C1411     1.0  0.43007  0.73610  0.91664  1.0000
  C   C1412     1.0  0.41047  0.74649  0.92926  1.0000
  H   H1099     1.0  0.42476  0.59713  0.77230  1.0000
  C   C1413     1.0  0.44311  0.61280  0.76550  1.0000
  C   C1414     1.0  0.38053  0.80938  0.93897  1.0000
  H   H1100     1.0  0.32320  0.60833  0.76258  1.0000
  H   H1101     1.0  0.17812  0.54267  0.89554  1.0000
  H   H1102     1.0  0.17201  0.89743  0.90752  1.0000
  C   C1415     1.0  0.45971  0.83722  0.89777  1.0000
  C   C1416     1.0  0.07623  0.67178  0.93285  1.0000
  C   C1417     1.0  0.42691  0.91903  0.93562  1.0000
  H   H1103     1.0  0.15235  0.88702  0.93450  1.0000
  H   H1104     1.0  0.41830  0.80527  0.90433  1.0000
  C   C1418     1.0  0.03901  0.86499  0.75545  1.0000
  C   C1419     1.0  0.01574  0.68235  0.88260  1.0000
  H   H1105     1.0  0.48191  0.75614  0.94300  1.0000
  H   H1106     1.0  0.13234  0.51174  0.87897  1.0000
  C   C1420     1.0  0.42363  0.00589  0.92132  1.0000
  C   C1421     1.0  0.24229  0.86500  0.72531  1.0000
  C   C1422     1.0  0.47564  0.91754  0.86641  1.0000
  C   C1423     1.0  0.50513  0.74736  0.80618  1.0000
  H   H1107     1.0  0.26626  0.85283  0.76070  1.0000
  C   C1424     1.0  0.44879  0.93086  0.92304  1.0000
  C   C1425     1.0  0.37852  0.69628  0.93112  1.0000
  P   P47       1.0  0.03793  0.65241  0.89429  1.0000
  C   C1426     1.0  0.31027  0.62173  0.78505  1.0000
  H   H1108     1.0  0.23948  0.82348  0.74249  1.0000
  C   C1427     1.0  0.11518  0.61847  0.83324  1.0000
  H   H1109     1.0  0.40040  0.92020  0.93521  1.0000
  C   C1428     1.0  0.11968  0.83629  0.95399  1.0000
  C   C1429     1.0  0.38534  0.72583  0.93673  1.0000
  Fe  Fe99      1.0  0.27526  0.68385  0.94448  1.0000
  H   H1110     1.0  0.37068  0.73273  0.94680  1.0000
  H   H1111     1.0  0.02902  0.59522  0.87810  1.0000
  H   H1112     1.0  0.45492  0.84083  0.88603  1.0000
  S   S193      1.0  0.22733  0.65761  0.95174  1.0000
  P   P48       1.0  0.14203  0.52260  0.84563  1.0000
  H   H1113     1.0  0.01931  0.76284  0.86739  1.0000
  C   C1430     1.0  0.19266  0.78425  0.96088  1.0000
  C   C1431     1.0  0.32359  0.82146  0.93422  1.0000
  H   H1114     1.0  0.49428  0.98214  0.89301  1.0000
  S   S194      1.0  0.04181  0.81584  0.84393  1.0000
  H   H1115     1.0  0.02967  0.84249  0.76184  1.0000
  H   H1116     1.0  0.17896  0.90285  0.71863  1.0000
  C   C1432     1.0  0.46769  0.75988  0.95366  1.0000
  C   C1433     1.0  0.18884  0.54836  0.73262  1.0000
  H   H1117     1.0  0.48205  0.89804  0.96101  1.0000
  H   H1118     1.0  0.18268  0.78631  0.95010  1.0000
  H   H1119     1.0  0.42204  0.89845  0.95893  1.0000
  C   C1434     1.0  0.07419  0.51506  0.85427  1.0000
  H   H1120     1.0  0.19930  0.73149  0.96142  1.0000
  C   C1435     1.0  0.50311  0.93786  0.86277  1.0000
  H   H1121     1.0  0.15449  0.81762  0.72653  1.0000
  C   C1436     1.0  0.01813  0.89272  0.75348  1.0000
  H   H1122     1.0  0.31218  0.51281  0.82286  1.0000
  C   C1437     1.0  0.25407  0.51460  0.79257  1.0000
  H   H1123     1.0  0.50227  0.86862  0.89444  1.0000
  H   H1124     1.0  0.45341  0.99962  0.73833  1.0000
  H   H1125     1.0  0.27284  0.75469  0.95387  1.0000
  C   C1438     1.0  0.14009  0.52431  0.96293  1.0000
  C   C1439     1.0  0.24320  0.51522  0.77832  1.0000
  P   P49       1.0  0.18263  0.85215  0.96021  1.0000
  H   H1126     1.0  0.50661  0.74727  0.83009  1.0000
  H   H1127     1.0  0.23382  0.62968  0.71664  1.0000
  H   H1128     1.0  0.25164  0.52761  0.87963  1.0000
  H   H1129     1.0  0.40208  0.84413  0.95158  1.0000
  C   C1440     1.0  0.23178  0.52666  0.87259  1.0000
  H   H1130     1.0  0.01549  0.91739  0.81058  1.0000
  H   H1131     1.0  0.14039  0.54880  0.95682  1.0000
  H   H1132     1.0  0.09130  0.51319  0.95782  1.0000
  H   H1133     1.0  0.31775  0.94983  0.89258  1.0000
  H   H1134     1.0  0.49797  0.52402  0.76957  1.0000
  H   H1135     1.0  0.49975  0.00104  0.81966  1.0000
  C   C1441     1.0  0.34518  0.51132  0.73258  1.0000
  H   H1136     1.0  0.07128  0.51971  0.84236  1.0000
  C   C1442     1.0  0.42728  0.99316  0.90726  1.0000
  H   H1137     1.0  0.36958  0.97638  0.89617  1.0000
  H   H1138     1.0  0.42361  0.98973  0.93173  1.0000
  C   C1443     1.0  0.13810  0.85085  0.96383  1.0000
  H   H1139     1.0  0.28818  0.54671  0.96319  1.0000
  H   H1140     1.0  0.50933  0.74078  0.78249  1.0000
  C   C1444     1.0  0.51001  0.96074  0.87250  1.0000
  H   H1141     1.0  0.27262  0.80967  0.96319  1.0000
  P   P50       1.0  0.71704  0.12667  0.99238  1.0000
  Fe  Fe100     1.0  0.56098  0.12278  0.99670  1.0000
  S   S195      1.0  0.55457  0.15200  0.01687  1.0000
  S   S196      1.0  0.57656  0.14158  0.97236  1.0000
  H   H1142     1.0  0.96165  0.44711  0.09512  1.0000
  C   C1445     1.0  0.62805  0.02471  0.09611  1.0000
  H   H1143     1.0  0.61366  0.17593  0.99150  1.0000
  Fe  Fe101     1.0  0.57724  0.10659  0.02901  1.0000
  S   S197      1.0  0.61263  0.10300  0.04715  1.0000
  S   S198      1.0  0.58746  0.08014  0.00836  1.0000
  C   C1446     1.0  0.52698  0.03347  0.06987  1.0000
  H   H1144     1.0  0.83109  0.09989  0.00531  1.0000
  H   H1145     1.0  0.69593  0.44366  0.99887  1.0000
  H   H1146     1.0  0.99299  0.36585  0.04827  1.0000
  C   C1447     1.0  0.57674  0.23112  0.17947  1.0000
  C   C1448     1.0  0.00996  0.37658  0.97392  1.0000
  C   C1449     1.0  0.81992  0.45680  0.97794  1.0000
  C   C1450     1.0  0.91076  0.47589  0.13938  1.0000
  C   C1451     1.0  0.65945  0.49938  0.04637  1.0000
  C   C1452     1.0  0.73507  0.14370  0.97388  1.0000
  H   H1147     1.0  0.52746  0.05414  0.09095  1.0000
  Fe  Fe102     1.0  0.55768  0.35767  0.17220  1.0000
  S   S199      1.0  0.53605  0.39426  0.18769  1.0000
  S   S200      1.0  0.60785  0.36508  0.15820  1.0000
  H   H1148     1.0  0.67493  0.04833  0.09612  1.0000
  C   C1453     1.0  0.64569  0.04646  0.98355  1.0000
  H   H1149     1.0  0.86685  0.41844  0.11777  1.0000
  H   H1150     1.0  0.71936  0.47211  0.97431  1.0000
  S   S201      1.0  0.54395  0.31308  0.18872  1.0000
  H   H1151     1.0  0.81197  0.07369  0.03102  1.0000
  H   H1152     1.0  0.95128  0.31780  0.97593  1.0000
  C   C1454     1.0  0.89048  0.43955  0.00564  1.0000
  H   H1153     1.0  0.58696  0.33274  0.21231  1.0000
  C   C1455     1.0  0.96671  0.44342  0.19960  1.0000
  C   C1456     1.0  0.53133  0.23963  0.97102  1.0000
  P   P51       1.0  0.63579  0.24579  0.19026  1.0000
  C   C1457     1.0  0.67632  0.45218  0.16107  1.0000
  C   C1458     1.0  0.64760  0.44709  0.17124  1.0000
  C   C1459     1.0  0.62607  0.42105  0.17029  1.0000
  C   C1460     1.0  0.63327  0.39942  0.15922  1.0000
  C   C1461     1.0  0.66195  0.40458  0.14896  1.0000
  C   C1462     1.0  0.68327  0.43101  0.14979  1.0000
  H   H1154     1.0  0.64184  0.46358  0.17983  1.0000
  H   H1155     1.0  0.60411  0.41754  0.17821  1.0000
  H   H1156     1.0  0.66776  0.38798  0.14036  1.0000
  H   H1157     1.0  0.70525  0.43468  0.14185  1.0000
  C   C1463     1.0  0.80110  0.47479  0.03704  1.0000
  C   C1464     1.0  0.93397  0.45007  0.14187  1.0000
  C   C1465     1.0  0.96829  0.45634  0.14081  1.0000
  H   H1158     1.0  0.92534  0.42501  0.14460  1.0000
  C   C1466     1.0  0.95938  0.39693  0.10619  1.0000
  H   H1159     1.0  0.98547  0.02396  0.08980  1.0000
  H   H1160     1.0  0.65370  0.22176  0.98551  1.0000
  H   H1161     1.0  0.99167  0.45152  0.20022  1.0000
  C   C1467     1.0  0.00567  0.36536  0.13156  1.0000
  C   C1468     1.0  0.64517  0.07303  0.04725  1.0000
  C   C1469     1.0  0.66337  0.06778  0.05978  1.0000
  C   C1470     1.0  0.68961  0.04439  0.06008  1.0000
  C   C1471     1.0  0.81174  0.40978  0.96416  1.0000
  H   H1162     1.0  0.72140  0.49668  0.07641  1.0000
  C   C1472     1.0  0.65352  0.05465  0.03503  1.0000
  H   H1163     1.0  0.65741  0.08217  0.06920  1.0000
  H   H1164     1.0  0.58799  0.45624  0.13864  1.0000
  C   C1473     1.0  0.64274  0.07888  0.97690  1.0000
  H   H1165     1.0  0.64001  0.05836  0.02530  1.0000
  H   H1166     1.0  0.63041  0.46562  0.06251  1.0000
  H   H1167     1.0  0.89230  0.34968  0.97997  1.0000
  H   H1168     1.0  0.94727  0.34805  0.11713  1.0000
  H   H1169     1.0  0.62787  0.02824  0.98191  1.0000
  C   C1474     1.0  0.61966  0.18643  0.97996  1.0000
  C   C1475     1.0  0.64234  0.21230  0.97654  1.0000
  H   H1170     1.0  0.64645  0.21958  0.02745  1.0000
  C   C1476     1.0  0.65823  0.28281  0.19172  1.0000
  H   H1171     1.0  0.68633  0.47404  0.02128  1.0000
  H   H1172     1.0  0.00648  0.27933  0.07906  1.0000
  C   C1477     1.0  0.94960  0.42395  0.21180  1.0000
  H   H1173     1.0  0.61781  0.04515  0.08923  1.0000
  C   C1478     1.0  0.58014  0.47133  0.14768  1.0000
  C   C1479     1.0  0.67552  0.47839  0.07086  1.0000
  H   H1174     1.0  0.64994  0.36669  0.18805  1.0000
  Fe  Fe103     1.0  0.53717  0.05880  0.01483  1.0000
  H   H1175     1.0  0.88861  0.36199  0.12456  1.0000
  C   C1480     1.0  0.81344  0.46506  0.01067  1.0000
  C   C1481     1.0  0.55231  0.23574  0.16962  1.0000
  S   S202      1.0  0.52791  0.08341  0.03603  1.0000
  C   C1482     1.0  0.67095  0.03793  0.99266  1.0000
  P   P52       1.0  0.00224  0.38625  0.10094  1.0000
  C   C1483     1.0  0.72636  0.17552  0.96773  1.0000
  C   C1484     1.0  0.95186  0.45249  0.18639  1.0000
  C   C1485     1.0  0.00464  0.32576  0.08863  1.0000
  H   H1176     1.0  0.73121  0.30659  0.20241  1.0000
  Fe  Fe104     1.0  0.74688  0.50378  0.14676  1.0000
  H   H1177     1.0  0.70075  0.25630  0.19976  1.0000
  P   P53       1.0  0.74361  0.44053  0.21182  1.0000
  P   P54       1.0  0.83830  0.47413  0.99276  1.0000
  H   H1178     1.0  0.61892  0.31697  0.18565  1.0000
  C   C1486     1.0  0.76459  0.43296  0.19361  1.0000
  C   C1487     1.0  0.79875  0.43869  0.19045  1.0000
  C   C1488     1.0  0.81495  0.43483  0.17612  1.0000
  C   C1489     1.0  0.79732  0.42485  0.16492  1.0000
  C   C1490     1.0  0.76349  0.41867  0.16804  1.0000
  C   C1491     1.0  0.74711  0.42281  0.18230  1.0000
  S   S203      1.0  0.86760  0.46654  0.14103  1.0000
  H   H1179     1.0  0.74168  0.42776  0.02636  1.0000
  H   H1180     1.0  0.76197  0.09872  0.96918  1.0000
  H   H1181     1.0  0.70618  0.36195  0.19628  1.0000
  H   H1182     1.0  0.53464  0.44498  0.15456  1.0000
  C   C1492     1.0  0.74772  0.11040  0.00445  1.0000
  H   H1183     1.0  0.67400  0.13109  0.18459  1.0000
  H   H1184     1.0  0.53607  0.26467  0.15020  1.0000
  C   C1493     1.0  0.69319  0.06185  0.99522  1.0000
  H   H1185     1.0  0.90348  0.46065  0.10313  1.0000
  H   H1186     1.0  0.87413  0.43584  0.01604  1.0000
  H   H1187     1.0  0.84100  0.44047  0.17346  1.0000
  H   H1188     1.0  0.80978  0.42268  0.15371  1.0000
  H   H1189     1.0  0.74964  0.41176  0.15923  1.0000
  H   H1190     1.0  0.72067  0.41912  0.18416  1.0000
  Fe  Fe105     1.0  0.51937  0.34958  0.20348  1.0000
  H   H1191     1.0  0.98342  0.37986  0.13398  1.0000
  H   H1192     1.0  0.93106  0.41333  0.01532  1.0000
  H   H1193     1.0  0.75636  0.45302  0.04868  1.0000
  C   C1494     1.0  0.75613  0.12388  0.96495  1.0000
  H   H1194     1.0  0.51729  0.47800  0.17558  1.0000
  C   C1495     1.0  0.51431  0.03864  0.08457  1.0000
  H   H1195     1.0  0.99243  0.05491  0.06076  1.0000
  H   H1196     1.0  0.95052  0.45190  0.96869  1.0000
  H   H1197     1.0  0.84331  0.49448  0.02259  1.0000
  C   C1496     1.0  0.55651  0.24628  0.97962  1.0000
  H   H1198     1.0  0.92417  0.03074  0.09350  1.0000
  C   C1497     1.0  0.69386  0.15660  0.00292  1.0000
  C   C1498     1.0  0.66310  0.14850  0.01109  1.0000
  C   C1499     1.0  0.64618  0.17120  0.01990  1.0000
  C   C1500     1.0  0.65977  0.20206  0.02065  1.0000
  C   C1501     1.0  0.69066  0.21006  0.01280  1.0000
  C   C1502     1.0  0.70788  0.18724  0.00414  1.0000
  H   H1199     1.0  0.96953  0.42144  0.99174  1.0000
  H   H1200     1.0  0.73190  0.20716  0.15764  1.0000
  H   H1201     1.0  0.98572  0.43630  0.14281  1.0000
  C   C1503     1.0  0.53989  0.47252  0.20596  1.0000
  C   C1504     1.0  0.73682  0.48442  0.21269  1.0000
  H   H1202     1.0  0.64145  0.50063  0.03827  1.0000
  C   C1505     1.0  0.73733  0.09672  0.01924  1.0000
  C   C1506     1.0  0.82151  0.47934  0.02336  1.0000
  H   H1203     1.0  0.66143  0.12816  0.97466  1.0000
  C   C1507     1.0  0.61874  0.23237  0.20936  1.0000
  H   H1204     1.0  0.62336  0.50190  0.14350  1.0000
  C   C1508     1.0  0.55567  0.26041  0.15748  1.0000
  C   C1509     1.0  0.67990  0.03164  0.03526  1.0000
  H   H1205     1.0  0.99388  0.40105  0.06903  1.0000
  H   H1206     1.0  0.54980  0.04526  0.06481  1.0000
  C   C1510     1.0  0.90478  0.38043  0.11816  1.0000
  H   H1207     1.0  0.65224  0.12454  0.01091  1.0000
  H   H1208     1.0  0.62263  0.16466  0.02629  1.0000
  S   S204      1.0  0.77745  0.47909  0.12846  1.0000
  H   H1209     1.0  0.70130  0.23390  0.01346  1.0000
  H   H1210     1.0  0.73210  0.19348  0.99837  1.0000
  H   H1211     1.0  0.00818  0.34828  0.15501  1.0000
  C   C1511     1.0  0.89241  0.41212  0.11424  1.0000
  H   H1212     1.0  0.55698  0.23390  0.99091  1.0000
  C   C1512     1.0  0.58158  0.26816  0.97350  1.0000
  C   C1513     1.0  0.71587  0.48542  0.98423  1.0000
  H   H1213     1.0  0.71125  0.09583  0.02340  1.0000
  H   H1214     1.0  0.70391  0.04099  0.06961  1.0000
  H   H1215     1.0  0.51918  0.01139  0.04987  1.0000
  S   S205      1.0  0.70325  0.48436  0.16346  1.0000
  C   C1514     1.0  0.00179  0.36028  0.08586  1.0000
  C   C1515     1.0  0.60458  0.25152  0.17735  1.0000
  H   H1216     1.0  0.53026  0.22077  0.17159  1.0000
  C   C1516     1.0  0.85263  0.31492  0.98264  1.0000
  C   C1517     1.0  0.88005  0.33142  0.97468  1.0000
  C   C1518     1.0  0.00403  0.30594  0.07685  1.0000
  C   C1519     1.0  0.91972  0.44245  0.18525  1.0000
  C   C1520     1.0  0.93372  0.44807  0.97899  1.0000
  C   C1521     1.0  0.52904  0.50545  0.20324  1.0000
  C   C1522     1.0  0.92274  0.42656  0.00526  1.0000
  C   C1523     1.0  0.87976  0.45712  0.99268  1.0000
  C   C1524     1.0  0.69288  0.33990  0.19504  1.0000
  H   H1217     1.0  0.63641  0.17338  0.19515  1.0000
  H   H1218     1.0  0.00545  0.45090  0.11234  1.0000
  C   C1525     1.0  0.76410  0.44197  0.02553  1.0000
  H   H1219     1.0  0.84212  0.40824  0.98233  1.0000
  H   H1220     1.0  0.68079  0.45776  0.19993  1.0000
  C   C1526     1.0  0.71133  0.19990  0.16600  1.0000
  C   C1527     1.0  0.69030  0.22401  0.17207  1.0000
  C   C1528     1.0  0.67697  0.43583  0.20790  1.0000
  C   C1529     1.0  0.60474  0.17425  0.96842  1.0000
  H   H1221     1.0  0.58659  0.29913  0.14555  1.0000
  C   C1530     1.0  0.94440  0.43099  0.99197  1.0000
  H   H1222     1.0  0.77717  0.43580  0.00216  1.0000
  C   C1531     1.0  0.68977  0.09470  0.98890  1.0000
  H   H1223     1.0  0.67035  0.46356  0.08162  1.0000
  C   C1532     1.0  0.80487  0.09894  0.00915  1.0000
  C   C1533     1.0  0.91313  0.43596  0.10596  1.0000
  H   H1224     1.0  0.84423  0.31997  0.99407  1.0000
  C   C1534     1.0  0.70256  0.46945  0.99807  1.0000
  C   C1535     1.0  0.66123  0.34260  0.19036  1.0000
  C   C1536     1.0  0.64380  0.31421  0.18884  1.0000
  C   C1537     1.0  0.90144  0.46075  0.97928  1.0000
  C   C1538     1.0  0.78448  0.44643  0.01183  1.0000
  H   H1225     1.0  0.63047  0.29024  0.16236  1.0000
  H   H1226     1.0  0.71263  0.05453  0.00223  1.0000
  C   C1539     1.0  0.66026  0.02658  0.09999  1.0000
  C   C1540     1.0  0.97997  0.48862  0.13725  1.0000
  H   H1227     1.0  0.57114  0.25677  0.20758  1.0000
  C   C1541     1.0  0.55027  0.46478  0.15673  1.0000
  H   H1228     1.0  0.81424  0.27969  0.98185  1.0000
  C   C1542     1.0  0.70563  0.16644  0.17061  1.0000
  H   H1229     1.0  0.70872  0.19078  0.97388  1.0000
  H   H1230     1.0  0.81262  0.44720  0.19889  1.0000
  C   C1543     1.0  0.96405  0.34076  0.97225  1.0000
  C   C1544     1.0  0.77235  0.45620  0.03811  1.0000
  C   C1545     1.0  0.58399  0.27982  0.15490  1.0000
  H   H1231     1.0  0.57361  0.21191  0.18882  1.0000
  H   H1232     1.0  0.99950  0.37238  0.20545  1.0000
  Fe  Fe106     1.0  0.82213  0.50023  0.13703  1.0000
  H   H1233     1.0  0.62286  0.08567  0.97001  1.0000
  C   C1546     1.0  0.54064  0.48342  0.16874  1.0000
  C   C1547     1.0  0.68973  0.28028  0.19682  1.0000
  C   C1548     1.0  0.66377  0.21477  0.18300  1.0000
  C   C1549     1.0  0.65757  0.18110  0.18722  1.0000
  C   C1550     1.0  0.60865  0.27503  0.16465  1.0000
  C   C1551     1.0  0.94636  0.42831  0.10173  1.0000
  H   H1234     1.0  0.67299  0.01290  0.99797  1.0000
  H   H1235     1.0  0.51238  0.22220  0.97592  1.0000
  H   H1236     1.0  0.52129  0.16598  0.07882  1.0000
  C   C1552     1.0  0.82607  0.42352  0.97553  1.0000
  C   C1553     1.0  0.69815  0.02643  0.04772  1.0000
  C   C1554     1.0  0.99703  0.37453  0.07128  1.0000
  C   C1555     1.0  0.90244  0.42322  0.19733  1.0000
  H   H1237     1.0  0.90831  0.44960  0.17498  1.0000
  H   H1238     1.0  0.72190  0.14776  0.16590  1.0000
  H   H1239     1.0  0.69464  0.24982  0.16816  1.0000
  H   H1240     1.0  0.79078  0.12389  0.98857  1.0000
  C   C1556     1.0  0.93805  0.37275  0.11403  1.0000
  H   H1241     1.0  0.60152  0.27284  0.98004  1.0000
  C   C1557     1.0  0.65306  0.47960  0.06010  1.0000
  C   C1558     1.0  0.70703  0.30874  0.19840  1.0000
  C   C1559     1.0  0.67867  0.15705  0.18116  1.0000
  C   C1560     1.0  0.99166  0.34828  0.97923  1.0000
  C   C1561     1.0  0.78179  0.11219  0.99961  1.0000
  H   H1242     1.0  0.55943  0.46249  0.19846  1.0000
  C   C1562     1.0  0.79847  0.47568  0.96914  1.0000
  H   H1243     1.0  0.58300  0.01487  0.04319  1.0000
  H   H1244     1.0  0.89367  0.47423  0.96912  1.0000
  H   H1245     1.0  0.96529  0.46731  0.17696  1.0000
  C   C1563     1.0  0.69704  0.48689  0.01077  1.0000
  C   C1564     1.0  0.66454  0.10297  0.97964  1.0000
  C   C1565     1.0  0.60009  0.49698  0.15046  1.0000
  H   H1246     1.0  0.00714  0.31403  0.09987  1.0000
  C   C1566     1.0  0.70436  0.49695  0.06790  1.0000
  C   C1567     1.0  0.79419  0.08436  0.02366  1.0000
  H   H1247     1.0  0.61632  0.50873  0.19112  1.0000
  C   C1568     1.0  0.56114  0.50845  0.17194  1.0000
  H   H1248     1.0  0.75221  0.07231  0.04001  1.0000
  C   C1569     1.0  0.92246  0.50811  0.13582  1.0000
  H   H1249     1.0  0.99943  0.30492  0.05321  1.0000
  C   C1570     1.0  0.76047  0.08354  0.02873  1.0000
  H   H1250     1.0  0.87757  0.41535  0.19639  1.0000
  C   C1571     1.0  0.91725  0.41398  0.21056  1.0000
  C   C1572     1.0  0.99642  0.35464  0.05952  1.0000
  H   H1251     1.0  0.80725  0.48613  0.04678  1.0000
  H   H1252     1.0  0.77087  0.50008  0.19289  1.0000
  H   H1253     1.0  0.68638  0.01791  0.02566  1.0000
  H   H1254     1.0  0.62507  0.43317  0.20515  1.0000
  C   C1573     1.0  0.00004  0.32036  0.06229  1.0000
  C   C1574     1.0  0.83567  0.29226  0.97576  1.0000
  H   H1255     1.0  0.79283  0.50116  0.97083  1.0000
  C   C1575     1.0  0.64544  0.42202  0.21080  1.0000
  H   H1256     1.0  0.99967  0.33154  0.98839  1.0000
  C   C1576     1.0  0.75380  0.50771  0.20207  1.0000
  C   C1577     1.0  0.01112  0.05249  0.05130  1.0000
  C   C1578     1.0  0.01011  0.02601  0.04268  1.0000
  H   H1257     1.0  0.60973  0.01092  0.06683  1.0000
  Fe  Fe107     1.0  0.93770  0.39787  0.31341  1.0000
  S   S206      1.0  0.95627  0.34997  0.32493  1.0000
  S   S207      1.0  0.97109  0.44303  0.31012  1.0000
  Fe  Fe108     1.0  0.87614  0.36464  0.30550  1.0000
  S   S208      1.0  0.88958  0.31513  0.31672  1.0000
  S   S209      1.0  0.83208  0.36902  0.29203  1.0000
  Fe  Fe109     1.0  0.90322  0.34350  0.33514  1.0000
  S   S210      1.0  0.89095  0.32775  0.36016  1.0000
  Fe  Fe110     1.0  0.94091  0.32528  0.30557  1.0000
  S   S211      1.0  0.88563  0.39289  0.32487  1.0000
  S   S212      1.0  0.92665  0.37358  0.29317  1.0000
  Fe  Fe111     1.0  0.62939  0.20730  0.29931  1.0000
  S   S213      1.0  0.64934  0.25854  0.29379  1.0000
  S   S214      1.0  0.58517  0.19670  0.31671  1.0000
  Fe  Fe112     1.0  0.68652  0.17530  0.28026  1.0000
  S   S215      1.0  0.71061  0.22459  0.27373  1.0000
  S   S216      1.0  0.71338  0.13421  0.26814  1.0000
  Fe  Fe113     1.0  0.69820  0.23428  0.29777  1.0000
  S   S217      1.0  0.73204  0.25214  0.31346  1.0000
  Fe  Fe114     1.0  0.65970  0.24423  0.27023  1.0000
  S   S218      1.0  0.65642  0.27798  0.24872  1.0000
  S   S219      1.0  0.67769  0.18362  0.30475  1.0000
  S   S220      1.0  0.63603  0.19443  0.27528  1.0000
  C   C1579     1.0  0.56019  0.30855  0.24906  1.0000
  H   H1258     1.0  0.65219  0.09532  0.37103  1.0000
  C   C1580     1.0  0.97126  0.12704  0.31973  1.0000
  S   S221      1.0  0.59156  0.34599  0.38485  1.0000
  Fe  Fe115     1.0  0.75597  0.21837  0.40687  1.0000
  S   S222      1.0  0.74693  0.25747  0.42280  1.0000
  S   S223      1.0  0.77424  0.22696  0.38194  1.0000
  Fe  Fe116     1.0  0.73054  0.16266  0.43069  1.0000
  S   S224      1.0  0.72111  0.10755  0.43564  1.0000
  Fe  Fe117     1.0  0.69935  0.23075  0.43087  1.0000
  S   S225      1.0  0.64886  0.25269  0.43707  1.0000
  S   S226      1.0  0.70607  0.19514  0.41335  1.0000
  S   S227      1.0  0.78129  0.18313  0.42300  1.0000
  C   C1581     1.0  0.60610  0.31819  0.39914  1.0000
  C   C1582     1.0  0.58527  0.30579  0.41186  1.0000
  C   C1583     1.0  0.59839  0.28523  0.42346  1.0000
  C   C1584     1.0  0.63216  0.27661  0.42219  1.0000
  C   C1585     1.0  0.65270  0.28832  0.40930  1.0000
  C   C1586     1.0  0.63972  0.30938  0.39795  1.0000
  H   H1259     1.0  0.55935  0.31280  0.41295  1.0000
  H   H1260     1.0  0.58241  0.27617  0.43345  1.0000
  H   H1261     1.0  0.67873  0.28169  0.40821  1.0000
  H   H1262     1.0  0.65581  0.31889  0.38823  1.0000
  C   C1587     1.0  0.61807  0.29330  0.24335  1.0000
  C   C1588     1.0  0.61687  0.30752  0.22849  1.0000
  C   C1589     1.0  0.58945  0.29322  0.25360  1.0000
  C   C1590     1.0  0.96660  0.22520  0.24298  1.0000
  H   H1263     1.0  0.59023  0.28243  0.26513  1.0000
  C   C1591     1.0  0.56168  0.23162  0.32188  1.0000
  C   C1592     1.0  0.54198  0.22999  0.33584  1.0000
  C   C1593     1.0  0.92036  0.32705  0.26089  1.0000
  C   C1594     1.0  0.97125  0.43908  0.25599  1.0000
  C   C1595     1.0  0.54147  0.28761  0.31599  1.0000
  C   C1596     1.0  0.56161  0.26070  0.31206  1.0000
  H   H1264     1.0  0.54172  0.20752  0.34347  1.0000
  H   H1265     1.0  0.54104  0.30960  0.30815  1.0000
  H   H1266     1.0  0.73668  0.15860  0.38048  1.0000
  H   H1267     1.0  0.57668  0.26250  0.30132  1.0000
  C   C1597     1.0  0.80451  0.33621  0.29773  1.0000
  C   C1598     1.0  0.78341  0.32631  0.28771  1.0000
  C   C1599     1.0  0.76100  0.30044  0.29236  1.0000
  C   C1600     1.0  0.75948  0.28467  0.30707  1.0000
  C   C1601     1.0  0.78034  0.29489  0.31707  1.0000
  C   C1602     1.0  0.80289  0.32041  0.31241  1.0000
  H   H1268     1.0  0.78434  0.33863  0.27638  1.0000
  H   H1269     1.0  0.74477  0.29283  0.28463  1.0000
  H   H1270     1.0  0.77911  0.28302  0.32849  1.0000
  H   H1271     1.0  0.81841  0.32834  0.32033  1.0000
  C   C1603     1.0  0.96158  0.48419  0.31433  1.0000
  C   C1604     1.0  0.92954  0.49428  0.31947  1.0000
  C   C1605     1.0  0.96268  0.50438  0.24372  1.0000
  H   H1272     1.0  0.83735  0.48241  0.41932  1.0000
  H   H1273     1.0  0.90968  0.47667  0.32106  1.0000
  C   C1606     1.0  0.58742  0.32167  0.22380  1.0000
  C   C1607     1.0  0.80837  0.25298  0.37600  1.0000
  C   C1608     1.0  0.81658  0.26242  0.36054  1.0000
  C   C1609     1.0  0.84201  0.28506  0.35553  1.0000
  C   C1610     1.0  0.86027  0.29755  0.36594  1.0000
  C   C1611     1.0  0.85348  0.28642  0.38133  1.0000
  C   C1612     1.0  0.82723  0.26467  0.38639  1.0000
  H   H1274     1.0  0.80277  0.25280  0.35239  1.0000
  H   H1275     1.0  0.84713  0.29301  0.34365  1.0000
  H   H1276     1.0  0.86799  0.29533  0.38942  1.0000
  H   H1277     1.0  0.82150  0.25701  0.39830  1.0000
  C   C1613     1.0  0.59149  0.44744  0.35124  1.0000
  C   C1614     1.0  0.74057  0.03745  0.26808  1.0000
  C   C1615     1.0  0.73609  0.07151  0.26401  1.0000
  C   C1616     1.0  0.71848  0.09156  0.27406  1.0000
  C   C1617     1.0  0.70570  0.07727  0.28835  1.0000
  C   C1618     1.0  0.71013  0.04313  0.29243  1.0000
  H   H1278     1.0  0.74627  0.08235  0.25297  1.0000
  H   H1279     1.0  0.69231  0.09251  0.29618  1.0000
  H   H1280     1.0  0.52858  0.14217  0.31915  1.0000
  C   C1619     1.0  0.55416  0.36602  0.28280  1.0000
  H   H1281     1.0  0.96133  0.48481  0.22255  1.0000
  C   C1620     1.0  0.64119  0.05295  0.41572  1.0000
  C   C1621     1.0  0.66019  0.03659  0.42637  1.0000
  C   C1622     1.0  0.68497  0.05355  0.43207  1.0000
  C   C1623     1.0  0.69037  0.08725  0.42758  1.0000
  C   C1624     1.0  0.67148  0.10363  0.41685  1.0000
  C   C1625     1.0  0.64726  0.08643  0.41081  1.0000
  H   H1282     1.0  0.70002  0.04045  0.44002  1.0000
  H   H1283     1.0  0.67563  0.12945  0.41317  1.0000
  H   H1284     1.0  0.63293  0.09925  0.40248  1.0000
  H   H1285     1.0  0.53845  0.12228  0.36828  1.0000
  S   S228      1.0  0.72086  0.19685  0.44888  1.0000
  C   C1626     1.0  0.84578  0.29564  0.42651  1.0000
  C   C1627     1.0  0.87743  0.30903  0.42441  1.0000
  C   C1628     1.0  0.88213  0.34079  0.42828  1.0000
  H   H1286     1.0  0.84223  0.27060  0.42396  1.0000
  H   H1287     1.0  0.89832  0.29447  0.42006  1.0000
  H   H1288     1.0  0.90681  0.35087  0.42695  1.0000
  C   C1629     1.0  0.79151  0.42667  0.25011  1.0000
  C   C1630     1.0  0.73324  0.06272  0.38612  1.0000
  H   H1289     1.0  0.82340  0.07108  0.33319  1.0000
  H   H1290     1.0  0.79415  0.43965  0.25985  1.0000
  C   C1631     1.0  0.62701  0.11597  0.35232  1.0000
  H   H1291     1.0  0.66219  0.35665  0.23590  1.0000
  C   C1632     1.0  0.63565  0.18342  0.38887  1.0000
  C   C1633     1.0  0.61888  0.17577  0.40327  1.0000
  H   H1292     1.0  0.66151  0.19016  0.38767  1.0000
  H   H1293     1.0  0.63213  0.17709  0.41300  1.0000
  C   C1634     1.0  0.86039  0.47191  0.41451  1.0000
  H   H1294     1.0  0.78211  0.37925  0.21557  1.0000
  C   C1635     1.0  0.82307  0.34617  0.43594  1.0000
  C   C1636     1.0  0.79632  0.03606  0.32315  1.0000
  C   C1637     1.0  0.84835  0.47358  0.34509  1.0000
  H   H1295     1.0  0.90969  0.30796  0.26929  1.0000
  C   C1638     1.0  0.88490  0.49064  0.36248  1.0000
  H   H1296     1.0  0.54285  0.16024  0.39324  1.0000
  C   C1639     1.0  0.63858  0.21437  0.21929  1.0000
  C   C1640     1.0  0.80088  0.38846  0.45931  1.0000
  C   C1641     1.0  0.52515  0.19874  0.44282  1.0000
  C   C1642     1.0  0.98855  0.25250  0.29657  1.0000
  C   C1643     1.0  0.96412  0.09564  0.32704  1.0000
  C   C1644     1.0  0.87188  0.48055  0.39933  1.0000
  H   H1297     1.0  0.85915  0.38351  0.43731  1.0000
  H   H1298     1.0  0.56133  0.02340  0.38629  1.0000
  S   S229      1.0  0.60991  0.03203  0.40839  1.0000
  H   H1299     1.0  0.96519  0.29952  0.25598  1.0000
  C   C1645     1.0  0.80665  0.39572  0.24899  1.0000
  H   H1300     1.0  0.75443  0.12794  0.40369  1.0000
  H   H1301     1.0  0.98606  0.23093  0.27580  1.0000
  H   H1302     1.0  0.75051  0.46881  0.39800  1.0000
  H   H1303     1.0  0.69445  0.07353  0.32665  1.0000
  H   H1304     1.0  0.58300  0.46626  0.35852  1.0000
  C   C1646     1.0  0.64094  0.13454  0.45661  1.0000
  H   H1305     1.0  0.57964  0.07919  0.37558  1.0000
  C   C1647     1.0  0.87888  0.45027  0.42357  1.0000
  C   C1648     1.0  0.55352  0.07360  0.37691  1.0000
  C   C1649     1.0  0.68574  0.45487  0.38439  1.0000
  H   H1306     1.0  0.69999  0.03220  0.30346  1.0000
  C   C1650     1.0  0.63673  0.26678  0.33322  1.0000
  C   C1651     1.0  0.61197  0.26011  0.34519  1.0000
  C   C1652     1.0  0.59060  0.28536  0.34980  1.0000
  C   C1653     1.0  0.59358  0.31722  0.34230  1.0000
  C   C1654     1.0  0.61926  0.32448  0.33067  1.0000
  C   C1655     1.0  0.64036  0.29883  0.32597  1.0000
  P   P55       1.0  0.62237  0.36526  0.32057  1.0000
  C   C1656     1.0  0.59551  0.36526  0.30588  1.0000
  C   C1657     1.0  0.61062  0.39744  0.33262  1.0000
  C   C1658     1.0  0.59951  0.42831  0.32638  1.0000
  C   C1659     1.0  0.52263  0.25741  0.34000  1.0000
  C   C1660     1.0  0.69789  0.39267  0.22531  1.0000
  C   C1661     1.0  0.60367  0.41723  0.35743  1.0000
  C   C1662     1.0  0.61330  0.39236  0.34817  1.0000
  C   C1663     1.0  0.98710  0.50752  0.31231  1.0000
  H   H1307     1.0  0.56520  0.16359  0.28695  1.0000
  C   C1664     1.0  0.66429  0.37435  0.31253  1.0000
  C   C1665     1.0  0.69117  0.36103  0.31979  1.0000
  C   C1666     1.0  0.77283  0.44073  0.23879  1.0000
  Fe  Fe118     1.0  0.53669  0.34732  0.38260  1.0000
  H   H1308     1.0  0.65293  0.24706  0.32941  1.0000
  H   H1309     1.0  0.60859  0.23521  0.35056  1.0000
  H   H1310     1.0  0.57100  0.28006  0.35888  1.0000
  H   H1311     1.0  0.57564  0.33599  0.34556  1.0000
  H   H1312     1.0  0.65947  0.30333  0.31660  1.0000
  H   H1313     1.0  0.53687  0.04637  0.41380  1.0000
  C   C1667     1.0  0.74523  0.41664  0.43044  1.0000
  H   H1314     1.0  0.60467  0.41262  0.36952  1.0000
  H   H1315     1.0  0.62195  0.36896  0.35328  1.0000
  H   H1316     1.0  0.63203  0.18925  0.36499  1.0000
  C   C1668     1.0  0.62579  0.20442  0.23417  1.0000
  H   H1317     1.0  0.68725  0.34530  0.33030  1.0000
  C   C1669     1.0  0.53648  0.22314  0.41695  1.0000
  H   H1318     1.0  0.79592  0.02020  0.28698  1.0000
  H   H1319     1.0  0.57184  0.22422  0.28405  1.0000
  C   C1670     1.0  0.99679  0.24174  0.24058  1.0000
  C   C1671     1.0  0.79378  0.42169  0.46145  1.0000
  C   C1672     1.0  0.91809  0.38235  0.24809  1.0000
  H   H1320     1.0  0.82072  0.38474  0.25792  1.0000
  C   C1673     1.0  0.76915  0.42382  0.22621  1.0000
  C   C1674     1.0  0.69200  0.38615  0.38890  1.0000
  H   H1321     1.0  0.60121  0.20036  0.43976  1.0000
  C   C1675     1.0  0.99463  0.22314  0.35491  1.0000
  H   H1322     1.0  0.70013  0.47809  0.23221  1.0000
  P   P56       1.0  0.70886  0.05750  0.35850  1.0000
  C   C1676     1.0  0.95176  0.32229  0.25331  1.0000
  H   H1323     1.0  0.81695  0.03050  0.31501  1.0000
  C   C1677     1.0  0.73589  0.13179  0.38195  1.0000
  C   C1678     1.0  0.94958  0.37773  0.24029  1.0000
  C   C1679     1.0  0.60719  0.35335  0.29211  1.0000
  H   H1324     1.0  0.73202  0.03606  0.38809  1.0000
  H   H1325     1.0  0.51363  0.10950  0.34368  1.0000
  C   C1680     1.0  0.97126  0.46026  0.35450  1.0000
  H   H1326     1.0  0.82429  0.40270  0.41514  1.0000
  C   C1681     1.0  0.74298  0.05001  0.34440  1.0000
  C   C1682     1.0  0.77718  0.40248  0.42910  1.0000
  C   C1683     1.0  0.56881  0.16647  0.39208  1.0000
  C   C1684     1.0  0.83168  0.03339  0.26792  1.0000
  H   H1327     1.0  0.65156  0.38839  0.40648  1.0000
  C   C1685     1.0  0.85114  0.05845  0.25984  1.0000
  C   C1686     1.0  0.72419  0.11448  0.37099  1.0000
  C   C1687     1.0  0.81079  0.03987  0.28073  1.0000
  C   C1688     1.0  0.80852  0.07170  0.28526  1.0000
  C   C1689     1.0  0.82797  0.09713  0.27721  1.0000
  C   C1690     1.0  0.84947  0.09019  0.26450  1.0000
  P   P57       1.0  0.82807  0.13778  0.28358  1.0000
  C   C1691     1.0  0.80284  0.13918  0.30137  1.0000
  C   C1692     1.0  0.87078  0.14634  0.28532  1.0000
  C   C1693     1.0  0.88418  0.17783  0.28087  1.0000
  C   C1694     1.0  0.91775  0.18328  0.28162  1.0000
  C   C1695     1.0  0.93819  0.15734  0.28665  1.0000
  C   C1696     1.0  0.92505  0.12608  0.29114  1.0000
  C   C1697     1.0  0.89149  0.12058  0.29062  1.0000
  C   C1698     1.0  0.76854  0.13507  0.30199  1.0000
  C   C1699     1.0  0.74821  0.13731  0.31546  1.0000
  C   C1700     1.0  0.76174  0.14501  0.32825  1.0000
  C   C1701     1.0  0.79583  0.14914  0.32777  1.0000
  C   C1702     1.0  0.81649  0.14612  0.31438  1.0000
  C   C1703     1.0  0.81053  0.16860  0.27063  1.0000
  C   C1704     1.0  0.80128  0.16067  0.25683  1.0000
  C   C1705     1.0  0.78769  0.18498  0.24699  1.0000
  C   C1706     1.0  0.78333  0.21731  0.25082  1.0000
  C   C1707     1.0  0.79195  0.22524  0.26466  1.0000
  C   C1708     1.0  0.80482  0.20084  0.27465  1.0000
  H   H1328     1.0  0.87962  0.36098  0.26455  1.0000
  H   H1329     1.0  0.74408  0.35632  0.31889  1.0000
  C   C1709     1.0  0.75237  0.34494  0.44887  1.0000
  H   H1330     1.0  0.79168  0.07602  0.29506  1.0000
  H   H1331     1.0  0.86518  0.10923  0.25828  1.0000
  H   H1332     1.0  0.86913  0.19822  0.27669  1.0000
  H   H1333     1.0  0.92806  0.20757  0.27824  1.0000
  H   H1334     1.0  0.96423  0.16133  0.28705  1.0000
  H   H1335     1.0  0.94097  0.10595  0.29495  1.0000
  H   H1336     1.0  0.88199  0.09597  0.29407  1.0000
  H   H1337     1.0  0.75751  0.13027  0.29199  1.0000
  H   H1338     1.0  0.72187  0.13372  0.31586  1.0000
  H   H1339     1.0  0.74573  0.14825  0.33847  1.0000
  H   H1340     1.0  0.80596  0.15530  0.33773  1.0000
  H   H1341     1.0  0.84280  0.14998  0.31415  1.0000
  H   H1342     1.0  0.80348  0.13565  0.25379  1.0000
  H   H1343     1.0  0.77965  0.17844  0.23659  1.0000
  H   H1344     1.0  0.77206  0.23588  0.24335  1.0000
  H   H1345     1.0  0.78736  0.24997  0.26792  1.0000
  H   H1346     1.0  0.81008  0.20705  0.28559  1.0000
  C   C1710     1.0  0.99035  0.43639  0.34726  1.0000
  H   H1347     1.0  0.71583  0.12822  0.36109  1.0000
  C   C1711     1.0  0.66633  0.37891  0.22814  1.0000
  C   C1712     1.0  0.70445  0.31805  0.44193  1.0000
  C   C1713     1.0  0.70966  0.43846  0.37531  1.0000
  C   C1714     1.0  0.74483  0.08012  0.39706  1.0000
  C   C1715     1.0  0.62647  0.11938  0.33670  1.0000
  H   H1348     1.0  0.65035  0.10668  0.31545  1.0000
  H   H1349     1.0  0.68326  0.48154  0.38270  1.0000
  C   C1716     1.0  0.78992  0.43688  0.40536  1.0000
  C   C1717     1.0  0.93788  0.41702  0.36904  1.0000
  C   C1718     1.0  0.94520  0.45076  0.36566  1.0000
  H   H1350     1.0  0.99062  0.12997  0.31037  1.0000
  C   C1719     1.0  0.65089  0.10393  0.32758  1.0000
  C   C1720     1.0  0.59164  0.14927  0.43723  1.0000
  H   H1351     1.0  0.78045  0.43734  0.45358  1.0000
  H   H1352     1.0  0.58003  0.47646  0.33092  1.0000
  C   C1721     1.0  0.63182  0.16736  0.45267  1.0000
  C   C1722     1.0  0.98331  0.40291  0.35090  1.0000
  C   C1723     1.0  0.78480  0.39285  0.22510  1.0000
  C   C1724     1.0  0.96793  0.44586  0.24050  1.0000
  C   C1725     1.0  0.85510  0.35922  0.43410  1.0000
  P   P58       1.0  0.96960  0.41231  0.22873  1.0000
  H   H1353     1.0  0.54822  0.22275  0.40555  1.0000
  P   P59       1.0  0.91857  0.48174  0.37396  1.0000
  C   C1726     1.0  0.53992  0.19649  0.42803  1.0000
  C   C1727     1.0  0.67589  0.08505  0.33405  1.0000
  C   C1728     1.0  0.66461  0.43686  0.39553  1.0000
  H   H1354     1.0  0.63223  0.08358  0.45399  1.0000
  H   H1355     1.0  0.91695  0.40902  0.37702  1.0000
  C   C1729     1.0  0.54203  0.37680  0.29670  1.0000
  C   C1730     1.0  0.53015  0.09785  0.37289  1.0000
  C   C1731     1.0  0.80341  0.37888  0.23646  1.0000
  H   H1356     1.0  0.99576  0.26714  0.31833  1.0000
  H   H1357     1.0  0.86784  0.05295  0.25010  1.0000
  H   H1358     1.0  0.58938  0.09597  0.43720  1.0000
  H   H1359     1.0  0.60717  0.13404  0.33163  1.0000
  H   H1360     1.0  0.52662  0.26112  0.27648  1.0000
  C   C1732     1.0  0.54698  0.09665  0.41698  1.0000
  H   H1361     1.0  0.97557  0.04318  0.26293  1.0000
  H   H1362     1.0  0.88603  0.44243  0.35411  1.0000
  C   C1733     1.0  0.59331  0.21288  0.23934  1.0000
  H   H1363     1.0  0.71082  0.45085  0.42028  1.0000
  H   H1364     1.0  0.76131  0.46465  0.23998  1.0000
  H   H1365     1.0  0.99117  0.34348  0.23768  1.0000
  H   H1366     1.0  0.64141  0.19081  0.24178  1.0000
  C   C1734     1.0  0.79955  0.41301  0.41652  1.0000
  C   C1735     1.0  0.98841  0.25712  0.35437  1.0000
  C   C1736     1.0  0.72942  0.38705  0.29961  1.0000
  H   H1367     1.0  0.90529  0.40596  0.24673  1.0000
  C   C1737     1.0  0.94519  0.02283  0.28284  1.0000
  C   C1738     1.0  0.79995  0.05885  0.33344  1.0000
  H   H1368     1.0  0.60788  0.12765  0.35935  1.0000
  C   C1739     1.0  0.72289  0.07978  0.37296  1.0000
  H   H1369     1.0  0.95085  0.36729  0.36417  1.0000
  H   H1370     1.0  0.97747  0.07420  0.32317  1.0000
  H   H1371     1.0  0.84078  0.45510  0.33837  1.0000
  H   H1372     1.0  0.75463  0.39130  0.29452  1.0000
  C   C1740     1.0  0.71391  0.49559  0.22405  1.0000
  H   H1373     1.0  0.64322  0.03614  0.37375  1.0000
  C   C1741     1.0  0.95469  0.02771  0.26729  1.0000
  C   C1742     1.0  0.66798  0.40252  0.39788  1.0000
  C   C1743     1.0  0.72354  0.36721  0.31331  1.0000
  C   C1744     1.0  0.54321  0.04205  0.38302  1.0000
  C   C1745     1.0  0.72764  0.02306  0.28232  1.0000
  H   H1374     1.0  0.59609  0.34556  0.26985  1.0000
  H   H1375     1.0  0.87023  0.44413  0.43541  1.0000
  H   H1376     1.0  0.70741  0.41698  0.28198  1.0000
  H   H1377     1.0  0.58367  0.20579  0.25096  1.0000
  C   C1746     1.0  0.60044  0.11630  0.44154  1.0000
  H   H1378     1.0  0.00722  0.27347  0.35685  1.0000
  H   H1379     1.0  0.94368  0.23879  0.24168  1.0000
  C   C1747     1.0  0.58967  0.45308  0.33569  1.0000
  S   S230      1.0  0.52280  0.34293  0.22867  1.0000
  C   C1748     1.0  0.75800  0.45050  0.40670  1.0000
  C   C1749     1.0  0.58543  0.16683  0.40497  1.0000
  H   H1380     1.0  0.69440  0.35956  0.39099  1.0000
  C   C1750     1.0  0.96638  0.34744  0.24300  1.0000
  C   C1751     1.0  0.67666  0.08155  0.34980  1.0000
  C   C1752     1.0  0.90345  0.35699  0.25822  1.0000
  C   C1753     1.0  0.53535  0.12504  0.42363  1.0000
  H   H1381     1.0  0.63901  0.30773  0.22063  1.0000
  H   H1382     1.0  0.59784  0.43304  0.31438  1.0000
  C   C1754     1.0  0.96605  0.19099  0.24680  1.0000
  H   H1383     1.0  0.93554  0.06762  0.34545  1.0000
  H   H1384     1.0  0.53843  0.30962  0.25713  1.0000
  C   C1755     1.0  0.95698  0.39322  0.36173  1.0000
  C   C1756     1.0  0.65208  0.09741  0.35887  1.0000
  C   C1757     1.0  0.00112  0.24864  0.31056  1.0000
  C   C1758     1.0  0.73299  0.33675  0.43781  1.0000
  H   H1385     1.0  0.81501  0.35477  0.23566  1.0000
  H   H1386     1.0  0.64557  0.44943  0.40235  1.0000
  C   C1759     1.0  0.97040  0.20207  0.35163  1.0000
  H   H1387     1.0  0.77690  0.08334  0.35197  1.0000
  C   C1760     1.0  0.62490  0.10904  0.45121  1.0000
  H   H1388     1.0  0.97250  0.45930  0.27720  1.0000
  H   H1389     1.0  0.55223  0.38325  0.31916  1.0000
  H   H1390     1.0  0.71628  0.01479  0.33396  1.0000
  H   H1391     1.0  0.00985  0.44394  0.33837  1.0000
  H   H1392     1.0  0.63209  0.34333  0.29028  1.0000
  H   H1393     1.0  0.94277  0.17799  0.24848  1.0000
  H   H1394     1.0  0.68956  0.31175  0.43338  1.0000
  C   C1761     1.0  0.95785  0.27000  0.35067  1.0000
  C   C1762     1.0  0.93363  0.24906  0.34726  1.0000
  C   C1763     1.0  0.93991  0.21496  0.34753  1.0000
  C   C1764     1.0  0.57366  0.23146  0.22964  1.0000
  P   P60       1.0  0.90827  0.18775  0.34365  1.0000
  C   C1765     1.0  0.87991  0.17729  0.36047  1.0000
  C   C1766     1.0  0.88595  0.20897  0.32892  1.0000
  C   C1767     1.0  0.85125  0.21224  0.33092  1.0000
  C   C1768     1.0  0.83419  0.22828  0.31947  1.0000
  C   C1769     1.0  0.85159  0.24249  0.30615  1.0000
  C   C1770     1.0  0.88612  0.24047  0.30425  1.0000
  C   C1771     1.0  0.90323  0.22388  0.31557  1.0000
  C   C1772     1.0  0.85521  0.15376  0.36041  1.0000
  C   C1773     1.0  0.83252  0.14625  0.37316  1.0000
  C   C1774     1.0  0.83432  0.16216  0.38608  1.0000
  C   C1775     1.0  0.85872  0.18561  0.38625  1.0000
  C   C1776     1.0  0.88134  0.19336  0.37348  1.0000
  C   C1777     1.0  0.92910  0.15127  0.33690  1.0000
  C   C1778     1.0  0.92330  0.11962  0.34463  1.0000
  C   C1779     1.0  0.94030  0.09195  0.33954  1.0000
  H   H1395     1.0  0.71761  0.38078  0.23111  1.0000
  H   H1396     1.0  0.57198  0.09543  0.41145  1.0000
  C   C1780     1.0  0.95375  0.15468  0.32454  1.0000
  H   H1397     1.0  0.95284  0.29625  0.35050  1.0000
  H   H1398     1.0  0.90999  0.25951  0.34454  1.0000
  C   C1781     1.0  0.73567  0.44043  0.41925  1.0000
  H   H1399     1.0  0.83705  0.20325  0.34138  1.0000
  H   H1400     1.0  0.80739  0.23024  0.32107  1.0000
  H   H1401     1.0  0.83833  0.25597  0.29754  1.0000
  H   H1402     1.0  0.89980  0.25266  0.29420  1.0000
  H   H1403     1.0  0.92996  0.22385  0.31403  1.0000
  H   H1404     1.0  0.85346  0.14139  0.35044  1.0000
  H   H1405     1.0  0.81331  0.12835  0.37304  1.0000
  H   H1406     1.0  0.81644  0.15675  0.39587  1.0000
  H   H1407     1.0  0.85957  0.19838  0.39620  1.0000
  H   H1408     1.0  0.89948  0.21219  0.37381  1.0000
  H   H1409     1.0  0.90650  0.11595  0.35483  1.0000
  C   C1782     1.0  0.69536  0.30678  0.45706  1.0000
  C   C1783     1.0  0.58671  0.35422  0.28054  1.0000
  C   C1784     1.0  0.51722  0.25078  0.42046  1.0000
  H   H1410     1.0  0.96049  0.17870  0.31889  1.0000
  C   C1785     1.0  0.67567  0.31088  0.35915  1.0000
  C   C1786     1.0  0.69618  0.28372  0.35636  1.0000
  C   C1787     1.0  0.73042  0.28655  0.35577  1.0000
  C   C1788     1.0  0.74426  0.31637  0.35822  1.0000
  C   C1789     1.0  0.72367  0.34346  0.36148  1.0000
  C   C1790     1.0  0.68937  0.34085  0.36140  1.0000
  P   P61       1.0  0.74119  0.38184  0.36489  1.0000
  C   C1791     1.0  0.71206  0.40383  0.37712  1.0000
  C   C1792     1.0  0.77623  0.37334  0.37541  1.0000
  C   C1793     1.0  0.80447  0.39320  0.37255  1.0000
  C   C1794     1.0  0.83175  0.38566  0.38057  1.0000
  C   C1795     1.0  0.83049  0.35908  0.39184  1.0000
  C   C1796     1.0  0.80191  0.34015  0.39515  1.0000
  C   C1797     1.0  0.77494  0.34710  0.38694  1.0000
  C   C1798     1.0  0.70284  0.40144  0.29256  1.0000
  C   C1799     1.0  0.90887  0.43716  0.41745  1.0000
  S   S231      1.0  0.96625  0.04148  0.29569  1.0000
  C   C1800     1.0  0.75242  0.40357  0.34647  1.0000
  C   C1801     1.0  0.72998  0.42564  0.33970  1.0000
  C   C1802     1.0  0.73901  0.44261  0.32548  1.0000
  C   C1803     1.0  0.77004  0.43685  0.31772  1.0000
  C   C1804     1.0  0.79169  0.41350  0.32400  1.0000
  C   C1805     1.0  0.78284  0.39665  0.33825  1.0000
  H   H1411     1.0  0.64905  0.30858  0.35992  1.0000
  H   H1412     1.0  0.68564  0.26040  0.35470  1.0000
  H   H1413     1.0  0.74611  0.26533  0.35361  1.0000
  H   H1414     1.0  0.77090  0.31801  0.35779  1.0000
  H   H1415     1.0  0.67299  0.36158  0.36351  1.0000
  H   H1416     1.0  0.80572  0.41417  0.36403  1.0000
  H   H1417     1.0  0.85411  0.39996  0.37786  1.0000
  H   H1418     1.0  0.85190  0.35269  0.39780  1.0000
  H   H1419     1.0  0.80106  0.31906  0.40361  1.0000
  H   H1420     1.0  0.75340  0.33148  0.38941  1.0000
  H   H1421     1.0  0.72600  0.45282  0.36685  1.0000
  H   H1422     1.0  0.72752  0.40902  0.44008  1.0000
  H   H1423     1.0  0.97479  0.41398  0.26100  1.0000
  H   H1424     1.0  0.70534  0.42940  0.34527  1.0000
  H   H1425     1.0  0.72163  0.45965  0.32032  1.0000
  H   H1426     1.0  0.77691  0.44953  0.30659  1.0000
  H   H1427     1.0  0.81510  0.40794  0.31767  1.0000
  H   H1428     1.0  0.79963  0.37796  0.34274  1.0000
  Fe  Fe119     1.0  0.76916  0.22072  0.43964  1.0000
  C   C1806     1.0  0.56247  0.37604  0.30828  1.0000
  H   H1429     1.0  0.64437  0.18727  0.45671  1.0000
  C   C1807     1.0  0.55913  0.32276  0.23412  1.0000
  H   H1430     1.0  0.57220  0.17576  0.36783  1.0000
  H   H1431     1.0  0.94449  0.43657  0.39792  1.0000
  P   P62       1.0  0.78833  0.37043  0.44333  1.0000
  H   H1432     1.0  0.79469  0.30253  0.43432  1.0000
  H   H1433     1.0  0.65002  0.40680  0.29349  1.0000
  C   C1808     1.0  0.60723  0.17472  0.44305  1.0000
  C   C1809     1.0  0.54886  0.21382  0.28187  1.0000
  C   C1810     1.0  0.90207  0.46762  0.39309  1.0000
  S   S232      1.0  0.96476  0.28745  0.29062  1.0000
  C   C1811     1.0  0.61894  0.18310  0.37611  1.0000
  C   C1812     1.0  0.58538  0.17510  0.37771  1.0000
  H   H1434     1.0  0.61563  0.38310  0.22322  1.0000
  H   H1435     1.0  0.80718  0.44463  0.39559  1.0000
  C   C1813     1.0  0.81873  0.31395  0.43239  1.0000
  C   C1814     1.0  0.67036  0.39541  0.29907  1.0000
  S   S233      1.0  0.81124  0.23520  0.45235  1.0000
  C   C1815     1.0  0.77343  0.06580  0.34405  1.0000
  H   H1436     1.0  0.97571  0.17580  0.35222  1.0000
  H   H1437     1.0  0.73995  0.34467  0.42598  1.0000
  P   P63       1.0  0.56272  0.15948  0.42347  1.0000
  C   C1816     1.0  0.87417  0.46652  0.35406  1.0000
  C   C1817     1.0  0.93669  0.01289  0.25734  1.0000
  H   H1438     1.0  0.75192  0.06699  0.40742  1.0000
  C   C1818     1.0  0.92057  0.44595  0.40230  1.0000
  C   C1819     1.0  0.64010  0.39368  0.22095  1.0000
  H   H1439     1.0  0.99775  0.38460  0.34499  1.0000
  H   H1440     1.0  0.53825  0.36623  0.27385  1.0000
  C   C1820     1.0  0.99574  0.22829  0.28662  1.0000
  C   C1821     1.0  0.74617  0.11458  0.39498  1.0000
  C   C1822     1.0  0.96579  0.49736  0.25912  1.0000
  C   C1823     1.0  0.96374  0.47876  0.23442  1.0000
  H   H1441     1.0  0.92348  0.42079  0.42455  1.0000
  C   C1824     1.0  0.97007  0.46472  0.26524  1.0000
  H   H1442     1.0  0.54890  0.23895  0.23379  1.0000
  C   C1825     1.0  0.54512  0.17958  0.28344  1.0000
  H   H1443     1.0  0.97650  0.48604  0.35102  1.0000
  H   H1444     1.0  0.75414  0.02236  0.26019  1.0000
  H   H1445     1.0  0.67355  0.29167  0.46014  1.0000
  H   H1446     1.0  0.66093  0.12892  0.46355  1.0000
  C   C1826     1.0  0.52239  0.28636  0.33005  1.0000
  C   C1827     1.0  0.65972  0.01496  0.37347  1.0000
  C   C1828     1.0  0.73952  0.02732  0.33393  1.0000
  C   C1829     1.0  0.69270  0.01790  0.36692  1.0000
  H   H1447     1.0  0.99703  0.26803  0.23710  1.0000
  H   H1448     1.0  0.94381  0.01691  0.24530  1.0000
  S   S234      1.0  0.52167  0.37862  0.36223  1.0000
  C   C1830     1.0  0.76603  0.02052  0.32331  1.0000
  H   H1449     1.0  0.85758  0.49799  0.39261  1.0000
  H   H1450     1.0  0.52801  0.17874  0.45160  1.0000
  C   C1831     1.0  0.52297  0.23471  0.27766  1.0000
  H   H1451     1.0  0.99539  0.14673  0.25071  1.0000
  C   C1832     1.0  0.99566  0.17337  0.24819  1.0000
  H   H1452     1.0  0.95242  0.50711  0.39791  1.0000
  H   H1453     1.0  0.90342  0.39885  0.21963  1.0000
  H   H1454     1.0  0.53285  0.42632  0.22011  1.0000
  C   C1833     1.0  0.52516  0.45204  0.21830  1.0000
  H   H1455     1.0  0.81356  0.51043  0.33720  1.0000
  C   C1834     1.0  0.52700  0.06886  0.41811  1.0000
  C   C1835     1.0  0.51555  0.16610  0.28050  1.0000
  C   C1836     1.0  0.83305  0.50474  0.34443  1.0000
  H   H1456     1.0  0.51658  0.38510  0.29872  1.0000
  H   H1457     1.0  0.51387  0.27094  0.41181  1.0000
  H   H1458     1.0  0.66410  0.20835  0.21565  1.0000
  C   C1837     1.0  0.70340  0.42142  0.21522  1.0000
  C   C1838     1.0  0.58637  0.24142  0.21473  1.0000
  H   H1459     1.0  0.51278  0.13953  0.28156  1.0000
  Fe  Fe120     1.0  0.87552  0.08800  0.67994  1.0000
  S   S235      1.0  0.87966  0.11606  0.65698  1.0000
  C   C1839     1.0  0.99972  0.06097  0.66252  1.0000
  Fe  Fe121     1.0  0.84580  0.14721  0.69482  1.0000
  S   S236      1.0  0.84637  0.17964  0.67280  1.0000
  H   H1460     1.0  0.75583  0.18713  0.49668  1.0000
  Fe  Fe122     1.0  0.82819  0.13437  0.66363  1.0000
  S   S237      1.0  0.79038  0.13299  0.64664  1.0000
  Fe  Fe123     1.0  0.89765  0.15803  0.66812  1.0000
  S   S238      1.0  0.94285  0.18532  0.65629  1.0000
  S   S239      1.0  0.82337  0.10421  0.68607  1.0000
  S   S240      1.0  0.89804  0.12799  0.69064  1.0000
  C   C1840     1.0  0.00600  0.20166  0.58338  1.0000
  C   C1841     1.0  0.74350  0.19058  0.52053  1.0000
  H   H1461     1.0  0.68247  0.05812  0.46519  1.0000
  S   S241      1.0  0.67213  0.47632  0.57103  1.0000
  H   H1462     1.0  0.87838  0.37948  0.57922  1.0000
  C   C1842     1.0  0.79412  0.26841  0.56904  1.0000
  H   H1463     1.0  0.75533  0.25062  0.47408  1.0000
  C   C1843     1.0  0.86466  0.33681  0.59472  1.0000
  C   C1844     1.0  0.88345  0.20730  0.62465  1.0000
  C   C1845     1.0  0.88704  0.35679  0.58509  1.0000
  H   H1464     1.0  0.00399  0.29536  0.56160  1.0000
  C   C1846     1.0  0.87549  0.30715  0.60207  1.0000
  Fe  Fe124     1.0  0.90021  0.34250  0.53897  1.0000
  S   S242      1.0  0.89116  0.35214  0.51448  1.0000
  S   S243      1.0  0.94556  0.32190  0.54978  1.0000
  Fe  Fe125     1.0  0.83410  0.37593  0.55041  1.0000
  S   S244      1.0  0.82055  0.38803  0.52693  1.0000
  S   S245      1.0  0.80419  0.38836  0.57221  1.0000
  Fe  Fe126     1.0  0.83864  0.33683  0.52268  1.0000
  S   S246      1.0  0.80164  0.30694  0.51257  1.0000
  Fe  Fe127     1.0  0.87364  0.40229  0.52078  1.0000
  S   S247      1.0  0.88455  0.45127  0.50706  1.0000
  S   S248      1.0  0.84895  0.32368  0.54684  1.0000
  S   S249      1.0  0.88615  0.39381  0.54457  1.0000
  C   C1847     1.0  0.95264  0.28673  0.65418  1.0000
  C   C1848     1.0  0.91944  0.47007  0.51228  1.0000
  C   C1849     1.0  0.94321  0.45083  0.51943  1.0000
  C   C1850     1.0  0.97099  0.46572  0.52361  1.0000
  C   C1851     1.0  0.81009  0.20600  0.52066  1.0000
  H   H1465     1.0  0.94054  0.42431  0.52145  1.0000
  C   C1852     1.0  0.80789  0.25626  0.46879  1.0000
  H   H1466     1.0  0.79453  0.45940  0.52139  1.0000
  C   C1853     1.0  0.78175  0.29935  0.57259  1.0000
  C   C1854     1.0  0.88874  0.22956  0.61157  1.0000
  C   C1855     1.0  0.84353  0.20465  0.60134  1.0000
  H   H1467     1.0  0.85591  0.45076  0.56720  1.0000
  C   C1856     1.0  0.83670  0.26845  0.47349  1.0000
  C   C1857     1.0  0.85530  0.47530  0.54473  1.0000
  H   H1468     1.0  0.82917  0.42579  0.49389  1.0000
  H   H1469     1.0  0.98597  0.27568  0.61862  1.0000
  C   C1858     1.0  0.00522  0.26845  0.52146  1.0000
  C   C1859     1.0  0.91014  0.27214  0.63922  1.0000
  C   C1860     1.0  0.70835  0.45126  0.57189  1.0000
  C   C1861     1.0  0.72113  0.44070  0.58549  1.0000
  C   C1862     1.0  0.75018  0.42096  0.58546  1.0000
  C   C1863     1.0  0.76677  0.41174  0.57187  1.0000
  C   C1864     1.0  0.75382  0.42213  0.55832  1.0000
  C   C1865     1.0  0.72475  0.44167  0.55835  1.0000
  H   H1470     1.0  0.70850  0.44751  0.59600  1.0000
  H   H1471     1.0  0.75996  0.41297  0.59601  1.0000
  H   H1472     1.0  0.76628  0.41534  0.54779  1.0000
  H   H1473     1.0  0.71497  0.44947  0.54778  1.0000
  H   H1474     1.0  0.87957  0.46621  0.54070  1.0000
  C   C1866     1.0  0.97857  0.29846  0.54162  1.0000
  C   C1867     1.0  0.97930  0.28893  0.52706  1.0000
  C   C1868     1.0  0.68818  0.50425  0.70748  1.0000
  H   H1475     1.0  0.95972  0.29684  0.52021  1.0000
  C   C1869     1.0  0.76144  0.10059  0.64769  1.0000
  C   C1870     1.0  0.74086  0.09956  0.63611  1.0000
  C   C1871     1.0  0.71640  0.07513  0.63708  1.0000
  C   C1872     1.0  0.71207  0.05180  0.64976  1.0000
  C   C1873     1.0  0.73305  0.05254  0.66115  1.0000
  C   C1874     1.0  0.75783  0.07648  0.66005  1.0000
  H   H1476     1.0  0.74341  0.11815  0.62651  1.0000
  H   H1477     1.0  0.70025  0.07507  0.62829  1.0000
  C   C1875     1.0  0.99914  0.36974  0.61032  1.0000
  H   H1478     1.0  0.77351  0.07686  0.66897  1.0000
  C   C1876     1.0  0.98487  0.22266  0.57539  1.0000
  C   C1877     1.0  0.95431  0.21633  0.68113  1.0000
  H   H1479     1.0  0.92878  0.21121  0.68536  1.0000
  H   H1480     1.0  0.71767  0.18483  0.52042  1.0000
  H   H1481     1.0  0.71008  0.04782  0.58113  1.0000
  H   H1482     1.0  0.75278  0.27818  0.49765  1.0000
  H   H1483     1.0  0.61419  0.46614  0.70817  1.0000
  C   C1878     1.0  0.83353  0.05256  0.63396  1.0000
  C   C1879     1.0  0.80520  0.50651  0.53982  1.0000
  H   H1484     1.0  0.94171  0.23580  0.54695  1.0000
  P   P64       1.0  0.80260  0.21564  0.55151  1.0000
  H   H1485     1.0  0.84735  0.50054  0.52321  1.0000
  H   H1486     1.0  0.71402  0.43698  0.49738  1.0000
  H   H1487     1.0  0.86026  0.26537  0.46685  1.0000
  C   C1880     1.0  0.64930  0.04902  0.48568  1.0000
  H   H1488     1.0  0.57596  0.02066  0.69141  1.0000
  C   C1881     1.0  0.85757  0.18481  0.62626  1.0000
  H   H1489     1.0  0.61850  0.03301  0.50599  1.0000
  H   H1490     1.0  0.84042  0.36668  0.49058  1.0000
  H   H1491     1.0  0.95708  0.31029  0.58813  1.0000
  H   H1492     1.0  0.89920  0.20721  0.63363  1.0000
  C   C1882     1.0  0.84213  0.46686  0.55965  1.0000
  H   H1493     1.0  0.81471  0.20065  0.49683  1.0000
  C   C1883     1.0  0.79193  0.49754  0.55477  1.0000
  H   H1494     1.0  0.87035  0.05287  0.64950  1.0000
  H   H1495     1.0  0.79877  0.09938  0.57387  1.0000
  C   C1884     1.0  0.89571  0.25100  0.53847  1.0000
  C   C1885     1.0  0.79040  0.12443  0.57532  1.0000
  H   H1496     1.0  0.85767  0.29345  0.49031  1.0000
  C   C1886     1.0  0.84695  0.22066  0.54992  1.0000
  C   C1887     1.0  0.97641  0.28516  0.64175  1.0000
  C   C1888     1.0  0.76060  0.50029  0.51669  1.0000
  H   H1497     1.0  0.75900  0.21365  0.58057  1.0000
  H   H1498     1.0  0.87389  0.24333  0.58923  1.0000
  C   C1889     1.0  0.76091  0.31741  0.56327  1.0000
  C   C1890     1.0  0.82776  0.38219  0.48236  1.0000
  C   C1891     1.0  0.90874  0.29683  0.59954  1.0000
  C   C1892     1.0  0.86680  0.20138  0.55946  1.0000
  H   H1499     1.0  0.51988  0.41103  0.61317  1.0000
  H   H1500     1.0  0.85624  0.18234  0.56781  1.0000
  H   H1501     1.0  0.74334  0.16823  0.60027  1.0000
  H   H1502     1.0  0.91617  0.19188  0.56573  1.0000
  H   H1503     1.0  0.81108  0.25523  0.57610  1.0000
  C   C1893     1.0  0.83697  0.49500  0.53485  1.0000
  H   H1504     1.0  0.90680  0.27052  0.53046  1.0000
  C   C1894     1.0  0.78858  0.20550  0.53411  1.0000
  H   H1505     1.0  0.76308  0.11104  0.59708  1.0000
  C   C1895     1.0  0.90089  0.20681  0.55839  1.0000
  C   C1896     1.0  0.78523  0.25503  0.55626  1.0000
  H   H1506     1.0  0.73727  0.31909  0.54288  1.0000
  H   H1507     1.0  0.83279  0.07923  0.63151  1.0000
  C   C1897     1.0  0.76446  0.27351  0.54691  1.0000
  C   C1898     1.0  0.96000  0.24079  0.58310  1.0000
  H   H1508     1.0  0.83593  0.21181  0.52028  1.0000
  C   C1899     1.0  0.76495  0.19175  0.50717  1.0000
  H   H1509     1.0  0.78912  0.31000  0.58226  1.0000
  H   H1510     1.0  0.75838  0.26479  0.53658  1.0000
  C   C1900     1.0  0.96716  0.27685  0.62809  1.0000
  C   C1901     1.0  0.83531  0.28436  0.48678  1.0000
  C   C1902     1.0  0.97333  0.38633  0.60346  1.0000
  H   H1511     1.0  0.76091  0.03907  0.69499  1.0000
  C   C1903     1.0  0.77760  0.26015  0.47750  1.0000
  H   H1512     1.0  0.76472  0.41969  0.50925  1.0000
  H   H1513     1.0  0.96328  0.24286  0.69984  1.0000
  H   H1514     1.0  0.97272  0.21134  0.61915  1.0000
  C   C1904     1.0  0.77625  0.27578  0.49085  1.0000
  C   C1905     1.0  0.96748  0.20601  0.66729  1.0000
  H   H1515     1.0  0.99549  0.38114  0.66383  1.0000
  C   C1906     1.0  0.76839  0.18903  0.57899  1.0000
  H   H1516     1.0  0.56473  0.08287  0.64156  1.0000
  C   C1907     1.0  0.86168  0.24570  0.53953  1.0000
  H   H1517     1.0  0.67203  0.42038  0.70899  1.0000
  H   H1518     1.0  0.93751  0.36266  0.57526  1.0000
  C   C1908     1.0  0.78928  0.18277  0.56598  1.0000
  H   H1519     1.0  0.98842  0.40465  0.55190  1.0000
  C   C1909     1.0  0.67081  0.03954  0.47356  1.0000
  C   C1910     1.0  0.93407  0.26946  0.62682  1.0000
  C   C1911     1.0  0.69669  0.07894  0.70262  1.0000
  C   C1912     1.0  0.71222  0.10110  0.69118  1.0000
  C   C1913     1.0  0.73909  0.11930  0.69398  1.0000
  C   C1914     1.0  0.00173  0.19798  0.59914  1.0000
  C   C1915     1.0  0.80502  0.28803  0.49553  1.0000
  C   C1916     1.0  0.93127  0.31742  0.59012  1.0000
  C   C1917     1.0  0.97390  0.23426  0.68932  1.0000
  H   H1520     1.0  0.98887  0.03743  0.66140  1.0000
  C   C1918     1.0  0.86926  0.22738  0.59971  1.0000
  H   H1521     1.0  0.81305  0.22040  0.70226  1.0000
  H   H1522     1.0  0.85300  0.16828  0.63652  1.0000
  C   C1919     1.0  0.75242  0.30456  0.55041  1.0000
  H   H1523     1.0  0.75206  0.34177  0.56580  1.0000
  C   C1920     1.0  0.79975  0.15018  0.56413  1.0000
  H   H1524     1.0  0.99356  0.34826  0.61836  1.0000
  H   H1525     1.0  0.94366  0.25670  0.57667  1.0000
  H   H1526     1.0  0.76697  0.50453  0.55877  1.0000
  H   H1527     1.0  0.82825  0.20334  0.59231  1.0000
  C   C1921     1.0  0.75575  0.44500  0.50929  1.0000
  H   H1528     1.0  0.67602  0.06467  0.70034  1.0000
  H   H1529     1.0  0.70364  0.10403  0.68007  1.0000
  H   H1530     1.0  0.75137  0.13623  0.68502  1.0000
  C   C1922     1.0  0.75525  0.19734  0.53396  1.0000
  C   C1923     1.0  0.95602  0.23773  0.59895  1.0000
  C   C1924     1.0  0.92035  0.34729  0.58292  1.0000
  C   C1925     1.0  0.79822  0.19930  0.50727  1.0000
  C   C1926     1.0  0.91951  0.28039  0.65289  1.0000
  H   H1531     1.0  0.00027  0.35171  0.56668  1.0000
  C   C1927     1.0  0.63463  0.02505  0.49661  1.0000
  C   C1928     1.0  0.72715  0.45474  0.50260  1.0000
  H   H1532     1.0  0.84674  0.26130  0.53225  1.0000
  C   C1929     1.0  0.71530  0.48722  0.50284  1.0000
  C   C1930     1.0  0.75920  0.16324  0.59019  1.0000
  H   H1533     1.0  0.81536  0.14476  0.55405  1.0000
  S   S250      1.0  0.61078  0.48698  0.61114  1.0000
  C   C1931     1.0  0.77028  0.13098  0.58839  1.0000
  C   C1932     1.0  0.77255  0.46767  0.51623  1.0000
  H   H1534     1.0  0.85780  0.29225  0.60967  1.0000
  C   C1933     1.0  0.91533  0.23154  0.54785  1.0000
  H   H1535     1.0  0.73822  0.19682  0.54417  1.0000
  H   H1536     1.0  0.83883  0.34433  0.59635  1.0000
  H   H1537     1.0  0.95983  0.42721  0.58788  1.0000
  S   S251      1.0  0.67984  0.02239  0.65266  1.0000
  H   H1538     1.0  0.75755  0.33912  0.47287  1.0000
  C   C1934     1.0  0.97651  0.21553  0.60691  1.0000
  S   S252      1.0  0.52528  0.02260  0.62991  1.0000
  H   H1539     1.0  0.62013  0.49120  0.68165  1.0000
  P   P65       1.0  0.92230  0.25848  0.60916  1.0000
  C   C1935     1.0  0.80407  0.43510  0.47388  1.0000
  C   C1936     1.0  0.82116  0.41539  0.48428  1.0000
  H   H1540     1.0  0.81741  0.16609  0.61607  1.0000
  C   C1937     1.0  0.81783  0.36881  0.46989  1.0000
  H   H1541     1.0  0.90119  0.28114  0.66261  1.0000
  H   H1542     1.0  0.88436  0.26731  0.63845  1.0000
  C   C1938     1.0  0.85442  0.03792  0.64421  1.0000
  H   H1543     1.0  0.98770  0.22460  0.56317  1.0000
  H   H1544     1.0  0.64416  0.07499  0.48664  1.0000
  C   C1939     1.0  0.83750  0.18357  0.61467  1.0000
  C   C1940     1.0  0.60087  0.04961  0.67224  1.0000
  H   H1545     1.0  0.94819  0.37758  0.60618  1.0000
  C   C1941     1.0  0.81056  0.47812  0.56466  1.0000
  C   C1942     1.0  0.71461  0.31460  0.46812  1.0000
  H   H1546     1.0  0.79993  0.47041  0.57606  1.0000
  C   C1943     1.0  0.63566  0.48097  0.70397  1.0000
  Fe  Fe128     1.0  0.63880  0.50281  0.58835  1.0000
  C   C1944     1.0  0.00060  0.21306  0.66188  1.0000
  C   C1945     1.0  0.71266  0.02606  0.60394  1.0000
  H   H1547     1.0  0.95315  0.08313  0.67034  1.0000
  H   H1548     1.0  0.70776  0.30551  0.47983  1.0000
  H   H1549     1.0  0.79737  0.04471  0.61912  1.0000
  C   C1946     1.0  0.92337  0.50443  0.50953  1.0000
  C   C1947     1.0  0.97960  0.08658  0.66773  1.0000
  H   H1550     1.0  0.69576  0.36394  0.70990  1.0000
  H   H1551     1.0  0.97822  0.13587  0.67438  1.0000
  H   H1552     1.0  0.69289  0.49468  0.49781  1.0000
  C   C1948     1.0  0.59786  0.06712  0.65817  1.0000
  C   C1949     1.0  0.72529  0.03406  0.58889  1.0000
  H   H1553     1.0  0.96005  0.29214  0.66490  1.0000
  H   H1554     1.0  0.61975  0.07688  0.65125  1.0000
  C   C1950     1.0  0.97504  0.50000  0.52093  1.0000
  H   H1555     1.0  0.00532  0.26047  0.51033  1.0000
  C   C1951     1.0  0.56691  0.07063  0.65276  1.0000
  H   H1556     1.0  0.98955  0.45051  0.52881  1.0000
  C   C1952     1.0  0.81345  0.03284  0.62698  1.0000
  H   H1557     1.0  0.82310  0.34299  0.46857  1.0000
  C   C1953     1.0  0.75042  0.11546  0.70825  1.0000
  H   H1558     1.0  0.79369  0.49742  0.60420  1.0000
  C   C1954     1.0  0.99371  0.11639  0.66991  1.0000
  H   H1559     1.0  0.79877  0.46076  0.47553  1.0000
  C   C1955     1.0  0.00445  0.28839  0.55029  1.0000
  H   H1560     1.0  0.93399  0.05864  0.69758  1.0000
  H   H1561     1.0  0.98202  0.03028  0.70863  1.0000
  C   C1956     1.0  0.97983  0.41441  0.59324  1.0000
  C   C1957     1.0  0.53894  0.05665  0.66138  1.0000
  H   H1562     1.0  0.68792  0.03405  0.60787  1.0000
  H   H1563     1.0  0.72984  0.03460  0.67097  1.0000
  C   C1958     1.0  0.00707  0.24119  0.68399  1.0000
  H   H1564     1.0  0.81069  0.02801  0.67756  1.0000
  C   C1959     1.0  0.63894  0.49500  0.68894  1.0000
  C   C1960     1.0  0.93768  0.03231  0.69730  1.0000
  S   S253      1.0  0.88213  0.03279  0.68213  1.0000
  H   H1565     1.0  0.73665  0.50245  0.59675  1.0000
  H   H1566     1.0  0.77141  0.12967  0.71020  1.0000
  S   S254      1.0  0.51436  0.48757  0.60787  1.0000
  H   H1567     1.0  0.62514  0.04583  0.67610  1.0000
  H   H1568     1.0  0.53415  0.06681  0.70282  1.0000
  C   C1961     1.0  0.54170  0.03912  0.67555  1.0000
  H   H1569     1.0  0.01094  0.20515  0.65118  1.0000
  C   C1962     1.0  0.57297  0.03544  0.68085  1.0000
  H   H1570     1.0  0.76704  0.02998  0.57214  1.0000
  H   H1571     1.0  0.55154  0.01459  0.55939  1.0000
  C   C1963     1.0  0.75733  0.02399  0.58385  1.0000
  H   H1572     1.0  0.52960  0.01833  0.53447  1.0000
  H   H1573     1.0  0.51567  0.05820  0.65655  1.0000
  S   S255      1.0  0.61989  0.01604  0.61771  1.0000
  H   H1574     1.0  0.96070  0.17589  0.71192  1.0000
  H   H1575     1.0  0.85528  0.04936  0.71300  1.0000
  C   C1964     1.0  0.51701  0.05148  0.71049  1.0000
  C   C1965     1.0  0.77040  0.01401  0.69462  1.0000
  C   C1966     1.0  0.91575  0.01415  0.69056  1.0000
  C   C1967     1.0  0.96475  0.01625  0.70358  1.0000
  H   H1576     1.0  0.78783  0.27195  0.71145  1.0000
  H   H1577     1.0  0.00212  0.28952  0.64288  1.0000
  C   C1968     1.0  0.73192  0.50992  0.50985  1.0000
  C   C1969     1.0  0.66014  0.48573  0.71341  1.0000
  C   C1970     1.0  0.74300  0.33367  0.46408  1.0000
  C   C1971     1.0  0.54108  0.41633  0.79769  1.0000
  S   S256      1.0  0.53398  0.19019  0.80359  1.0000
  C   C1972     1.0  0.51361  0.30440  0.90518  1.0000
  H   H1578     1.0  0.53847  0.26387  0.91675  1.0000
  Fe  Fe129     1.0  0.70997  0.24882  0.79286  1.0000
  S   S257      1.0  0.71041  0.28927  0.80780  1.0000
  S   S258      1.0  0.68883  0.19973  0.80247  1.0000
  Fe  Fe130     1.0  0.74915  0.28809  0.76632  1.0000
  S   S259      1.0  0.75330  0.33212  0.77922  1.0000
  S   S260      1.0  0.76579  0.28940  0.74133  1.0000
  Fe  Fe131     1.0  0.76388  0.29395  0.79844  1.0000
  S   S261      1.0  0.80140  0.29816  0.81499  1.0000
  Fe  Fe132     1.0  0.69960  0.32360  0.78750  1.0000
  S   S262      1.0  0.65553  0.35914  0.78691  1.0000
  S   S263      1.0  0.76399  0.25101  0.78482  1.0000
  S   S264      1.0  0.69489  0.28209  0.77324  1.0000
  Fe  Fe133     1.0  0.68281  0.28749  0.93457  1.0000
  S   S265      1.0  0.64748  0.32864  0.92825  1.0000
  Fe  Fe134     1.0  0.72743  0.30091  0.90550  1.0000
  S   S266      1.0  0.69611  0.34342  0.89703  1.0000
  S   S267      1.0  0.77107  0.28837  0.88943  1.0000
  Fe  Fe135     1.0  0.69348  0.35834  0.92045  1.0000
  S   S268      1.0  0.69452  0.41133  0.92627  1.0000
  Fe  Fe136     1.0  0.65314  0.30997  0.90532  1.0000
  S   S269      1.0  0.61236  0.30916  0.88976  1.0000
  S   S270      1.0  0.72843  0.31837  0.92832  1.0000
  S   S271      1.0  0.68495  0.26643  0.91228  1.0000
  Fe  Fe137     1.0  0.92060  0.17316  0.85524  1.0000
  S   S272      1.0  0.91183  0.13237  0.87423  1.0000
  S   S273      1.0  0.89177  0.17487  0.83478  1.0000
  Fe  Fe138     1.0  0.97428  0.20577  0.87040  1.0000
  S   S274      1.0  0.96856  0.16805  0.89074  1.0000
  Fe  Fe139     1.0  0.96727  0.12995  0.87412  1.0000
  H   H1579     1.0  0.53007  0.02987  0.84942  1.0000
  Fe  Fe140     1.0  0.91369  0.17320  0.88911  1.0000
  S   S275      1.0  0.87492  0.17892  0.90893  1.0000
  S   S276      1.0  0.97614  0.16783  0.85374  1.0000
  S   S277      1.0  0.91953  0.21385  0.87014  1.0000
  H   H1580     1.0  0.83240  0.26919  0.95543  1.0000
  C   C1973     1.0  0.76194  0.16851  0.94472  1.0000
  C   C1974     1.0  0.94714  0.47534  0.92440  1.0000
  C   C1975     1.0  0.97950  0.46638  0.92723  1.0000
  C   C1976     1.0  0.89106  0.32476  0.95989  1.0000
  H   H1581     1.0  0.93569  0.46394  0.91595  1.0000
  H   H1582     1.0  0.80944  0.17600  0.74807  1.0000
  C   C1977     1.0  0.79664  0.25521  0.89524  1.0000
  C   C1978     1.0  0.81712  0.24029  0.88423  1.0000
  C   C1979     1.0  0.83947  0.21521  0.88845  1.0000
  C   C1980     1.0  0.84267  0.20592  0.90368  1.0000
  C   C1981     1.0  0.82108  0.21974  0.91474  1.0000
  C   C1982     1.0  0.79784  0.24427  0.91052  1.0000
  H   H1583     1.0  0.81577  0.24817  0.87239  1.0000
  H   H1584     1.0  0.85437  0.20321  0.87985  1.0000
  H   H1585     1.0  0.82335  0.21251  0.92655  1.0000
  H   H1586     1.0  0.78184  0.25561  0.91905  1.0000
  C   C1983     1.0  0.72939  0.43704  0.92118  1.0000
  C   C1984     1.0  0.75800  0.42623  0.91283  1.0000
  C   C1985     1.0  0.78495  0.44766  0.90876  1.0000
  C   C1986     1.0  0.78374  0.47993  0.91304  1.0000
  C   C1987     1.0  0.75531  0.49056  0.92156  1.0000
  C   C1988     1.0  0.72826  0.46921  0.92558  1.0000
  H   H1587     1.0  0.75926  0.40148  0.90944  1.0000
  H   H1588     1.0  0.80692  0.43915  0.90233  1.0000
  C   C1989     1.0  0.69654  0.05361  0.84609  1.0000
  H   H1589     1.0  0.70621  0.47779  0.93202  1.0000
  C   C1990     1.0  0.95926  0.03016  0.87981  1.0000
  C   C1991     1.0  0.99185  0.04137  0.87816  1.0000
  H   H1590     1.0  0.97898  0.40260  0.89395  1.0000
  H   H1591     1.0  0.93899  0.04786  0.87954  1.0000
  H   H1592     1.0  0.80489  0.11347  0.79146  1.0000
  C   C1992     1.0  0.79075  0.22594  0.74521  1.0000
  H   H1593     1.0  0.78442  0.22712  0.75711  1.0000
  C   C1993     1.0  0.82316  0.26199  0.82135  1.0000
  C   C1994     1.0  0.83640  0.25996  0.83524  1.0000
  C   C1995     1.0  0.85675  0.23299  0.83973  1.0000
  C   C1996     1.0  0.86419  0.20793  0.83031  1.0000
  C   C1997     1.0  0.84988  0.20936  0.81671  1.0000
  C   C1998     1.0  0.82936  0.23615  0.81230  1.0000
  H   H1594     1.0  0.83160  0.27965  0.84243  1.0000
  H   H1595     1.0  0.86720  0.23205  0.85033  1.0000
  H   H1596     1.0  0.85510  0.18988  0.80947  1.0000
  H   H1597     1.0  0.81931  0.23732  0.80165  1.0000
  C   C1999     1.0  0.65564  0.40203  0.78855  1.0000
  C   C2000     1.0  0.68183  0.41737  0.79381  1.0000
  C   C2001     1.0  0.67912  0.45097  0.79632  1.0000
  C   C2002     1.0  0.65069  0.46964  0.79318  1.0000
  C   C2003     1.0  0.62533  0.45467  0.78714  1.0000
  C   C2004     1.0  0.62773  0.42095  0.78500  1.0000
  H   H1598     1.0  0.70369  0.40317  0.79640  1.0000
  H   H1599     1.0  0.69887  0.46240  0.80097  1.0000
  H   H1600     1.0  0.60345  0.46875  0.78454  1.0000
  H   H1601     1.0  0.60771  0.40932  0.78068  1.0000
  C   C2005     1.0  0.57670  0.19407  0.80392  1.0000
  C   C2006     1.0  0.59417  0.21723  0.79351  1.0000
  C   C2007     1.0  0.62859  0.21974  0.79323  1.0000
  C   C2008     1.0  0.64566  0.19837  0.80304  1.0000
  C   C2009     1.0  0.62823  0.17505  0.81330  1.0000
  C   C2010     1.0  0.59369  0.17327  0.81397  1.0000
  H   H1602     1.0  0.58107  0.23319  0.78565  1.0000
  H   H1603     1.0  0.64196  0.23748  0.78514  1.0000
  H   H1604     1.0  0.64157  0.15873  0.82085  1.0000
  H   H1605     1.0  0.58036  0.15524  0.82197  1.0000
  C   C2011     1.0  0.55843  0.21519  0.88215  1.0000
  C   C2012     1.0  0.55786  0.24371  0.87205  1.0000
  C   C2013     1.0  0.57485  0.27198  0.87447  1.0000
  C   C2014     1.0  0.59333  0.27197  0.88679  1.0000
  C   C2015     1.0  0.59464  0.24314  0.89675  1.0000
  C   C2016     1.0  0.57702  0.21495  0.89449  1.0000
  C   C2017     1.0  0.91581  0.17481  0.72720  1.0000
  C   C2018     1.0  0.54686  0.46693  0.75244  1.0000
  H   H1606     1.0  0.60854  0.24279  0.90638  1.0000
  H   H1607     1.0  0.57759  0.19299  0.90241  1.0000
  H   H1608     1.0  0.88991  0.07181  0.73046  1.0000
  C   C2019     1.0  0.70287  0.08743  0.84503  1.0000
  C   C2020     1.0  0.52602  0.31472  0.83161  1.0000
  C   C2021     1.0  0.69138  0.37607  0.72014  1.0000
  C   C2022     1.0  0.63019  0.33643  0.84612  1.0000
  C   C2023     1.0  0.96708  0.25635  0.78860  1.0000
  C   C2024     1.0  0.73473  0.09362  0.71990  1.0000
  C   C2025     1.0  0.90260  0.38263  0.93927  1.0000
  C   C2026     1.0  0.79409  0.08315  0.73615  1.0000
  C   C2027     1.0  0.51727  0.28057  0.91734  1.0000
  C   C2028     1.0  0.54373  0.48055  0.83188  1.0000
  C   C2029     1.0  0.76142  0.18714  0.82487  1.0000
  C   C2030     1.0  0.78176  0.16230  0.83101  1.0000
  C   C2031     1.0  0.77687  0.15162  0.84643  1.0000
  C   C2032     1.0  0.75194  0.16609  0.85575  1.0000
  C   C2033     1.0  0.73246  0.19222  0.84977  1.0000
  C   C2034     1.0  0.73690  0.20204  0.83419  1.0000
  P   P66       1.0  0.70263  0.21427  0.86164  1.0000
  C   C2035     1.0  0.70331  0.20161  0.88159  1.0000
  C   C2036     1.0  0.71272  0.25751  0.85948  1.0000
  C   C2037     1.0  0.68929  0.28038  0.86499  1.0000
  C   C2038     1.0  0.69638  0.31404  0.86320  1.0000
  C   C2039     1.0  0.72702  0.32512  0.85611  1.0000
  C   C2040     1.0  0.75078  0.30243  0.85093  1.0000
  C   C2041     1.0  0.74381  0.26869  0.85266  1.0000
  C   C2042     1.0  0.67387  0.19614  0.89130  1.0000
  C   C2043     1.0  0.67500  0.18613  0.90666  1.0000
  C   C2044     1.0  0.70545  0.18254  0.91255  1.0000
  C   C2045     1.0  0.73471  0.18953  0.90311  1.0000
  C   C2046     1.0  0.73361  0.19959  0.88777  1.0000
  C   C2047     1.0  0.66268  0.20917  0.85519  1.0000
  C   C2048     1.0  0.64362  0.18116  0.86044  1.0000
  C   C2049     1.0  0.61204  0.17834  0.85598  1.0000
  C   C2050     1.0  0.59974  0.20285  0.84588  1.0000
  C   C2051     1.0  0.61927  0.22989  0.83994  1.0000
  C   C2052     1.0  0.65071  0.23296  0.84452  1.0000
  H   H1609     1.0  0.76514  0.19559  0.81294  1.0000
  H   H1610     1.0  0.80173  0.15178  0.82390  1.0000
  H   H1611     1.0  0.79303  0.13271  0.85121  1.0000
  H   H1612     1.0  0.74858  0.15718  0.86760  1.0000
  H   H1613     1.0  0.72196  0.22187  0.82927  1.0000
  H   H1614     1.0  0.66556  0.27218  0.87070  1.0000
  H   H1615     1.0  0.67811  0.33146  0.86747  1.0000
  H   H1616     1.0  0.73259  0.35118  0.85486  1.0000
  H   H1617     1.0  0.77485  0.31085  0.84573  1.0000
  H   H1618     1.0  0.76294  0.25162  0.84880  1.0000
  H   H1619     1.0  0.64997  0.20043  0.88722  1.0000
  H   H1620     1.0  0.65222  0.18217  0.91410  1.0000
  H   H1621     1.0  0.70622  0.17541  0.92451  1.0000
  H   H1622     1.0  0.75835  0.18779  0.90764  1.0000
  H   H1623     1.0  0.75646  0.20605  0.88074  1.0000
  H   H1624     1.0  0.65287  0.16182  0.86821  1.0000
  H   H1625     1.0  0.59667  0.15754  0.86057  1.0000
  H   H1626     1.0  0.57514  0.20071  0.84255  1.0000
  H   H1627     1.0  0.61011  0.24829  0.83172  1.0000
  H   H1628     1.0  0.66572  0.25379  0.83967  1.0000
  C   C2053     1.0  0.73892  0.12514  0.74823  1.0000
  C   C2054     1.0  0.78426  0.25299  0.73496  1.0000
  H   H1629     1.0  0.79469  0.05674  0.71637  1.0000
  C   C2055     1.0  0.80501  0.19698  0.74003  1.0000
  C   C2056     1.0  0.57016  0.45829  0.85380  1.0000
  C   C2057     1.0  0.94991  0.20647  0.80435  1.0000
  C   C2058     1.0  0.61571  0.32509  0.75467  1.0000
  C   C2059     1.0  0.95253  0.29104  0.93908  1.0000
  C   C2060     1.0  0.94541  0.24970  0.77826  1.0000
  C   C2061     1.0  0.92587  0.22123  0.78084  1.0000
  C   C2062     1.0  0.92817  0.19974  0.79405  1.0000
  P   P67       1.0  0.89706  0.21404  0.76754  1.0000
  C   C2063     1.0  0.87491  0.25248  0.76380  1.0000
  C   C2064     1.0  0.91795  0.20124  0.75017  1.0000
  C   C2065     1.0  0.90036  0.18405  0.74088  1.0000
  C   C2066     1.0  0.69859  0.05580  0.75678  1.0000
  C   C2067     1.0  0.86639  0.26297  0.74929  1.0000
  C   C2068     1.0  0.84806  0.29215  0.74676  1.0000
  C   C2069     1.0  0.83756  0.31067  0.75871  1.0000
  C   C2070     1.0  0.84595  0.30038  0.77319  1.0000
  C   C2071     1.0  0.86478  0.27154  0.77571  1.0000
  C   C2072     1.0  0.86773  0.18231  0.77526  1.0000
  C   C2073     1.0  0.83395  0.18996  0.77834  1.0000
  C   C2074     1.0  0.81140  0.16521  0.78413  1.0000
  C   C2075     1.0  0.82235  0.13255  0.78682  1.0000
  C   C2076     1.0  0.85586  0.12458  0.78357  1.0000
  C   C2077     1.0  0.87844  0.14931  0.77769  1.0000
  H   H1630     1.0  0.95129  0.18994  0.81460  1.0000
  S   S278      1.0  0.00050  0.43628  0.91695  1.0000
  H   H1631     1.0  0.68927  0.35819  0.81715  1.0000
  H   H1632     1.0  0.90341  0.01107  0.75161  1.0000
  H   H1633     1.0  0.91288  0.17815  0.79675  1.0000
  H   H1634     1.0  0.87449  0.17826  0.74401  1.0000
  H   H1635     1.0  0.54414  0.24399  0.86239  1.0000
  H   H1636     1.0  0.87320  0.24851  0.73994  1.0000
  H   H1637     1.0  0.71650  0.03588  0.84770  1.0000
  H   H1638     1.0  0.82237  0.33263  0.75676  1.0000
  H   H1639     1.0  0.83741  0.31441  0.78254  1.0000
  H   H1640     1.0  0.87084  0.26379  0.78703  1.0000
  H   H1641     1.0  0.82487  0.21498  0.77627  1.0000
  H   H1642     1.0  0.78544  0.17154  0.78656  1.0000
  H   H1643     1.0  0.90435  0.14285  0.77519  1.0000
  H   H1644     1.0  0.00194  0.33712  0.90383  1.0000
  S   S279      1.0  0.00341  0.25385  0.86592  1.0000
  H   H1645     1.0  0.61940  0.29593  0.77592  1.0000
  P   P68       1.0  0.59767  0.05271  0.84008  1.0000
  C   C2078     1.0  0.56716  0.06200  0.85544  1.0000
  C   C2079     1.0  0.63869  0.06557  0.84286  1.0000
  C   C2080     1.0  0.64537  0.09948  0.84178  1.0000
  C   C2081     1.0  0.67732  0.11036  0.84277  1.0000
  H   H1646     1.0  0.52308  0.49339  0.82701  1.0000
  H   H1647     1.0  0.72762  0.09593  0.84580  1.0000
  H   H1648     1.0  0.53559  0.07964  0.82938  1.0000
  H   H1649     1.0  0.52305  0.11158  0.80580  1.0000
  C   C2082     1.0  0.98789  0.32422  0.91358  1.0000
  H   H1650     1.0  0.78658  0.12127  0.94376  1.0000
  C   C2083     1.0  0.54966  0.09124  0.87733  1.0000
  C   C2084     1.0  0.57393  0.08388  0.86578  1.0000
  C   C2085     1.0  0.58800  0.07511  0.82252  1.0000
  H   H1651     1.0  0.54662  0.36573  0.74428  1.0000
  C   C2086     1.0  0.97268  0.39028  0.95485  1.0000
  C   C2087     1.0  0.73254  0.15591  0.74031  1.0000
  H   H1652     1.0  0.62580  0.11752  0.83994  1.0000
  H   H1653     1.0  0.77199  0.01987  0.74448  1.0000
  H   H1654     1.0  0.75851  0.49222  0.75387  1.0000
  H   H1655     1.0  0.68241  0.13662  0.84158  1.0000
  C   C2088     1.0  0.79262  0.25102  0.71945  1.0000
  C   C2089     1.0  0.52038  0.14818  0.92432  1.0000
  H   H1656     1.0  0.60121  0.17860  0.94446  1.0000
  C   C2090     1.0  0.84367  0.06169  0.72242  1.0000
  H   H1657     1.0  0.96657  0.40598  0.94500  1.0000
  C   C2091     1.0  0.61323  0.08275  0.81068  1.0000
  C   C2092     1.0  0.59875  0.45059  0.84444  1.0000
  H   H1658     1.0  0.64053  0.22504  0.93851  1.0000
  C   C2093     1.0  0.54815  0.10293  0.80705  1.0000
  H   H1659     1.0  0.67717  0.41907  0.75694  1.0000
  C   C2094     1.0  0.92590  0.27953  0.83559  1.0000
  C   C2095     1.0  0.90785  0.29361  0.82411  1.0000
  C   C2096     1.0  0.88811  0.32164  0.82631  1.0000
  C   C2097     1.0  0.88625  0.33546  0.84003  1.0000
  C   C2098     1.0  0.90375  0.32101  0.85180  1.0000
  C   C2099     1.0  0.92410  0.29330  0.84930  1.0000
  P   P69       1.0  0.90217  0.33973  0.86937  1.0000
  C   C2100     1.0  0.86480  0.36471  0.87137  1.0000
  C   C2101     1.0  0.90248  0.30876  0.88546  1.0000
  C   C2102     1.0  0.87504  0.30418  0.89647  1.0000
  C   C2103     1.0  0.87627  0.28044  0.90887  1.0000
  C   C2104     1.0  0.90432  0.26030  0.91016  1.0000
  C   C2105     1.0  0.93190  0.26516  0.89947  1.0000
  C   C2106     1.0  0.93142  0.29008  0.88752  1.0000
  C   C2107     1.0  0.86606  0.39847  0.87323  1.0000
  C   C2108     1.0  0.83681  0.41717  0.87507  1.0000
  C   C2109     1.0  0.80615  0.40230  0.87515  1.0000
  C   C2110     1.0  0.80474  0.36888  0.87305  1.0000
  C   C2111     1.0  0.83393  0.35024  0.87097  1.0000
  C   C2112     1.0  0.93874  0.36387  0.86952  1.0000
  C   C2113     1.0  0.94514  0.37605  0.88297  1.0000
  H   H1660     1.0  0.94069  0.25736  0.83407  1.0000
  H   H1661     1.0  0.90829  0.28214  0.81373  1.0000
  H   H1662     1.0  0.87334  0.33197  0.81756  1.0000
  H   H1663     1.0  0.87077  0.35716  0.84142  1.0000
  H   H1664     1.0  0.93856  0.28192  0.85784  1.0000
  H   H1665     1.0  0.85248  0.31849  0.89566  1.0000
  H   H1666     1.0  0.85490  0.27681  0.91717  1.0000
  H   H1667     1.0  0.90447  0.24053  0.91927  1.0000
  H   H1668     1.0  0.95365  0.24940  0.90031  1.0000
  H   H1669     1.0  0.95363  0.29443  0.87980  1.0000
  H   H1670     1.0  0.88944  0.41051  0.87330  1.0000
  H   H1671     1.0  0.83785  0.44316  0.87667  1.0000
  H   H1672     1.0  0.78347  0.41660  0.87700  1.0000
  H   H1673     1.0  0.78103  0.35706  0.87333  1.0000
  H   H1674     1.0  0.83231  0.32421  0.86949  1.0000
  H   H1675     1.0  0.92784  0.37186  0.89306  1.0000
  H   H1676     1.0  0.95781  0.35956  0.84622  1.0000
  C   C2114     1.0  0.55200  0.30484  0.82139  1.0000
  C   C2115     1.0  0.57838  0.32607  0.81638  1.0000
  C   C2116     1.0  0.57861  0.35730  0.82149  1.0000
  C   C2117     1.0  0.55275  0.36719  0.83178  1.0000
  H   H1677     1.0  0.71878  0.20702  0.74194  1.0000
  H   H1678     1.0  0.90188  0.16197  0.72004  1.0000
  C   C2118     1.0  0.71416  0.48177  0.74423  1.0000
  C   C2119     1.0  0.64984  0.22642  0.96160  1.0000
  C   C2120     1.0  0.80928  0.06611  0.72432  1.0000
  H   H1679     1.0  0.98201  0.27837  0.78654  1.0000
  C   C2121     1.0  0.53742  0.36871  0.87011  1.0000
  H   H1680     1.0  0.62321  0.48775  0.87111  1.0000
  H   H1681     1.0  0.57290  0.47828  0.81041  1.0000
  C   C2122     1.0  0.53607  0.04685  0.85720  1.0000
  C   C2123     1.0  0.51862  0.07658  0.87877  1.0000
  H   H1682     1.0  0.70772  0.50781  0.71438  1.0000
  H   H1683     1.0  0.78023  0.41873  0.94623  1.0000
  H   H1684     1.0  0.59861  0.31851  0.80845  1.0000
  H   H1685     1.0  0.59904  0.37377  0.81746  1.0000
  H   H1686     1.0  0.55325  0.39157  0.83554  1.0000
  C   C2124     1.0  0.96653  0.19999  0.73171  1.0000
  C   C2125     1.0  0.87601  0.43665  0.93932  1.0000
  H   H1687     1.0  0.55125  0.34829  0.86558  1.0000
  H   H1688     1.0  0.57078  0.37298  0.88687  1.0000
  S   S280      1.0  0.64644  0.51054  0.79818  1.0000
  C   C2126     1.0  0.76986  0.13643  0.95052  1.0000
  S   S281      1.0  0.51640  0.13799  0.84438  1.0000
  C   C2127     1.0  0.94808  0.32526  0.93579  1.0000
  H   H1689     1.0  0.71297  0.20139  0.76988  1.0000
  C   C2128     1.0  0.81386  0.09507  0.74624  1.0000
  H   H1690     1.0  0.86351  0.10135  0.75163  1.0000
  C   C2129     1.0  0.99405  0.48103  0.93826  1.0000
  C   C2130     1.0  0.54942  0.33627  0.76575  1.0000
  P   P70       1.0  0.65653  0.46589  0.73255  1.0000
  H   H1691     1.0  0.96542  0.22253  0.75224  1.0000
  C   C2131     1.0  0.80691  0.22190  0.71423  1.0000
  C   C2132     1.0  0.96186  0.36913  0.85667  1.0000
  H   H1692     1.0  0.62034  0.44998  0.82136  1.0000
  H   H1693     1.0  0.72431  0.14764  0.78410  1.0000
  C   C2133     1.0  0.96934  0.23471  0.80164  1.0000
  C   C2134     1.0  0.53042  0.40820  0.88861  1.0000
  C   C2135     1.0  0.51497  0.43925  0.79803  1.0000
  C   C2136     1.0  0.89089  0.37901  0.92539  1.0000
  C   C2137     1.0  0.72672  0.14977  0.77186  1.0000
  C   C2138     1.0  0.63423  0.40790  0.89783  1.0000
  H   H1694     1.0  0.86332  0.40169  0.90769  1.0000
  S   S282      1.0  0.53591  0.17974  0.87972  1.0000
  C   C2139     1.0  0.84829  0.09072  0.74426  1.0000
  H   H1695     1.0  0.76844  0.47699  0.95080  1.0000
  C   C2140     1.0  0.87240  0.40441  0.91840  1.0000
  H   H1696     1.0  0.70497  0.42779  0.85716  1.0000
  C   C2141     1.0  0.60599  0.10092  0.79727  1.0000
  H   H1697     1.0  0.75389  0.46217  0.84827  1.0000
  H   H1698     1.0  0.85092  0.45294  0.91996  1.0000
  H   H1699     1.0  0.54874  0.13472  0.94307  1.0000
  H   H1700     1.0  0.80304  0.10887  0.75525  1.0000
  C   C2142     1.0  0.54278  0.47326  0.84752  1.0000
  H   H1701     1.0  0.81694  0.38429  0.96213  1.0000
  H   H1702     1.0  0.70059  0.36259  0.75755  1.0000
  H   H1703     1.0  0.55747  0.28828  0.93866  1.0000
  H   H1704     1.0  0.65856  0.03014  0.77067  1.0000
  H   H1705     1.0  0.86444  0.09930  0.78573  1.0000
  C   C2143     1.0  0.86513  0.43324  0.92535  1.0000
  C   C2144     1.0  0.63650  0.40622  0.88225  1.0000
  H   H1706     1.0  0.64291  0.38274  0.87805  1.0000
  H   H1707     1.0  0.52602  0.12545  0.91924  1.0000
  C   C2145     1.0  0.74736  0.02261  0.75021  1.0000
  C   C2146     1.0  0.58169  0.28309  0.95874  1.0000
  H   H1708     1.0  0.64145  0.32115  0.75055  1.0000
  H   H1709     1.0  0.99202  0.20669  0.72795  1.0000
  C   C2147     1.0  0.81292  0.19477  0.72455  1.0000
  C   C2148     1.0  0.72013  0.18013  0.76387  1.0000
  C   C2149     1.0  0.72990  0.46987  0.84484  1.0000
  C   C2150     1.0  0.62580  0.46517  0.87850  1.0000
  C   C2151     1.0  0.66661  0.39112  0.83271  1.0000
  H   H1710     1.0  0.60173  0.29931  0.95397  1.0000
  P   P71       1.0  0.92362  0.34878  0.94895  1.0000
  H   H1711     1.0  0.64410  0.49907  0.83309  1.0000
  C   C2152     1.0  0.72308  0.18319  0.74812  1.0000
  C   C2153     1.0  0.99715  0.39835  0.87075  1.0000
  H   H1712     1.0  0.72667  0.46418  0.73721  1.0000
  H   H1713     1.0  0.68511  0.07913  0.75604  1.0000
  C   C2154     1.0  0.66779  0.49022  0.83638  1.0000
  C   C2155     1.0  0.54849  0.38259  0.88222  1.0000
  C   C2156     1.0  0.62412  0.46678  0.89406  1.0000
  C   C2157     1.0  0.57345  0.11110  0.79548  1.0000
  H   H1714     1.0  0.89562  0.35645  0.92005  1.0000
  C   C2158     1.0  0.92943  0.49910  0.93240  1.0000
  C   C2159     1.0  0.64351  0.39446  0.84537  1.0000
  H   H1715     1.0  0.55155  0.28072  0.81728  1.0000
  H   H1716     1.0  0.65692  0.30980  0.82908  1.0000
  H   H1717     1.0  0.62569  0.10804  0.78844  1.0000
  H   H1718     1.0  0.73516  0.15932  0.72814  1.0000
  C   C2160     1.0  0.00033  0.39766  0.96179  1.0000
  H   H1719     1.0  0.62799  0.43935  0.91578  1.0000
  H   H1720     1.0  0.77255  0.17818  0.93355  1.0000
  C   C2161     1.0  0.86319  0.07421  0.73231  1.0000
  H   H1721     1.0  0.55612  0.41739  0.76205  1.0000
  H   H1722     1.0  0.74146  0.09915  0.77050  1.0000
  H   H1723     1.0  0.61417  0.41604  0.75140  1.0000
  C   C2162     1.0  0.63159  0.43481  0.87246  1.0000
  C   C2163     1.0  0.59350  0.49420  0.73737  1.0000
  C   C2164     1.0  0.67093  0.46030  0.84553  1.0000
  H   H1724     1.0  0.68060  0.41204  0.82711  1.0000
  C   C2165     1.0  0.62830  0.43812  0.90373  1.0000
  H   H1725     1.0  0.86984  0.45895  0.94470  1.0000
  H   H1726     1.0  0.63811  0.38593  0.90538  1.0000
  H   H1727     1.0  0.93979  0.27794  0.94913  1.0000
  H   H1728     1.0  0.71040  0.33500  0.73409  1.0000
  H   H1729     1.0  0.55956  0.37037  0.79035  1.0000
  C   C2166     1.0  0.69429  0.37531  0.74697  1.0000
  C   C2167     1.0  0.68002  0.48807  0.74413  1.0000
  C   C2168     1.0  0.68099  0.40734  0.74657  1.0000
  C   C2169     1.0  0.52650  0.34574  0.83711  1.0000
  P   P72       1.0  0.74960  0.08909  0.73834  1.0000
  C   C2170     1.0  0.67280  0.42408  0.73291  1.0000
  C   C2171     1.0  0.69566  0.50934  0.83123  1.0000
  H   H1730     1.0  0.98591  0.23987  0.80975  1.0000
  H   H1731     1.0  0.88037  0.29849  0.94124  1.0000
  C   C2172     1.0  0.97431  0.27354  0.92955  1.0000
  H   H1732     1.0  0.60671  0.36896  0.86144  1.0000
  C   C2173     1.0  0.57166  0.47188  0.82251  1.0000
  C   C2174     1.0  0.70214  0.45048  0.84987  1.0000
  C   C2175     1.0  0.70778  0.07524  0.71695  1.0000
  H   H1733     1.0  0.53905  0.41881  0.89804  1.0000
  C   C2176     1.0  0.60326  0.31073  0.76895  1.0000
  H   H1734     1.0  0.52143  0.46740  0.75751  1.0000
  H   H1735     1.0  0.60488  0.35588  0.73474  1.0000
  H   H1736     1.0  0.94365  0.26696  0.76829  1.0000
  C   C2177     1.0  0.59507  0.34472  0.74580  1.0000
  H   H1737     1.0  0.59766  0.09557  0.86500  1.0000
  H   H1738     1.0  0.53209  0.30622  0.89546  1.0000
  C   C2178     1.0  0.52651  0.18306  0.94406  1.0000
  C   C2179     1.0  0.73626  0.12242  0.76410  1.0000
  H   H1739     1.0  0.57331  0.29404  0.86680  1.0000
  H   H1740     1.0  0.56331  0.42105  0.80267  1.0000
  C   C2180     1.0  0.55655  0.27650  0.95007  1.0000
  C   C2181     1.0  0.73236  0.49769  0.75362  1.0000
  C   C2182     1.0  0.53877  0.38748  0.79072  1.0000
  H   H1741     1.0  0.53670  0.18650  0.95440  1.0000
  C   C2183     1.0  0.56643  0.43870  0.75507  1.0000
  H   H1742     1.0  0.84089  0.29981  0.73561  1.0000
  C   C2184     1.0  0.96622  0.34181  0.92309  1.0000
  C   C2185     1.0  0.67151  0.36063  0.82693  1.0000
  H   H1743     1.0  0.57469  0.01379  0.81728  1.0000
  C   C2186     1.0  0.95122  0.20912  0.74547  1.0000
  C   C2187     1.0  0.56200  0.35025  0.75129  1.0000
  C   C2188     1.0  0.79106  0.42909  0.95520  1.0000
  C   C2189     1.0  0.89470  0.41142  0.94628  1.0000
  C   C2190     1.0  0.73086  0.05338  0.74947  1.0000
  C   C2191     1.0  0.59954  0.43811  0.74896  1.0000
  H   H1744     1.0  0.55469  0.10890  0.88500  1.0000
  S   S283      1.0  0.82958  0.15726  0.71884  1.0000
  H   H1745     1.0  0.56146  0.30538  0.78573  1.0000
  C   C2192     1.0  0.61258  0.18804  0.95345  1.0000
  H   H1746     1.0  0.56903  0.45334  0.86593  1.0000
  C   C2193     1.0  0.65327  0.33333  0.83362  1.0000
  P   P73       1.0  0.63576  0.43440  0.85220  1.0000
  C   C2194     1.0  0.62495  0.36697  0.85186  1.0000
  C   C2195     1.0  0.61342  0.46593  0.74011  1.0000
  C   C2196     1.0  0.63491  0.21426  0.95004  1.0000
  C   C2197     1.0  0.69965  0.35972  0.73376  1.0000
  H   H1747     1.0  0.97768  0.24710  0.93200  1.0000
  C   C2198     1.0  0.57031  0.31622  0.77448  1.0000
  H   H1748     1.0  0.61664  0.31501  0.85139  1.0000
  H   H1749     1.0  0.96435  0.36843  0.92073  1.0000
  C   C2199     1.0  0.55540  0.08501  0.82050  1.0000
  C   C2200     1.0  0.66466  0.04266  0.84486  1.0000
  H   H1750     1.0  0.00901  0.38979  0.84745  1.0000
  C   C2201     1.0  0.68341  0.02806  0.76501  1.0000
  C   C2202     1.0  0.94887  0.18272  0.72262  1.0000
  H   H1751     1.0  0.51452  0.29604  0.86372  1.0000
  C   C2203     1.0  0.59871  0.45623  0.82874  1.0000
  H   H1752     1.0  0.63863  0.07533  0.81189  1.0000
  S   S284      1.0  0.00154  0.08425  0.87561  1.0000
  C   C2204     1.0  0.87335  0.30267  0.95292  1.0000
  C   C2205     1.0  0.53332  0.15347  0.93765  1.0000
  H   H1753     1.0  0.56791  0.12627  0.78535  1.0000
  C   C2206     1.0  0.97414  0.39336  0.88353  1.0000
  H   H1754     1.0  0.90264  0.41420  0.95718  1.0000
  C   C2207     1.0  0.56034  0.49465  0.74352  1.0000
  H   H1755     1.0  0.52381  0.07816  0.72941  1.0000
  C   C2208     1.0  0.53101  0.25479  0.95618  1.0000
  C   C2209     1.0  0.67796  0.40813  0.71969  1.0000
  C   C2210     1.0  0.84596  0.28624  0.96088  1.0000
  C   C2211     1.0  0.95428  0.36185  0.96004  1.0000
  H   H1756     1.0  0.62038  0.49034  0.89863  1.0000
  H   H1757     1.0  0.90451  0.50593  0.93006  1.0000
  C   C2212     1.0  0.99199  0.29015  0.91684  1.0000
  S   S285      1.0  0.67787  0.25926  0.95783  1.0000
  C   C2213     1.0  0.97623  0.50477  0.94632  1.0000
  H   H1758     1.0  0.52114  0.48002  0.85480  1.0000
  H   H1759     1.0  0.69521  0.05803  0.72560  1.0000
  H   H1760     1.0  0.73305  0.21254  0.94862  1.0000
  C   C2214     1.0  0.99099  0.38630  0.85731  1.0000
  C   C2215     1.0  0.78440  0.46196  0.95775  1.0000
  H   H1761     1.0  0.00884  0.27655  0.90950  1.0000
  C   C2216     1.0  0.73993  0.18791  0.95325  1.0000
  S   S286      1.0  0.81761  0.50653  0.90696  1.0000
  C   C2217     1.0  0.72670  0.49922  0.83546  1.0000
  H   H1762     1.0  0.66074  0.01644  0.84523  1.0000
  H   H1763     1.0  0.51675  0.46202  0.80312  1.0000
  S   S287      1.0  0.64433  0.82874  0.21262  1.0000
  Fe  Fe141     1.0  0.76003  0.93456  0.09639  1.0000
  S   S288      1.0  0.81136  0.91346  0.09189  1.0000
  S   S289      1.0  0.73026  0.92446  0.11929  1.0000
  Fe  Fe142     1.0  0.82561  0.96440  0.08102  1.0000
  Fe  Fe143     1.0  0.79517  0.90552  0.06937  1.0000
  S   S290      1.0  0.80483  0.85858  0.05814  1.0000
  S   S291      1.0  0.74281  0.92295  0.07471  1.0000
  Fe  Fe144     1.0  0.61857  0.72167  0.02832  1.0000
  S   S292      1.0  0.66433  0.75288  0.02532  1.0000
  S   S293      1.0  0.57781  0.74106  0.01386  1.0000
  Fe  Fe145     1.0  0.64966  0.66913  0.05030  1.0000
  S   S294      1.0  0.69681  0.69680  0.04877  1.0000
  S   S295      1.0  0.64266  0.62287  0.06701  1.0000
  Fe  Fe146     1.0  0.66437  0.74158  0.05025  1.0000
  S   S296      1.0  0.67173  0.77832  0.06643  1.0000
  Fe  Fe147     1.0  0.69289  0.70514  0.02386  1.0000
  S   S297      1.0  0.74083  0.70322  0.00833  1.0000
  S   S298      1.0  0.61671  0.71381  0.05360  1.0000
  S   S299      1.0  0.64753  0.67417  0.02506  1.0000
  Fe  Fe148     1.0  0.77356  0.52830  0.11433  1.0000
  S   S300      1.0  0.82058  0.54689  0.12130  1.0000
  S   S301      1.0  0.76610  0.53968  0.08951  1.0000
  Fe  Fe149     1.0  0.78685  0.56723  0.13977  1.0000
  S   S302      1.0  0.79155  0.62136  0.14238  1.0000
  C   C2218     1.0  0.77729  0.76663  0.97860  1.0000
  S   S303      1.0  0.74001  0.55119  0.13195  1.0000
  Fe  Fe150     1.0  0.59378  0.73618  0.18937  1.0000
  S   S304      1.0  0.77476  0.98651  0.08726  1.0000
  Fe  Fe151     1.0  0.64437  0.77185  0.16530  1.0000
  S   S305      1.0  0.68391  0.77271  0.18090  1.0000
  S   S306      1.0  0.65317  0.79025  0.14038  1.0000
  Fe  Fe152     1.0  0.66796  0.72074  0.18910  1.0000
  S   S307      1.0  0.69899  0.67602  0.19588  1.0000
  S   S308      1.0  0.63221  0.71817  0.17202  1.0000
  S   S309      1.0  0.60287  0.78998  0.18137  1.0000
  H   H1764     1.0  0.61625  0.94652  0.16811  1.0000
  C   C2219     1.0  0.78059  0.64771  0.97564  1.0000
  H   H1765     1.0  0.57022  0.58265  0.14503  1.0000
  C   C2220     1.0  0.61339  0.53287  0.19513  1.0000
  H   H1766     1.0  0.73276  0.53180  0.05256  1.0000
  C   C2221     1.0  0.60913  0.94018  0.14510  1.0000
  C   C2222     1.0  0.70490  0.52054  0.00970  1.0000
  C   C2223     1.0  0.72372  0.66092  0.18070  1.0000
  C   C2224     1.0  0.73615  0.68231  0.16823  1.0000
  C   C2225     1.0  0.75728  0.67006  0.15655  1.0000
  C   C2226     1.0  0.76473  0.63617  0.15698  1.0000
  C   C2227     1.0  0.75143  0.61464  0.16924  1.0000
  C   C2228     1.0  0.73156  0.62715  0.18125  1.0000
  H   H1767     1.0  0.73009  0.70835  0.16783  1.0000
  H   H1768     1.0  0.76776  0.68681  0.14714  1.0000
  H   H1769     1.0  0.75698  0.58849  0.16954  1.0000
  H   H1770     1.0  0.72166  0.61062  0.19081  1.0000
  H   H1771     1.0  0.53823  0.53871  0.13661  1.0000
  H   H1772     1.0  0.69562  0.65621  0.99956  1.0000
  H   H1773     1.0  0.76510  0.82207  0.21357  1.0000
  C   C2229     1.0  0.61437  0.95991  0.97842  1.0000
  C   C2230     1.0  0.74564  0.67368  0.99516  1.0000
  C   C2231     1.0  0.79505  0.77814  0.96476  1.0000
  C   C2232     1.0  0.77635  0.67030  0.98654  1.0000
  P   P74       1.0  0.54871  0.53213  0.18758  1.0000
  H   H1774     1.0  0.79693  0.68517  0.98828  1.0000
  C   C2233     1.0  0.67758  0.60162  0.07383  1.0000
  C   C2234     1.0  0.67311  0.57791  0.08646  1.0000
  C   C2235     1.0  0.70035  0.56026  0.09192  1.0000
  C   C2236     1.0  0.73223  0.56523  0.08443  1.0000
  C   C2237     1.0  0.73668  0.58883  0.07176  1.0000
  C   C2238     1.0  0.70960  0.60738  0.06669  1.0000
  H   H1775     1.0  0.64851  0.57312  0.09205  1.0000
  H   H1776     1.0  0.69650  0.54187  0.10156  1.0000
  H   H1777     1.0  0.76114  0.59270  0.06580  1.0000
  H   H1778     1.0  0.71337  0.62575  0.05710  1.0000
  C   C2239     1.0  0.76891  0.83460  0.06062  1.0000
  C   C2240     1.0  0.74563  0.83752  0.07309  1.0000
  C   C2241     1.0  0.71605  0.82004  0.07470  1.0000
  C   C2242     1.0  0.70946  0.79942  0.06389  1.0000
  C   C2243     1.0  0.73329  0.79537  0.05167  1.0000
  C   C2244     1.0  0.76317  0.81281  0.05011  1.0000
  H   H1779     1.0  0.75065  0.85290  0.08164  1.0000
  H   H1780     1.0  0.69859  0.82198  0.08456  1.0000
  H   H1781     1.0  0.72862  0.77903  0.04342  1.0000
  H   H1782     1.0  0.78143  0.81011  0.04057  1.0000
  C   C2245     1.0  0.70926  0.88680  0.12483  1.0000
  C   C2246     1.0  0.69859  0.87840  0.14016  1.0000
  C   C2247     1.0  0.68244  0.84836  0.14508  1.0000
  C   C2248     1.0  0.67539  0.82716  0.13462  1.0000
  C   C2249     1.0  0.68537  0.83591  0.11923  1.0000
  C   C2250     1.0  0.70276  0.86535  0.11437  1.0000
  H   H1783     1.0  0.70304  0.89516  0.14826  1.0000
  H   H1784     1.0  0.67457  0.84200  0.15693  1.0000
  H   H1785     1.0  0.67987  0.81971  0.11107  1.0000
  H   H1786     1.0  0.71096  0.87153  0.10255  1.0000
  H   H1787     1.0  0.85323  0.77123  0.13029  1.0000
  C   C2251     1.0  0.92856  0.96016  0.07635  1.0000
  C   C2252     1.0  0.96340  0.95639  0.07427  1.0000
  H   H1788     1.0  0.91292  0.94228  0.07262  1.0000
  H   H1789     1.0  0.97421  0.93548  0.06892  1.0000
  C   C2253     1.0  0.55666  0.93894  0.11326  1.0000
  C   C2254     1.0  0.53852  0.75864  0.01962  1.0000
  C   C2255     1.0  0.60935  0.99633  0.10085  1.0000
  H   H1790     1.0  0.78409  0.75032  0.20750  1.0000
  H   H1791     1.0  0.51522  0.64255  0.16493  1.0000
  C   C2256     1.0  0.55214  0.55592  0.12832  1.0000
  C   C2257     1.0  0.51975  0.56249  0.18039  1.0000
  H   H1792     1.0  0.60203  0.61708  0.09849  1.0000
  H   H1793     1.0  0.58608  0.81314  0.01441  1.0000
  C   C2258     1.0  0.59890  0.99390  0.04609  1.0000
  H   H1794     1.0  0.53115  0.74389  0.14468  1.0000
  S   S310      1.0  0.54773  0.70605  0.19848  1.0000
  C   C2259     1.0  0.75485  0.82148  0.98151  1.0000
  H   H1795     1.0  0.68085  0.94030  0.99764  1.0000
  C   C2260     1.0  0.59050  0.51567  0.16247  1.0000
  H   H1796     1.0  0.58212  0.78759  0.04083  1.0000
  C   C2261     1.0  0.53199  0.69318  0.13978  1.0000
  H   H1797     1.0  0.58469  0.99525  0.09752  1.0000
  S   S311      1.0  0.73317  0.99964  0.04652  1.0000
  S   S312      1.0  0.87019  0.99306  0.08645  1.0000
  H   H1798     1.0  0.60907  0.84629  0.15813  1.0000
  H   H1799     1.0  0.86870  0.79037  0.20297  1.0000
  H   H1800     1.0  0.74349  0.77871  0.99752  1.0000
  C   C2262     1.0  0.75724  0.78812  0.98690  1.0000
  H   H1801     1.0  0.59477  0.97364  0.02553  1.0000
  C   C2263     1.0  0.86960  0.57033  0.98410  1.0000
  H   H1802     1.0  0.59232  0.74886  0.14125  1.0000
  C   C2264     1.0  0.84014  0.58820  0.98665  1.0000
  C   C2265     1.0  0.81043  0.57150  0.99079  1.0000
  H   H1803     1.0  0.62746  0.70132  0.13456  1.0000
  H   H1804     1.0  0.89189  0.65302  0.96743  1.0000
  H   H1805     1.0  0.89516  0.91051  0.13252  1.0000
  H   H1806     1.0  0.84029  0.61494  0.98536  1.0000
  H   H1807     1.0  0.78755  0.58529  0.99284  1.0000
  C   C2266     1.0  0.65564  0.88029  0.08448  1.0000
  C   C2267     1.0  0.63563  0.85334  0.08368  1.0000
  C   C2268     1.0  0.60526  0.84995  0.09255  1.0000
  C   C2269     1.0  0.59466  0.87382  0.10217  1.0000
  C   C2270     1.0  0.61456  0.90115  0.10302  1.0000
  C   C2271     1.0  0.64541  0.90393  0.09426  1.0000
  P   P75       1.0  0.60004  0.93207  0.11530  1.0000
  C   C2272     1.0  0.60556  0.91751  0.13464  1.0000
  H   H1808     1.0  0.67950  0.88241  0.07775  1.0000
  C   C2273     1.0  0.61269  0.89516  0.16489  1.0000
  C   C2274     1.0  0.60864  0.87256  0.15460  1.0000
  C   C2275     1.0  0.60544  0.88357  0.13953  1.0000
  C   C2276     1.0  0.62277  0.96974  0.10964  1.0000
  H   H1809     1.0  0.89268  0.58315  0.98060  1.0000
  H   H1810     1.0  0.90510  0.52830  0.13392  1.0000
  S   S313      1.0  0.81309  0.95473  0.05802  1.0000
  C   C2277     1.0  0.72382  0.63080  0.98233  1.0000
  C   C2278     1.0  0.63689  0.57790  0.20585  1.0000
  H   H1811     1.0  0.56331  0.95308  0.98755  1.0000
  H   H1812     1.0  0.64387  0.83487  0.07627  1.0000
  H   H1813     1.0  0.59019  0.82859  0.09209  1.0000
  H   H1814     1.0  0.57106  0.87078  0.10904  1.0000
  H   H1815     1.0  0.66193  0.92395  0.09499  1.0000
  H   H1816     1.0  0.87578  0.72176  0.00080  1.0000
  H   H1817     1.0  0.61592  0.88635  0.17650  1.0000
  H   H1818     1.0  0.60345  0.86529  0.13179  1.0000
  H   H1819     1.0  0.73633  0.94828  0.18874  1.0000
  C   C2279     1.0  0.59384  0.82684  0.02310  1.0000
  C   C2280     1.0  0.64017  0.54670  0.20062  1.0000
  H   H1820     1.0  0.56118  0.90703  0.04770  1.0000
  H   H1821     1.0  0.73445  0.53125  0.97236  1.0000
  H   H1822     1.0  0.55597  0.60109  0.17364  1.0000
  S   S314      1.0  0.62934  0.73600  0.20692  1.0000
  C   C2281     1.0  0.72428  0.51871  0.98312  1.0000
  C   C2282     1.0  0.51824  0.88109  0.04349  1.0000
  C   C2283     1.0  0.75442  0.62762  0.97364  1.0000
  H   H1823     1.0  0.84223  0.75728  0.98422  1.0000
  H   H1824     1.0  0.57021  0.57316  0.09030  1.0000
  H   H1825     1.0  0.60916  0.96649  0.14165  1.0000
  C   C2284     1.0  0.75721  0.77828  0.14580  1.0000
  C   C2285     1.0  0.75574  0.78740  0.13044  1.0000
  C   C2286     1.0  0.76566  0.81877  0.12402  1.0000
  C   C2287     1.0  0.77691  0.84127  0.13297  1.0000
  C   C2288     1.0  0.77874  0.83229  0.14844  1.0000
  C   C2289     1.0  0.76867  0.80059  0.15480  1.0000
  P   P76       1.0  0.79244  0.86147  0.16023  1.0000
  C   C2290     1.0  0.81750  0.83972  0.17364  1.0000
  C   C2291     1.0  0.81628  0.89293  0.14822  1.0000
  C   C2292     1.0  0.85084  0.88994  0.14529  1.0000
  C   C2293     1.0  0.86853  0.91295  0.13488  1.0000
  C   C2294     1.0  0.85187  0.93892  0.12726  1.0000
  C   C2295     1.0  0.81755  0.94218  0.13022  1.0000
  C   C2296     1.0  0.79986  0.91944  0.14071  1.0000
  C   C2297     1.0  0.81500  0.84757  0.18861  1.0000
  C   C2298     1.0  0.83337  0.82977  0.19910  1.0000
  C   C2299     1.0  0.85454  0.80410  0.19477  1.0000
  C   C2300     1.0  0.85736  0.79622  0.17987  1.0000
  C   C2301     1.0  0.83893  0.81395  0.16933  1.0000
  C   C2302     1.0  0.75733  0.88007  0.17053  1.0000
  C   C2303     1.0  0.72757  0.86289  0.17426  1.0000
  C   C2304     1.0  0.70086  0.87689  0.18268  1.0000
  C   C2305     1.0  0.70400  0.90758  0.18794  1.0000
  C   C2306     1.0  0.73371  0.92468  0.18448  1.0000
  C   C2307     1.0  0.76026  0.91108  0.17575  1.0000
  H   H1826     1.0  0.74881  0.75413  0.15075  1.0000
  H   H1827     1.0  0.74628  0.77046  0.12354  1.0000
  H   H1828     1.0  0.76383  0.82600  0.11215  1.0000
  H   H1829     1.0  0.78347  0.86572  0.12771  1.0000
  H   H1830     1.0  0.76906  0.79331  0.16676  1.0000
  H   H1831     1.0  0.86417  0.86974  0.15084  1.0000
  C   C2308     1.0  0.57959  0.58079  0.20071  1.0000
  H   H1832     1.0  0.80409  0.64570  0.96884  1.0000
  C   C2309     1.0  0.71081  0.51682  0.05421  1.0000
  H   H1833     1.0  0.77316  0.92191  0.14256  1.0000
  H   H1834     1.0  0.79864  0.86714  0.19239  1.0000
  H   H1835     1.0  0.87374  0.77628  0.17650  1.0000
  H   H1836     1.0  0.84121  0.80745  0.15785  1.0000
  H   H1837     1.0  0.72472  0.83874  0.17067  1.0000
  H   H1838     1.0  0.67792  0.86350  0.18541  1.0000
  H   H1839     1.0  0.56279  0.93634  0.08908  1.0000
  H   H1840     1.0  0.55609  0.59400  0.20128  1.0000
  H   H1841     1.0  0.78328  0.92443  0.17337  1.0000
  C   C2310     1.0  0.60654  0.59482  0.20599  1.0000
  C   C2311     1.0  0.59157  0.81242  0.03802  1.0000
  C   C2312     1.0  0.96985  0.00619  0.08597  1.0000
  C   C2313     1.0  0.65492  0.97209  0.11367  1.0000
  H   H1842     1.0  0.77891  0.74096  0.98301  1.0000
  C   C2314     1.0  0.59664  0.93555  0.00377  1.0000
  C   C2315     1.0  0.62978  0.93197  0.00686  1.0000
  C   C2316     1.0  0.65514  0.94253  0.99555  1.0000
  P   P77       1.0  0.63920  0.91467  0.02536  1.0000
  C   C2317     1.0  0.62770  0.94373  0.03910  1.0000
  C   C2318     1.0  0.61796  0.87592  0.03048  1.0000
  C   C2319     1.0  0.61556  0.86123  0.04544  1.0000
  C   C2320     1.0  0.60239  0.82960  0.04918  1.0000
  C   C2321     1.0  0.60718  0.85831  0.01930  1.0000
  C   C2322     1.0  0.64236  0.94141  0.05267  1.0000
  C   C2323     1.0  0.63565  0.96539  0.06271  1.0000
  C   C2324     1.0  0.54543  0.93893  0.09900  1.0000
  H   H1843     1.0  0.66706  0.96450  0.97267  1.0000
  C   C2325     1.0  0.60585  0.97024  0.03596  1.0000
  C   C2326     1.0  0.68301  0.90543  0.02520  1.0000
  C   C2327     1.0  0.70499  0.92987  0.02767  1.0000
  C   C2328     1.0  0.73842  0.92209  0.02869  1.0000
  C   C2329     1.0  0.75032  0.89009  0.02696  1.0000
  C   C2330     1.0  0.72888  0.86595  0.02394  1.0000
  C   C2331     1.0  0.69536  0.87348  0.02310  1.0000
  S   S315      1.0  0.79143  0.52205  0.15625  1.0000
  H   H1844     1.0  0.62476  0.87378  0.05411  1.0000
  H   H1845     1.0  0.68387  0.57803  0.17647  1.0000
  H   H1846     1.0  0.60996  0.86818  0.00755  1.0000
  H   H1847     1.0  0.66013  0.92191  0.05519  1.0000
  H   H1848     1.0  0.86545  0.95635  0.11893  1.0000
  H   H1849     1.0  0.53999  0.64339  0.13446  1.0000
  H   H1850     1.0  0.51581  0.73654  0.17237  1.0000
  H   H1851     1.0  0.69627  0.95477  0.02924  1.0000
  H   H1852     1.0  0.75501  0.94075  0.03117  1.0000
  H   H1853     1.0  0.77605  0.88390  0.02821  1.0000
  H   H1854     1.0  0.73809  0.84110  0.02268  1.0000
  H   H1855     1.0  0.67918  0.85405  0.02114  1.0000
  C   C2332     1.0  0.78239  0.72419  0.04636  1.0000
  C   C2333     1.0  0.80967  0.74059  0.03837  1.0000
  C   C2334     1.0  0.83436  0.75182  0.04614  1.0000
  C   C2335     1.0  0.83171  0.74668  0.06191  1.0000
  C   C2336     1.0  0.80366  0.73140  0.07008  1.0000
  C   C2337     1.0  0.77930  0.71957  0.06217  1.0000
  P   P78       1.0  0.80155  0.72301  0.09038  1.0000
  C   C2338     1.0  0.82147  0.68333  0.09381  1.0000
  C   C2339     1.0  0.81993  0.75592  0.09849  1.0000
  C   C2340     1.0  0.83150  0.75004  0.11273  1.0000
  C   C2341     1.0  0.84447  0.77589  0.11927  1.0000
  C   C2342     1.0  0.84555  0.80783  0.11174  1.0000
  C   C2343     1.0  0.83307  0.81405  0.09780  1.0000
  C   C2344     1.0  0.81981  0.78835  0.09131  1.0000
  C   C2345     1.0  0.80405  0.65450  0.09273  1.0000
  C   C2346     1.0  0.81922  0.62349  0.09513  1.0000
  C   C2347     1.0  0.85203  0.62111  0.09844  1.0000
  C   C2348     1.0  0.86979  0.64974  0.09918  1.0000
  C   C2349     1.0  0.85469  0.68082  0.09672  1.0000
  C   C2350     1.0  0.75990  0.72201  0.09967  1.0000
  C   C2351     1.0  0.73616  0.74436  0.09430  1.0000
  C   C2352     1.0  0.70508  0.74712  0.10251  1.0000
  C   C2353     1.0  0.69759  0.72767  0.11622  1.0000
  C   C2354     1.0  0.72098  0.70499  0.12161  1.0000
  C   C2355     1.0  0.75216  0.70226  0.11342  1.0000
  H   H1856     1.0  0.76357  0.71534  0.04020  1.0000
  H   H1857     1.0  0.81152  0.74460  0.02616  1.0000
  H   H1858     1.0  0.85552  0.76464  0.03997  1.0000
  H   H1859     1.0  0.85147  0.75490  0.06770  1.0000
  H   H1860     1.0  0.75802  0.70679  0.06816  1.0000
  H   H1861     1.0  0.83001  0.72560  0.11887  1.0000
  H   H1862     1.0  0.85525  0.82798  0.11685  1.0000
  H   H1863     1.0  0.83303  0.83892  0.09206  1.0000
  H   H1864     1.0  0.80912  0.79408  0.08079  1.0000
  H   H1865     1.0  0.77870  0.65594  0.09008  1.0000
  H   H1866     1.0  0.80542  0.60128  0.09453  1.0000
  H   H1867     1.0  0.86363  0.59703  0.10047  1.0000
  H   H1868     1.0  0.89523  0.64777  0.10173  1.0000
  H   H1869     1.0  0.86895  0.70274  0.09709  1.0000
  H   H1870     1.0  0.74210  0.76019  0.08395  1.0000
  H   H1871     1.0  0.68686  0.76464  0.09836  1.0000
  H   H1872     1.0  0.67382  0.73061  0.12271  1.0000
  H   H1873     1.0  0.71509  0.68981  0.13222  1.0000
  H   H1874     1.0  0.77032  0.68527  0.11804  1.0000
  Fe  Fe153     1.0  0.64200  0.78784  0.19744  1.0000
  H   H1875     1.0  0.99058  0.00800  0.04553  1.0000
  H   H1876     1.0  0.66574  0.95178  0.12038  1.0000
  C   C2356     1.0  0.86940  0.53579  0.98579  1.0000
  Fe  Fe154     1.0  0.76133  0.97303  0.06503  1.0000
  H   H1877     1.0  0.83081  0.83594  0.21064  1.0000
  H   H1878     1.0  0.96534  0.53947  0.13211  1.0000
  C   C2357     1.0  0.55207  0.55311  0.11292  1.0000
  H   H1879     1.0  0.76643  0.53111  0.02394  1.0000
  H   H1880     1.0  0.67706  0.54663  0.15496  1.0000
  H   H1881     1.0  0.73935  0.83812  0.98799  1.0000
  H   H1882     1.0  0.66367  0.53348  0.20049  1.0000
  C   C2358     1.0  0.71938  0.65381  0.99302  1.0000
  C   C2359     1.0  0.81010  0.53703  0.99233  1.0000
  C   C2360     1.0  0.53367  0.94263  0.12589  1.0000
  C   C2361     1.0  0.58318  0.55024  0.19470  1.0000
  C   C2362     1.0  0.88566  0.68490  0.98528  1.0000
  H   H1883     1.0  0.57659  0.92802  0.01240  1.0000
  H   H1884     1.0  0.53213  0.85947  0.04015  1.0000
  C   C2363     1.0  0.61294  0.92899  0.16014  1.0000
  C   C2364     1.0  0.71227  0.82443  0.21315  1.0000
  H   H1885     1.0  0.53379  0.78341  0.99745  1.0000
  H   H1886     1.0  0.68357  0.91777  0.19490  1.0000
  H   H1887     1.0  0.69886  0.00130  0.11161  1.0000
  H   H1888     1.0  0.60612  0.53552  0.16441  1.0000
  H   H1889     1.0  0.53524  0.73709  0.04270  1.0000
  H   H1890     1.0  0.53035  0.95606  0.05480  1.0000
  P   P79       1.0  0.69563  0.54435  0.02562  1.0000
  C   C2365     1.0  0.73042  0.57067  0.02618  1.0000
  C   C2366     1.0  0.52195  0.77843  0.00887  1.0000
  C   C2367     1.0  0.71911  0.53612  0.99582  1.0000
  C   C2368     1.0  0.52292  0.75242  0.03434  1.0000
  C   C2369     1.0  0.53028  0.59419  0.17423  1.0000
  C   C2370     1.0  0.72585  0.60434  0.02796  1.0000
  C   C2371     1.0  0.75308  0.62393  0.02902  1.0000
  C   C2372     1.0  0.78495  0.61019  0.02825  1.0000
  C   C2373     1.0  0.78968  0.57667  0.02647  1.0000
  C   C2374     1.0  0.76254  0.55703  0.02531  1.0000
  C   C2375     1.0  0.65874  0.56932  0.02332  1.0000
  C   C2376     1.0  0.63868  0.57815  0.03609  1.0000
  C   C2377     1.0  0.61005  0.59736  0.03450  1.0000
  C   C2378     1.0  0.60134  0.60819  0.02013  1.0000
  C   C2379     1.0  0.62138  0.59992  0.00734  1.0000
  C   C2380     1.0  0.64997  0.58056  0.00890  1.0000
  C   C2381     1.0  0.84632  0.72460  0.96650  1.0000
  C   C2382     1.0  0.53457  0.90782  0.04772  1.0000
  H   H1891     1.0  0.72564  0.56199  0.99469  1.0000
  C   C2383     1.0  0.88059  0.67555  0.97118  1.0000
  H   H1892     1.0  0.70139  0.61558  0.02878  1.0000
  H   H1893     1.0  0.74938  0.64983  0.03057  1.0000
  H   H1894     1.0  0.80588  0.62558  0.02907  1.0000
  H   H1895     1.0  0.81440  0.56600  0.02587  1.0000
  H   H1896     1.0  0.90075  0.66951  0.99253  1.0000
  H   H1897     1.0  0.64538  0.57072  0.04734  1.0000
  H   H1898     1.0  0.59519  0.60464  0.04445  1.0000
  H   H1899     1.0  0.57958  0.62378  0.01893  1.0000
  H   H1900     1.0  0.61500  0.60894  0.99620  1.0000
  H   H1901     1.0  0.66510  0.57482  0.99881  1.0000
  C   C2384     1.0  0.66522  0.57059  0.15563  1.0000
  C   C2385     1.0  0.66892  0.58828  0.16781  1.0000
  C   C2386     1.0  0.65382  0.61934  0.16865  1.0000
  C   C2387     1.0  0.63571  0.63305  0.15710  1.0000
  C   C2388     1.0  0.63252  0.61571  0.14463  1.0000
  C   C2389     1.0  0.64703  0.58413  0.14410  1.0000
  P   P80       1.0  0.61278  0.63444  0.12870  1.0000
  C   C2390     1.0  0.58649  0.66876  0.13394  1.0000
  C   C2391     1.0  0.64411  0.64947  0.11378  1.0000
  C   C2392     1.0  0.63639  0.67509  0.10288  1.0000
  C   C2393     1.0  0.66027  0.68633  0.09111  1.0000
  C   C2394     1.0  0.69181  0.67183  0.09004  1.0000
  C   C2395     1.0  0.69969  0.64634  0.10080  1.0000
  C   C2396     1.0  0.67603  0.63524  0.11264  1.0000
  C   C2397     1.0  0.55185  0.66614  0.13590  1.0000
  H   H1902     1.0  0.89276  0.52292  0.98395  1.0000
  C   C2398     1.0  0.54653  0.72300  0.14164  1.0000
  C   C2399     1.0  0.58094  0.72581  0.13970  1.0000
  C   C2400     1.0  0.60083  0.69882  0.13587  1.0000
  C   C2401     1.0  0.58857  0.60310  0.12242  1.0000
  C   C2402     1.0  0.57032  0.58082  0.13306  1.0000
  H   H1903     1.0  0.71206  0.80513  0.20578  1.0000
  C   C2403     1.0  0.91406  0.98698  0.08331  1.0000
  C   C2404     1.0  0.57005  0.57530  0.10226  1.0000
  C   C2405     1.0  0.58816  0.60030  0.10697  1.0000
  H   H1904     1.0  0.64843  0.96447  0.07272  1.0000
  H   H1905     1.0  0.65679  0.63318  0.17809  1.0000
  H   H1906     1.0  0.62473  0.65729  0.15790  1.0000
  H   H1907     1.0  0.64528  0.57039  0.13452  1.0000
  H   H1908     1.0  0.61186  0.68616  0.10332  1.0000
  H   H1909     1.0  0.65428  0.70613  0.08273  1.0000
  H   H1910     1.0  0.71005  0.68018  0.08082  1.0000
  H   H1911     1.0  0.72396  0.63470  0.09986  1.0000
  H   H1912     1.0  0.68295  0.61532  0.12068  1.0000
  C   C2406     1.0  0.58901  0.94967  0.98966  1.0000
  C   C2407     1.0  0.68851  0.51799  0.04325  1.0000
  H   H1913     1.0  0.60153  0.81782  0.06064  1.0000
  H   H1914     1.0  0.80451  0.96195  0.12412  1.0000
  C   C2408     1.0  0.64741  0.95629  0.98135  1.0000
  C   C2409     1.0  0.61390  0.99160  0.05942  1.0000
  C   C2410     1.0  0.98433  0.97931  0.07906  1.0000
  H   H1915     1.0  0.70341  0.61549  0.98074  1.0000
  H   H1916     1.0  0.54167  0.94271  0.13700  1.0000
  H   H1917     1.0  0.60834  0.97102  0.96751  1.0000
  H   H1918     1.0  0.76280  0.69317  0.21171  1.0000
  H   H1919     1.0  0.53811  0.53372  0.10925  1.0000
  C   C2411     1.0  0.67369  0.00024  0.10875  1.0000
  H   H1920     1.0  0.78687  0.52456  0.99562  1.0000
  C   C2412     1.0  0.95674  0.51437  0.13481  1.0000
  H   H1921     1.0  0.65784  0.58916  0.20971  1.0000
  H   H1922     1.0  0.76205  0.55931  0.19490  1.0000
  C   C2413     1.0  0.74866  0.54152  0.20309  1.0000
  S   S316      1.0  0.53388  0.00328  0.01756  1.0000
  C   C2414     1.0  0.83951  0.51878  0.98971  1.0000
  C   C2415     1.0  0.51672  0.93594  0.05176  1.0000
  H   H1923     1.0  0.60390  0.61899  0.21009  1.0000
  C   C2416     1.0  0.87161  0.71432  0.98993  1.0000
  C   C2417     1.0  0.77245  0.83326  0.96775  1.0000
  C   C2418     1.0  0.85229  0.73429  0.98052  1.0000
  C   C2419     1.0  0.93501  0.00994  0.08807  1.0000
  Fe  Fe155     1.0  0.61420  0.92679  0.44388  1.0000
  S   S317      1.0  0.62790  0.93623  0.41877  1.0000
  C   C2420     1.0  0.71366  0.98989  0.36771  1.0000
  Fe  Fe156     1.0  0.54172  0.94304  0.44095  1.0000
  S   S318      1.0  0.55052  0.95488  0.41586  1.0000
  H   H1924     1.0  0.67357  0.73773  0.24068  1.0000
  Fe  Fe157     1.0  0.58154  0.90838  0.41669  1.0000
  S   S319      1.0  0.57682  0.87204  0.39935  1.0000
  Fe  Fe158     1.0  0.59566  0.98146  0.42045  1.0000
  C   C2421     1.0  0.91464  0.93402  0.33266  1.0000
  S   S320      1.0  0.57081  0.89530  0.44164  1.0000
  S   S321      1.0  0.58397  0.97363  0.44562  1.0000
  C   C2422     1.0  0.79574  0.69606  0.24491  1.0000
  C   C2423     1.0  0.85501  0.93953  0.33345  1.0000
  H   H1925     1.0  0.56366  0.70470  0.41039  1.0000
  Fe  Fe159     1.0  0.79018  0.89952  0.25196  1.0000
  S   S322      1.0  0.76509  0.89267  0.27575  1.0000
  S   S323      1.0  0.78170  0.86955  0.23267  1.0000
  Fe  Fe160     1.0  0.84182  0.94571  0.26038  1.0000
  S   S324      1.0  0.82044  0.94215  0.28465  1.0000
  S   S325      1.0  0.88766  0.97401  0.25030  1.0000
  Fe  Fe161     1.0  0.81654  0.88783  0.28286  1.0000
  S   S326      1.0  0.83057  0.85045  0.30192  1.0000
  Fe  Fe162     1.0  0.77125  0.94789  0.27549  1.0000
  S   S327      1.0  0.73300  0.98027  0.28790  1.0000
  S   S328      1.0  0.84127  0.89114  0.25927  1.0000
  S   S329      1.0  0.79278  0.95500  0.25110  1.0000
  Fe  Fe163     1.0  0.97230  0.70993  0.30961  1.0000
  H   H1926     1.0  0.54309  0.83847  0.42718  1.0000
  S   S330      1.0  0.94865  0.74617  0.29259  1.0000
  C   C2424     1.0  0.88966  0.67232  0.28541  1.0000
  C   C2425     1.0  0.55952  0.71864  0.43300  1.0000
  H   H1927     1.0  0.00070  0.55811  0.31381  1.0000
  C   C2426     1.0  0.90963  0.99271  0.26293  1.0000
  S   S331      1.0  0.95176  0.68307  0.33179  1.0000
  H   H1928     1.0  0.62219  0.98230  0.38521  1.0000
  H   H1929     1.0  0.90565  0.65596  0.29184  1.0000
  C   C2427     1.0  0.94869  0.55073  0.32035  1.0000
  C   C2428     1.0  0.98077  0.54054  0.31534  1.0000
  H   H1930     1.0  0.95949  0.52974  0.23900  1.0000
  C   C2429     1.0  0.86334  0.82135  0.29930  1.0000
  C   C2430     1.0  0.87378  0.80187  0.31188  1.0000
  C   C2431     1.0  0.89990  0.77864  0.31012  1.0000
  C   C2432     1.0  0.91585  0.77487  0.29574  1.0000
  C   C2433     1.0  0.90538  0.79434  0.28322  1.0000
  C   C2434     1.0  0.87914  0.81727  0.28494  1.0000
  H   H1931     1.0  0.86172  0.80486  0.32304  1.0000
  H   H1932     1.0  0.90776  0.76381  0.31987  1.0000
  H   H1933     1.0  0.91781  0.79173  0.27211  1.0000
  H   H1934     1.0  0.87141  0.83199  0.27517  1.0000
  C   C2435     1.0  0.66833  0.95645  0.38037  1.0000
  H   H1935     1.0  0.97358  0.76755  0.33546  1.0000
  H   H1936     1.0  0.73953  0.99158  0.36332  1.0000
  H   H1937     1.0  0.60770  0.82483  0.32845  1.0000
  C   C2436     1.0  0.98699  0.95919  0.31444  1.0000
  C   C2437     1.0  0.54567  0.81810  0.39130  1.0000
  H   H1938     1.0  0.57630  0.82532  0.44984  1.0000
  C   C2438     1.0  0.70879  0.52944  0.22501  1.0000
  C   C2439     1.0  0.53610  0.81953  0.25410  1.0000
  C   C2440     1.0  0.52023  0.79560  0.42066  1.0000
  C   C2441     1.0  0.94528  0.84721  0.33346  1.0000
  H   H1939     1.0  0.88020  0.70510  0.30276  1.0000
  C   C2442     1.0  0.74311  0.85904  0.22724  1.0000
  C   C2443     1.0  0.71342  0.87429  0.23243  1.0000
  C   C2444     1.0  0.68333  0.86484  0.22782  1.0000
  H   H1940     1.0  0.96496  0.51715  0.26636  1.0000
  C   C2445     1.0  0.86524  0.83293  0.23657  1.0000
  H   H1941     1.0  0.71367  0.89343  0.23991  1.0000
  H   H1942     1.0  0.66055  0.87709  0.23164  1.0000
  C   C2446     1.0  0.55193  0.83610  0.40322  1.0000
  C   C2447     1.0  0.93817  0.87858  0.28486  1.0000
  H   H1943     1.0  0.81181  0.77309  0.22695  1.0000
  C   C2448     1.0  0.97334  0.55337  0.38837  1.0000
  C   C2449     1.0  0.66751  0.71717  0.45627  1.0000
  S   S332      1.0  0.01038  0.70399  0.36266  1.0000
  P   P81       1.0  0.62427  0.77145  0.45267  1.0000
  C   C2450     1.0  0.85584  0.92187  0.32089  1.0000
  C   C2451     1.0  0.92316  0.52736  0.32239  1.0000
  H   H1944     1.0  0.89629  0.64541  0.26590  1.0000
  H   H1945     1.0  0.83203  0.55320  0.35208  1.0000
  C   C2452     1.0  0.86911  0.52178  0.36187  1.0000
  C   C2453     1.0  0.67654  0.86356  0.42700  1.0000
  H   H1946     1.0  0.83153  0.94812  0.33870  1.0000
  H   H1947     1.0  0.51271  0.81798  0.24949  1.0000
  C   C2454     1.0  0.62248  0.74543  0.42518  1.0000
  C   C2455     1.0  0.57434  0.73482  0.44345  1.0000
  C   C2456     1.0  0.77565  0.70287  0.22027  1.0000
  C   C2457     1.0  0.93586  0.88083  0.26934  1.0000
  C   C2458     1.0  0.79604  0.79072  0.27666  1.0000
  H   H1948     1.0  0.96892  0.58838  0.35248  1.0000
  C   C2459     1.0  0.56534  0.82448  0.24441  1.0000
  C   C2460     1.0  0.52980  0.73666  0.25054  1.0000
  C   C2461     1.0  0.65761  0.77517  0.25529  1.0000
  H   H1949     1.0  0.77333  0.82411  0.29197  1.0000
  H   H1950     1.0  0.55568  0.82660  0.37989  1.0000
  H   H1951     1.0  0.68828  0.88569  0.42123  1.0000
  C   C2462     1.0  0.94214  0.51865  0.37466  1.0000
  H   H1952     1.0  0.83288  0.00887  0.26429  1.0000
  C   C2463     1.0  0.80364  0.74782  0.22901  1.0000
  C   C2464     1.0  0.64940  0.85055  0.42149  1.0000
  H   H1953     1.0  0.99018  0.84479  0.29913  1.0000
  H   H1954     1.0  0.99211  0.80418  0.27050  1.0000
  H   H1955     1.0  0.92706  0.85786  0.29207  1.0000
  C   C2465     1.0  0.85497  0.77766  0.24913  1.0000
  H   H1956     1.0  0.99168  0.59886  0.37596  1.0000
  H   H1957     1.0  0.84509  0.74344  0.28818  1.0000
  C   C2466     1.0  0.73884  0.75326  0.28465  1.0000
  C   C2467     1.0  0.95558  0.52454  0.38790  1.0000
  H   H1958     1.0  0.73217  0.75468  0.23734  1.0000
  H   H1959     1.0  0.71761  0.93773  0.37478  1.0000
  C   C2468     1.0  0.76423  0.74238  0.27440  1.0000
  H   H1960     1.0  0.89924  0.74721  0.25124  1.0000
  C   C2469     1.0  0.60742  0.72945  0.41472  1.0000
  H   H1961     1.0  0.65879  0.93277  0.38553  1.0000
  H   H1962     1.0  0.64028  0.86236  0.41131  1.0000
  H   H1963     1.0  0.69117  0.53791  0.23381  1.0000
  C   C2470     1.0  0.57160  0.81281  0.46110  1.0000
  H   H1964     1.0  0.61181  0.81387  0.42500  1.0000
  H   H1965     1.0  0.68110  0.81039  0.45845  1.0000
  C   C2471     1.0  0.88437  0.66646  0.27078  1.0000
  H   H1966     1.0  0.52225  0.77537  0.38477  1.0000
  C   C2472     1.0  0.53875  0.82484  0.41791  1.0000
  H   H1967     1.0  0.74932  0.80206  0.24980  1.0000
  H   H1968     1.0  0.99805  0.78714  0.30946  1.0000
  C   C2473     1.0  0.90069  0.98753  0.27850  1.0000
  C   C2474     1.0  0.95046  0.81452  0.33941  1.0000
  H   H1969     1.0  0.98344  0.55797  0.39863  1.0000
  C   C2475     1.0  0.74199  0.78287  0.29087  1.0000
  H   H1970     1.0  0.72252  0.57866  0.21537  1.0000
  C   C2476     1.0  0.70141  0.95927  0.37429  1.0000
  C   C2477     1.0  0.63344  0.82280  0.42928  1.0000
  H   H1971     1.0  0.71675  0.73870  0.28778  1.0000
  C   C2478     1.0  0.80816  0.72833  0.24259  1.0000
  C   C2479     1.0  0.51409  0.77749  0.40877  1.0000
  H   H1972     1.0  0.56083  0.73693  0.45441  1.0000
  H   H1973     1.0  0.93053  0.86361  0.34034  1.0000
  C   C2480     1.0  0.77969  0.68340  0.23377  1.0000
  C   C2481     1.0  0.52664  0.78908  0.39402  1.0000
  H   H1974     1.0  0.69370  0.99850  0.46278  1.0000
  P   P82       1.0  0.95461  0.90109  0.31135  1.0000
  H   H1975     1.0  0.61789  0.83048  0.24269  1.0000
  C   C2482     1.0  0.84324  0.80893  0.24382  1.0000
  C   C2483     1.0  0.95934  0.85845  0.31884  1.0000
  H   H1976     1.0  0.51689  0.73442  0.27459  1.0000
  Fe  Fe164     1.0  0.00226  0.69008  0.33935  1.0000
  C   C2484     1.0  0.96752  0.93026  0.28151  1.0000
  C   C2485     1.0  0.96530  0.93233  0.26599  1.0000
  H   H1977     1.0  0.81820  0.80527  0.27408  1.0000
  H   H1978     1.0  0.88377  0.95887  0.34921  1.0000
  H   H1979     1.0  0.53538  0.73667  0.22635  1.0000
  C   C2486     1.0  0.91574  0.91678  0.31983  1.0000
  H   H1980     1.0  0.77003  0.65855  0.23563  1.0000
  Fe  Fe165     1.0  0.97353  0.63659  0.32257  1.0000
  H   H1981     1.0  0.89829  0.53493  0.32631  1.0000
  H   H1982     1.0  0.91084  0.99877  0.30043  1.0000
  C   C2487     1.0  0.88604  0.91066  0.31406  1.0000
  C   C2488     1.0  0.94731  0.54184  0.36189  1.0000
  C   C2489     1.0  0.88441  0.94557  0.33935  1.0000
  C   C2490     1.0  0.74237  0.83424  0.21752  1.0000
  C   C2491     1.0  0.68111  0.75800  0.24639  1.0000
  C   C2492     1.0  0.88921  0.77096  0.24720  1.0000
  C   C2493     1.0  0.98841  0.92453  0.31617  1.0000
  H   H1983     1.0  0.81701  0.81467  0.24515  1.0000
  H   H1984     1.0  0.93702  0.93829  0.33762  1.0000
  C   C2494     1.0  0.89920  0.82623  0.23485  1.0000
  S   S333      1.0  0.93926  0.59186  0.32469  1.0000
  H   H1985     1.0  0.97917  0.95015  0.28590  1.0000
  H   H1986     1.0  0.97498  0.95363  0.25871  1.0000
  C   C2495     1.0  0.68788  0.84869  0.44026  1.0000
  H   H1987     1.0  0.66025  0.70991  0.44587  1.0000
  C   C2496     1.0  0.96515  0.57054  0.36239  1.0000
  H   H1988     1.0  0.70816  0.85955  0.44482  1.0000
  H   H1989     1.0  0.76134  0.71923  0.26988  1.0000
  H   H1990     1.0  0.88588  0.89683  0.30442  1.0000
  H   H1991     1.0  0.63211  0.76737  0.25660  1.0000
  C   C2497     1.0  0.87507  0.69989  0.29163  1.0000
  C   C2498     1.0  0.64760  0.98432  0.38006  1.0000
  H   H1992     1.0  0.64682  0.75583  0.42194  1.0000
  C   C2499     1.0  0.95384  0.90337  0.29111  1.0000
  H   H1993     1.0  0.87699  0.54089  0.36816  1.0000
  H   H1994     1.0  0.91616  0.84514  0.22945  1.0000
  H   H1995     1.0  0.93757  0.79003  0.23898  1.0000
  C   C2500     1.0  0.97870  0.83660  0.31033  1.0000
  H   H1996     1.0  0.94623  0.91040  0.24799  1.0000
  C   C2501     1.0  0.96962  0.79289  0.33082  1.0000
  C   C2502     1.0  0.91119  0.79524  0.24017  1.0000
  C   C2503     1.0  0.71417  0.76753  0.24449  1.0000
  C   C2504     1.0  0.57587  0.71624  0.41860  1.0000
  H   H1997     1.0  0.93970  0.80587  0.35072  1.0000
  C   C2505     1.0  0.53708  0.81654  0.26973  1.0000
  H   H1998     1.0  0.01174  0.00421  0.31667  1.0000
  C   C2506     1.0  0.86455  0.68822  0.26236  1.0000
  H   H1999     1.0  0.64764  0.73362  0.31368  1.0000
  C   C2507     1.0  0.59549  0.82643  0.25034  1.0000
  C   C2508     1.0  0.59684  0.82301  0.26600  1.0000
  C   C2509     1.0  0.56731  0.81835  0.27569  1.0000
  P   P83       1.0  0.63633  0.82514  0.27335  1.0000
  C   C2510     1.0  0.66695  0.80249  0.26214  1.0000
  C   C2511     1.0  0.64882  0.86766  0.27271  1.0000
  C   C2512     1.0  0.63700  0.89221  0.26232  1.0000
  C   C2513     1.0  0.64712  0.92495  0.26181  1.0000
  C   C2514     1.0  0.66881  0.93350  0.27175  1.0000
  C   C2515     1.0  0.68047  0.90931  0.28219  1.0000
  C   C2516     1.0  0.67088  0.87647  0.28257  1.0000
  C   C2517     1.0  0.70030  0.81173  0.26026  1.0000
  C   C2518     1.0  0.98357  0.80393  0.31624  1.0000
  H   H2000     1.0  0.93753  0.53784  0.35152  1.0000
  C   C2519     1.0  0.63312  0.80643  0.29266  1.0000
  C   C2520     1.0  0.64287  0.77338  0.29608  1.0000
  C   C2521     1.0  0.64016  0.75913  0.31108  1.0000
  C   C2522     1.0  0.62756  0.77768  0.32273  1.0000
  C   C2523     1.0  0.61760  0.81050  0.31941  1.0000
  C   C2524     1.0  0.62028  0.82483  0.30444  1.0000
  C   C2525     1.0  0.51884  0.73212  0.23670  1.0000
  C   C2526     1.0  0.94918  0.90786  0.25992  1.0000
  S   S334      1.0  0.99120  0.66333  0.29997  1.0000
  C   C2527     1.0  0.60580  0.74872  0.43955  1.0000
  H   H2001     1.0  0.88055  0.97153  0.28298  1.0000
  H   H2002     1.0  0.62023  0.88626  0.25449  1.0000
  H   H2003     1.0  0.63826  0.94373  0.25366  1.0000
  H   H2004     1.0  0.67679  0.95886  0.27136  1.0000
  H   H2005     1.0  0.69734  0.91612  0.28986  1.0000
  H   H2006     1.0  0.68087  0.85801  0.29052  1.0000
  H   H2007     1.0  0.70835  0.83275  0.26526  1.0000
  H   H2008     1.0  0.72245  0.79133  0.29887  1.0000
  H   H2009     1.0  0.65243  0.75850  0.28723  1.0000
  C   C2528     1.0  0.77059  0.80149  0.28690  1.0000
  H   H2010     1.0  0.79804  0.68078  0.25541  1.0000
  C   C2529     1.0  0.97806  0.57640  0.37563  1.0000
  H   H2011     1.0  0.61219  0.85024  0.30205  1.0000
  H   H2012     1.0  0.61989  0.72786  0.40349  1.0000
  H   H2013     1.0  0.56740  0.81600  0.28781  1.0000
  H   H2014     1.0  0.86187  0.68401  0.25084  1.0000
  H   H2015     1.0  0.62534  0.76660  0.33435  1.0000
  H   H2016     1.0  0.53479  0.70886  0.43585  1.0000
  C   C2530     1.0  0.64502  0.80731  0.44253  1.0000
  C   C2531     1.0  0.67223  0.82073  0.44802  1.0000
  H   H2017     1.0  0.76302  0.00313  0.31519  1.0000
  H   H2018     1.0  0.83303  0.91637  0.31651  1.0000
  H   H2019     1.0  0.92298  0.86206  0.26466  1.0000
  P   P84       1.0  0.82626  0.74583  0.25753  1.0000
  C   C2532     1.0  0.79294  0.76119  0.27018  1.0000
  C   C2533     1.0  0.84940  0.71574  0.26864  1.0000
  C   C2534     1.0  0.85510  0.72158  0.28330  1.0000
  C   C2535     1.0  0.72377  0.79423  0.25149  1.0000
  H   H2020     1.0  0.56483  0.82681  0.23226  1.0000
  H   H2021     1.0  0.96577  0.97214  0.31020  1.0000
  C   C2536     1.0  0.84341  0.52880  0.35282  1.0000
  S   S335      1.0  0.65695  0.91739  0.45803  1.0000
  H   H2022     1.0  0.55484  0.74484  0.25090  1.0000
  H   H2023     1.0  0.70197  0.67634  0.45875  1.0000
  H   H2024     1.0  0.85585  0.85693  0.23236  1.0000
  C   C2537     1.0  0.68260  0.83976  0.21825  1.0000
  C   C2538     1.0  0.91814  0.00282  0.28841  1.0000
  C   C2539     1.0  0.78770  0.73504  0.21788  1.0000
  H   H2025     1.0  0.51434  0.81286  0.27723  1.0000
  H   H2026     1.0  0.51721  0.51923  0.39985  1.0000
  C   C2540     1.0  0.72633  0.55240  0.21459  1.0000
  C   C2541     1.0  0.65361  0.74540  0.46239  1.0000
  C   C2542     1.0  0.69127  0.69802  0.46355  1.0000
  H   H2027     1.0  0.65605  0.01071  0.43012  1.0000
  S   S336      1.0  0.93373  0.85177  0.67503  1.0000
  C   C2543     1.0  0.90319  0.54075  0.55249  1.0000
  Fe  Fe166     1.0  0.60670  0.57105  0.58700  1.0000
  S   S337      1.0  0.65429  0.55132  0.59509  1.0000
  S   S338      1.0  0.60177  0.61944  0.57253  1.0000
  Fe  Fe167     1.0  0.62320  0.53754  0.61714  1.0000
  S   S339      1.0  0.63352  0.55025  0.64042  1.0000
  S   S340      1.0  0.57645  0.56081  0.60938  1.0000
  Fe  Fe168     1.0  0.73380  0.75385  0.55122  1.0000
  S   S341      1.0  0.78230  0.77905  0.55044  1.0000
  S   S342      1.0  0.72307  0.71450  0.57048  1.0000
  Fe  Fe169     1.0  0.71488  0.79436  0.52302  1.0000
  S   S343      1.0  0.76265  0.82242  0.51963  1.0000
  S   S344      1.0  0.66978  0.80005  0.50998  1.0000
  Fe  Fe170     1.0  0.78737  0.77304  0.52579  1.0000
  S   S345      1.0  0.83463  0.75384  0.51313  1.0000
  Fe  Fe171     1.0  0.75376  0.82598  0.54473  1.0000
  S   S346      1.0  0.76211  0.87206  0.55611  1.0000
  S   S347      1.0  0.74011  0.74474  0.52693  1.0000
  S   S348      1.0  0.70488  0.80085  0.54776  1.0000
  Fe  Fe172     1.0  0.79339  0.71917  0.68488  1.0000
  S   S349      1.0  0.75029  0.75373  0.68873  1.0000
  S   S350      1.0  0.84184  0.72641  0.69462  1.0000
  Fe  Fe173     1.0  0.75304  0.67416  0.66804  1.0000
  S   S351      1.0  0.70701  0.70550  0.67101  1.0000
  S   S352      1.0  0.75745  0.63288  0.65262  1.0000
  Fe  Fe174     1.0  0.74143  0.74815  0.66498  1.0000
  S   S353      1.0  0.73216  0.78876  0.64690  1.0000
  Fe  Fe175     1.0  0.71998  0.70773  0.69461  1.0000
  S   S354      1.0  0.78703  0.71707  0.66051  1.0000
  S   S355      1.0  0.76367  0.67299  0.69230  1.0000
  Fe  Fe176     1.0  0.63152  0.96517  0.61047  1.0000
  S   S356      1.0  0.58380  0.94327  0.62203  1.0000
  S   S357      1.0  0.64284  0.95576  0.58590  1.0000
  H   H2028     1.0  0.60481  0.84252  0.58204  1.0000
  Fe  Fe177     1.0  0.61295  0.93161  0.64181  1.0000
  S   S358      1.0  0.60920  0.88461  0.65766  1.0000
  C   C2544     1.0  0.57736  0.73615  0.59497  1.0000
  S   S359      1.0  0.66146  0.94942  0.62968  1.0000
  H   H2029     1.0  0.66866  0.95624  0.48211  1.0000
  H   H2030     1.0  0.83959  0.56651  0.53015  1.0000
  S   S360      1.0  0.94868  0.66600  0.54230  1.0000
  H   H2031     1.0  0.56382  0.56729  0.70552  1.0000
  H   H2032     1.0  0.91482  0.82199  0.61569  1.0000
  H   H2033     1.0  0.69606  0.74250  0.49328  1.0000
  H   H2034     1.0  0.95399  0.54592  0.51184  1.0000
  C   C2545     1.0  0.69655  0.81335  0.65021  1.0000
  C   C2546     1.0  0.68353  0.83094  0.63787  1.0000
  C   C2547     1.0  0.65722  0.85344  0.64008  1.0000
  C   C2548     1.0  0.64306  0.85759  0.65470  1.0000
  C   C2549     1.0  0.65551  0.83939  0.66707  1.0000
  C   C2550     1.0  0.68234  0.81731  0.66485  1.0000
  H   H2035     1.0  0.69392  0.82707  0.62660  1.0000
  H   H2036     1.0  0.64772  0.86730  0.63047  1.0000
  H   H2037     1.0  0.64472  0.84286  0.67839  1.0000
  H   H2038     1.0  0.69236  0.80384  0.67443  1.0000
  H   H2039     1.0  0.66470  0.65226  0.70155  1.0000
  H   H2040     1.0  0.71741  0.51237  0.54413  1.0000
  C   C2551     1.0  0.66641  0.83275  0.49553  1.0000
  C   C2552     1.0  0.69326  0.85294  0.48999  1.0000
  H   H2041     1.0  0.71673  0.84871  0.49454  1.0000
  C   C2553     1.0  0.72841  0.89448  0.56460  1.0000
  C   C2554     1.0  0.69555  0.88775  0.56286  1.0000
  C   C2555     1.0  0.66952  0.90625  0.56976  1.0000
  C   C2556     1.0  0.67592  0.93065  0.57895  1.0000
  C   C2557     1.0  0.70873  0.93722  0.58081  1.0000
  C   C2558     1.0  0.73482  0.91969  0.57338  1.0000
  H   H2042     1.0  0.69019  0.86879  0.55597  1.0000
  H   H2043     1.0  0.64428  0.90185  0.56794  1.0000
  H   H2044     1.0  0.71400  0.95681  0.58741  1.0000
  H   H2045     1.0  0.76009  0.92596  0.57424  1.0000
  C   C2559     1.0  0.86634  0.72975  0.52142  1.0000
  C   C2560     1.0  0.89261  0.71702  0.51203  1.0000
  C   C2561     1.0  0.91796  0.69736  0.51816  1.0000
  C   C2562     1.0  0.91746  0.69044  0.53381  1.0000
  C   C2563     1.0  0.89126  0.70326  0.54318  1.0000
  C   C2564     1.0  0.86577  0.72265  0.53706  1.0000
  H   H2046     1.0  0.89337  0.72239  0.49991  1.0000
  H   H2047     1.0  0.93800  0.68782  0.51078  1.0000
  H   H2048     1.0  0.89083  0.69832  0.55526  1.0000
  H   H2049     1.0  0.84560  0.73196  0.54442  1.0000
  C   C2565     1.0  0.63531  0.64624  0.57188  1.0000
  C   C2566     1.0  0.63903  0.67347  0.56085  1.0000
  C   C2567     1.0  0.66629  0.69445  0.56005  1.0000
  C   C2568     1.0  0.68946  0.68845  0.57046  1.0000
  C   C2569     1.0  0.68571  0.66134  0.58143  1.0000
  C   C2570     1.0  0.65874  0.64032  0.58215  1.0000
  H   H2050     1.0  0.62104  0.67811  0.55282  1.0000
  H   H2051     1.0  0.66927  0.71532  0.55148  1.0000
  H   H2052     1.0  0.70390  0.65655  0.58934  1.0000
  H   H2053     1.0  0.65609  0.61965  0.59070  1.0000
  C   C2571     1.0  0.66810  0.57369  0.64336  1.0000
  C   C2572     1.0  0.66746  0.58883  0.65678  1.0000
  C   C2573     1.0  0.69426  0.60766  0.65957  1.0000
  C   C2574     1.0  0.72257  0.61072  0.64915  1.0000
  C   C2575     1.0  0.72363  0.59500  0.63587  1.0000
  C   C2576     1.0  0.69638  0.57690  0.63288  1.0000
  H   H2054     1.0  0.64626  0.58584  0.66515  1.0000
  H   H2055     1.0  0.69326  0.61929  0.66991  1.0000
  H   H2056     1.0  0.74555  0.59697  0.62780  1.0000
  H   H2057     1.0  0.69743  0.56509  0.62259  1.0000
  C   C2577     1.0  0.73529  0.86002  0.60488  1.0000
  C   C2578     1.0  0.94738  0.96406  0.69661  1.0000
  C   C2579     1.0  0.92040  0.98003  0.69043  1.0000
  C   C2580     1.0  0.76376  0.99684  0.60891  1.0000
  H   H2058     1.0  0.95074  0.93767  0.69641  1.0000
  H   H2059     1.0  0.90328  0.96598  0.68536  1.0000
  C   C2581     1.0  0.90813  0.81719  0.68115  1.0000
  C   C2582     1.0  0.87819  0.81491  0.67489  1.0000
  C   C2583     1.0  0.85743  0.78754  0.67909  1.0000
  C   C2584     1.0  0.86645  0.76207  0.68963  1.0000
  C   C2585     1.0  0.89589  0.76478  0.69627  1.0000
  C   C2586     1.0  0.91651  0.79237  0.69216  1.0000
  H   H2060     1.0  0.87078  0.83470  0.66691  1.0000
  H   H2061     1.0  0.83448  0.78599  0.67419  1.0000
  H   H2062     1.0  0.90290  0.74532  0.70455  1.0000
  H   H2063     1.0  0.93892  0.79437  0.69744  1.0000
  C   C2587     1.0  0.66103  0.90201  0.51749  1.0000
  H   H2064     1.0  0.87074  0.99278  0.65592  1.0000
  C   C2588     1.0  0.57157  0.99306  0.52378  1.0000
  C   C2589     1.0  0.90829  0.74177  0.64206  1.0000
  P   P85       1.0  0.62488  0.95974  0.50978  1.0000
  C   C2590     1.0  0.59557  0.93423  0.50276  1.0000
  C   C2591     1.0  0.57753  0.91067  0.51283  1.0000
  C   C2592     1.0  0.55298  0.89235  0.50789  1.0000
  C   C2593     1.0  0.54577  0.89792  0.49294  1.0000
  C   C2594     1.0  0.56342  0.92141  0.48290  1.0000
  C   C2595     1.0  0.58841  0.93939  0.48771  1.0000
  H   H2065     1.0  0.87980  0.80783  0.59685  1.0000
  Fe  Fe178     1.0  0.57377  0.99278  0.63053  1.0000
  C   C2596     1.0  0.55755  0.77999  0.49002  1.0000
  C   C2597     1.0  0.53860  0.80759  0.48541  1.0000
  H   H2066     1.0  0.58232  0.90672  0.52453  1.0000
  H   H2067     1.0  0.72015  0.69245  0.48247  1.0000
  C   C2598     1.0  0.79833  0.00779  0.68472  1.0000
  C   C2599     1.0  0.72369  0.86015  0.69571  1.0000
  C   C2600     1.0  0.54032  0.84699  0.62511  1.0000
  H   H2068     1.0  0.86345  0.85723  0.69679  1.0000
  H   H2069     1.0  0.64062  0.88798  0.51488  1.0000
  H   H2070     1.0  0.97525  0.86770  0.64573  1.0000
  C   C2601     1.0  0.66419  0.75425  0.47578  1.0000
  H   H2071     1.0  0.52996  0.61833  0.64729  1.0000
  H   H2072     1.0  0.83590  0.53842  0.59322  1.0000
  C   C2602     1.0  0.61092  0.79135  0.57728  1.0000
  C   C2603     1.0  0.61829  0.77067  0.56572  1.0000
  C   C2604     1.0  0.62400  0.78406  0.55065  1.0000
  C   C2605     1.0  0.62278  0.81824  0.54697  1.0000
  C   C2606     1.0  0.61602  0.83906  0.55837  1.0000
  C   C2607     1.0  0.61016  0.82577  0.57348  1.0000
  C   C2608     1.0  0.58912  0.70491  0.60046  1.0000
  C   C2609     1.0  0.57325  0.67628  0.59791  1.0000
  C   C2610     1.0  0.54605  0.67843  0.58963  1.0000
  C   C2611     1.0  0.69366  0.74498  0.60559  1.0000
  C   C2612     1.0  0.66576  0.75288  0.59802  1.0000
  H   H2073     1.0  0.61942  0.74409  0.56831  1.0000
  H   H2074     1.0  0.63002  0.76804  0.54177  1.0000
  H   H2075     1.0  0.62775  0.82853  0.53528  1.0000
  H   H2076     1.0  0.61536  0.86555  0.55544  1.0000
  H   H2077     1.0  0.61115  0.70231  0.60627  1.0000
  H   H2078     1.0  0.58308  0.65217  0.60161  1.0000
  H   H2079     1.0  0.95735  0.70965  0.67545  1.0000
  H   H2080     1.0  0.71665  0.73793  0.59938  1.0000
  H   H2081     1.0  0.66762  0.75185  0.58594  1.0000
  C   C2613     1.0  0.69721  0.59215  0.54907  1.0000
  C   C2614     1.0  0.86860  0.80917  0.60829  1.0000
  H   H2082     1.0  0.67706  0.60678  0.55402  1.0000
  C   C2615     1.0  0.51340  0.67962  0.66079  1.0000
  H   H2083     1.0  0.52632  0.88434  0.48911  1.0000
  H   H2084     1.0  0.72113  0.00138  0.62546  1.0000
  C   C2616     1.0  0.99466  0.84909  0.64467  1.0000
  S   S361      1.0  0.01047  0.51722  0.52649  1.0000
  H   H2085     1.0  0.53060  0.84498  0.46717  1.0000
  Fe  Fe179     1.0  0.64640  0.99861  0.63800  1.0000
  C   C2617     1.0  0.75170  0.58861  0.53518  1.0000
  C   C2618     1.0  0.85696  0.59023  0.50830  1.0000
  H   H2086     1.0  0.89832  0.69716  0.67649  1.0000
  C   C2619     1.0  0.76223  0.94942  0.63651  1.0000
  H   H2087     1.0  0.55211  0.76721  0.50123  1.0000
  H   H2088     1.0  0.80975  0.84041  0.70946  1.0000
  C   C2620     1.0  0.75495  0.98797  0.70403  1.0000
  H   H2089     1.0  0.59749  0.74702  0.48387  1.0000
  C   C2621     1.0  0.94400  0.71939  0.66614  1.0000
  H   H2090     1.0  0.54686  0.88409  0.67909  1.0000
  C   C2622     1.0  0.68796  0.73516  0.48300  1.0000
  C   C2623     1.0  0.68798  0.95389  0.51884  1.0000
  C   C2624     1.0  0.52623  0.56671  0.64484  1.0000
  C   C2625     1.0  0.57449  0.85010  0.62160  1.0000
  H   H2091     1.0  0.83311  0.97149  0.67684  1.0000
  C   C2626     1.0  0.80274  0.56185  0.49811  1.0000
  C   C2627     1.0  0.81117  0.54073  0.58977  1.0000
  S   S362      1.0  0.59934  0.97938  0.65136  1.0000
  H   H2092     1.0  0.60167  0.95742  0.47965  1.0000
  H   H2093     1.0  0.78204  0.55101  0.49393  1.0000
  C   C2628     1.0  0.60240  0.97766  0.52555  1.0000
  C   C2629     1.0  0.51778  0.97430  0.68429  1.0000
  H   H2094     1.0  0.95624  0.54548  0.54979  1.0000
  H   H2095     1.0  0.87814  0.60102  0.51221  1.0000
  H   H2096     1.0  0.61523  0.82301  0.49364  1.0000
  P   P86       1.0  0.78079  0.52931  0.52647  1.0000
  H   H2097     1.0  0.68965  0.85821  0.52328  1.0000
  H   H2098     1.0  0.77348  0.60113  0.52948  1.0000
  H   H2099     1.0  0.71199  0.96254  0.66846  1.0000
  H   H2100     1.0  0.79524  0.80246  0.63078  1.0000
  C   C2630     1.0  0.69448  0.55789  0.54995  1.0000
  H   H2101     1.0  0.75110  0.78306  0.58303  1.0000
  C   C2631     1.0  0.83360  0.65251  0.53150  1.0000
  C   C2632     1.0  0.80457  0.67142  0.53303  1.0000
  C   C2633     1.0  0.78414  0.66845  0.54667  1.0000
  C   C2634     1.0  0.79249  0.64635  0.55874  1.0000
  C   C2635     1.0  0.82145  0.62690  0.55727  1.0000
  C   C2636     1.0  0.84227  0.63062  0.54357  1.0000
  P   P87       1.0  0.83286  0.59943  0.57320  1.0000
  C   C2637     1.0  0.87215  0.58005  0.56744  1.0000
  C   C2638     1.0  0.83716  0.62423  0.58848  1.0000
  C   C2639     1.0  0.85393  0.65432  0.58546  1.0000
  C   C2640     1.0  0.85942  0.67274  0.59723  1.0000
  C   C2641     1.0  0.84727  0.66182  0.61208  1.0000
  C   C2642     1.0  0.82954  0.63248  0.61517  1.0000
  C   C2643     1.0  0.82445  0.61375  0.60344  1.0000
  C   C2644     1.0  0.87293  0.55319  0.55878  1.0000
  C   C2645     1.0  0.86562  0.87469  0.70488  1.0000
  H   H2102     1.0  0.86839  0.61155  0.48533  1.0000
  H   H2103     1.0  0.54589  0.55922  0.65178  1.0000
  C   C2646     1.0  0.90220  0.59375  0.56993  1.0000
  C   C2647     1.0  0.80283  0.56736  0.57950  1.0000
  C   C2648     1.0  0.94172  0.74978  0.64151  1.0000
  H   H2104     1.0  0.83341  0.95790  0.64457  1.0000
  H   H2105     1.0  0.58734  0.86952  0.62588  1.0000
  H   H2106     1.0  0.51842  0.81622  0.49301  1.0000
  C   C2649     1.0  0.77065  0.56950  0.57514  1.0000
  H   H2107     1.0  0.85014  0.65602  0.52111  1.0000
  H   H2108     1.0  0.79854  0.68920  0.52379  1.0000
  H   H2109     1.0  0.76194  0.68358  0.54789  1.0000
  H   H2110     1.0  0.77626  0.64447  0.56920  1.0000
  H   H2111     1.0  0.86568  0.61749  0.54216  1.0000
  H   H2112     1.0  0.86342  0.66310  0.57401  1.0000
  H   H2113     1.0  0.87310  0.69548  0.59482  1.0000
  H   H2114     1.0  0.85099  0.67634  0.62119  1.0000
  H   H2115     1.0  0.81930  0.62448  0.62666  1.0000
  H   H2116     1.0  0.81044  0.59134  0.60623  1.0000
  H   H2117     1.0  0.85011  0.54265  0.55648  1.0000
  P   P88       1.0  0.00322  0.74837  0.65254  1.0000
  C   C2650     1.0  0.61451  0.97544  0.53972  1.0000
  C   C2651     1.0  0.51753  0.60008  0.64213  1.0000
  H   H2118     1.0  0.90281  0.61490  0.57617  1.0000
  H   H2119     1.0  0.95524  0.59246  0.56538  1.0000
  H   H2120     1.0  0.71291  0.53274  0.68787  1.0000
  C   C2652     1.0  0.86603  0.91876  0.60189  1.0000
  C   C2653     1.0  0.67736  0.00605  0.47225  1.0000
  H   H2121     1.0  0.76340  0.58906  0.56704  1.0000
  C   C2654     1.0  0.57776  0.58244  0.68189  1.0000
  C   C2655     1.0  0.56654  0.58785  0.69675  1.0000
  C   C2656     1.0  0.55935  0.61995  0.70038  1.0000
  C   C2657     1.0  0.56396  0.64672  0.68924  1.0000
  C   C2658     1.0  0.57618  0.64162  0.67435  1.0000
  C   C2659     1.0  0.58224  0.60915  0.67070  1.0000
  P   P89       1.0  0.58228  0.67637  0.65998  1.0000
  C   C2660     1.0  0.54386  0.68615  0.65207  1.0000
  C   C2661     1.0  0.59520  0.71204  0.66811  1.0000
  C   C2662     1.0  0.58629  0.74412  0.66235  1.0000
  C   C2663     1.0  0.59624  0.77158  0.66877  1.0000
  C   C2664     1.0  0.61486  0.76713  0.68104  1.0000
  C   C2665     1.0  0.62439  0.73542  0.68660  1.0000
  C   C2666     1.0  0.61499  0.70797  0.68007  1.0000
  C   C2667     1.0  0.54417  0.70133  0.63724  1.0000
  C   C2668     1.0  0.71660  0.90223  0.52479  1.0000
  C   C2669     1.0  0.61406  0.66631  0.64533  1.0000
  C   C2670     1.0  0.60675  0.64651  0.63426  1.0000
  C   C2671     1.0  0.63155  0.63789  0.62323  1.0000
  C   C2672     1.0  0.66364  0.64947  0.62297  1.0000
  C   C2673     1.0  0.67114  0.66916  0.63390  1.0000
  C   C2674     1.0  0.64652  0.67748  0.64508  1.0000
  H   H2122     1.0  0.58357  0.55758  0.67903  1.0000
  H   H2123     1.0  0.69970  0.86514  0.69169  1.0000
  C   C2675     1.0  0.52019  0.96278  0.67001  1.0000
  H   H2124     1.0  0.55841  0.67140  0.69236  1.0000
  H   H2125     1.0  0.59117  0.60419  0.65933  1.0000
  H   H2126     1.0  0.57175  0.74813  0.65292  1.0000
  H   H2127     1.0  0.62211  0.78823  0.68623  1.0000
  H   H2128     1.0  0.63919  0.73213  0.69597  1.0000
  H   H2129     1.0  0.62323  0.68364  0.68440  1.0000
  H   H2130     1.0  0.56741  0.70738  0.63051  1.0000
  C   C2676     1.0  0.58356  0.76879  0.48018  1.0000
  H   H2131     1.0  0.58219  0.63695  0.63433  1.0000
  H   H2132     1.0  0.62617  0.62129  0.61518  1.0000
  H   H2133     1.0  0.68304  0.64204  0.61469  1.0000
  H   H2134     1.0  0.69636  0.67710  0.63401  1.0000
  H   H2135     1.0  0.65315  0.69225  0.65356  1.0000
  H   H2136     1.0  0.77160  0.92924  0.59979  1.0000
  H   H2137     1.0  0.73045  0.88180  0.61074  1.0000
  H   H2138     1.0  0.54302  0.90406  0.70441  1.0000
  C   C2677     1.0  0.63601  0.76217  0.60607  1.0000
  C   C2678     1.0  0.82917  0.88861  0.64861  1.0000
  C   C2679     1.0  0.86282  0.89532  0.64502  1.0000
  C   C2680     1.0  0.88090  0.90638  0.65580  1.0000
  C   C2681     1.0  0.86549  0.91036  0.67023  1.0000
  C   C2682     1.0  0.83184  0.90294  0.67410  1.0000
  C   C2683     1.0  0.81365  0.89251  0.66307  1.0000
  P   P90       1.0  0.81217  0.90780  0.69290  1.0000
  C   C2684     1.0  0.52381  0.82169  0.61976  1.0000
  H   H2139     1.0  0.51400  0.71089  0.57711  1.0000
  C   C2685     1.0  0.77663  0.00571  0.59383  1.0000
  H   H2140     1.0  0.51722  0.51711  0.64006  1.0000
  C   C2686     1.0  0.79515  0.94919  0.69335  1.0000
  C   C2687     1.0  0.81082  0.97559  0.68418  1.0000
  C   C2688     1.0  0.66245  0.75508  0.62925  1.0000
  H   H2141     1.0  0.81518  0.88001  0.64024  1.0000
  H   H2142     1.0  0.87496  0.89176  0.63392  1.0000
  H   H2143     1.0  0.90716  0.91113  0.65317  1.0000
  H   H2144     1.0  0.88025  0.91846  0.67843  1.0000
  H   H2145     1.0  0.78764  0.88701  0.66560  1.0000
  C   C2689     1.0  0.59618  0.98884  0.55183  1.0000
  H   H2146     1.0  0.75308  0.59755  0.70970  1.0000
  C   C2690     1.0  0.53825  0.90905  0.68061  1.0000
  C   C2691     1.0  0.98687  0.81556  0.64771  1.0000
  C   C2692     1.0  0.84685  0.82785  0.55632  1.0000
  C   C2693     1.0  0.87100  0.80445  0.55225  1.0000
  C   C2694     1.0  0.87660  0.77685  0.56237  1.0000
  C   C2695     1.0  0.85725  0.77199  0.57632  1.0000
  C   C2696     1.0  0.83244  0.79504  0.58035  1.0000
  C   C2697     1.0  0.82800  0.82338  0.57040  1.0000
  P   P91       1.0  0.80907  0.79013  0.59880  1.0000
  C   C2698     1.0  0.77096  0.81390  0.59807  1.0000
  C   C2699     1.0  0.79581  0.74771  0.60345  1.0000
  C   C2700     1.0  0.78620  0.73516  0.61849  1.0000
  C   C2701     1.0  0.77262  0.70366  0.62187  1.0000
  C   C2702     1.0  0.76831  0.68439  0.61032  1.0000
  C   C2703     1.0  0.77816  0.69640  0.59538  1.0000
  C   C2704     1.0  0.79155  0.72794  0.59190  1.0000
  C   C2705     1.0  0.76509  0.84224  0.60569  1.0000
  C   C2706     1.0  0.71709  0.82185  0.58874  1.0000
  C   C2707     1.0  0.74690  0.80420  0.58939  1.0000
  C   C2708     1.0  0.83474  0.80278  0.61244  1.0000
  C   C2709     1.0  0.82141  0.80580  0.62737  1.0000
  H   H2147     1.0  0.88510  0.80747  0.54119  1.0000
  H   H2148     1.0  0.89567  0.75901  0.55923  1.0000
  H   H2149     1.0  0.86173  0.75042  0.58399  1.0000
  H   H2150     1.0  0.80937  0.84163  0.57331  1.0000
  H   H2151     1.0  0.78795  0.74974  0.62769  1.0000
  H   H2152     1.0  0.76473  0.69436  0.63344  1.0000
  H   H2153     1.0  0.75742  0.66014  0.61298  1.0000
  H   H2154     1.0  0.77449  0.68169  0.58641  1.0000
  H   H2155     1.0  0.79733  0.73710  0.58013  1.0000
  H   H2156     1.0  0.78339  0.85086  0.61214  1.0000
  H   H2157     1.0  0.69879  0.81437  0.58192  1.0000
  S   S363      1.0  0.98228  0.86793  0.70878  1.0000
  C   C2710     1.0  0.68976  0.87892  0.47860  1.0000
  C   C2711     1.0  0.78731  0.51761  0.59610  1.0000
  H   H2158     1.0  0.71401  0.74155  0.62687  1.0000
  C   C2712     1.0  0.70152  0.70703  0.47690  1.0000
  C   C2713     1.0  0.81331  0.94398  0.61042  1.0000
  H   H2159     1.0  0.69755  0.90425  0.66653  1.0000
  Fe  Fe180     1.0  0.98220  0.86210  0.68425  1.0000
  C   C2714     1.0  0.69217  0.74674  0.62111  1.0000
  C   C2715     1.0  0.63616  0.83846  0.48940  1.0000
  C   C2716     1.0  0.74902  0.55409  0.53593  1.0000
  H   H2160     1.0  0.53296  0.92178  0.65706  1.0000
  H   H2161     1.0  0.76593  0.90277  0.62681  1.0000
  H   H2162     1.0  0.68808  0.86327  0.59607  1.0000
  C   C2717     1.0  0.82436  0.58201  0.48806  1.0000
  P   P92       1.0  0.59989  0.77323  0.59649  1.0000
  C   C2718     1.0  0.72022  0.53892  0.54342  1.0000
  H   H2163     1.0  0.80425  0.89192  0.58379  1.0000
  C   C2719     1.0  0.74699  0.54613  0.58136  1.0000
  H   H2164     1.0  0.75281  0.99122  0.64947  1.0000
  C   C2720     1.0  0.73170  0.00744  0.61392  1.0000
  C   C2721     1.0  0.74850  0.88388  0.69270  1.0000
  C   C2722     1.0  0.71115  0.84952  0.59661  1.0000
  C   C2723     1.0  0.93233  0.58102  0.56375  1.0000
  H   H2165     1.0  0.84209  0.84909  0.54843  1.0000
  H   H2166     1.0  0.68795  0.98064  0.51763  1.0000
  C   C2724     1.0  0.55335  0.00645  0.53592  1.0000
  C   C2725     1.0  0.93286  0.55469  0.55495  1.0000
  H   H2167     1.0  0.73852  0.88897  0.52801  1.0000
  C   C2726     1.0  0.55004  0.73807  0.58658  1.0000
  H   H2168     1.0  0.72219  0.54786  0.57798  1.0000
  C   C2727     1.0  0.54150  0.79936  0.61095  1.0000
  H   H2169     1.0  0.51510  0.97929  0.66020  1.0000
  H   H2170     1.0  0.58958  0.79638  0.66429  1.0000
  C   C2728     1.0  0.56566  0.00436  0.54994  1.0000
  C   C2729     1.0  0.84175  0.81326  0.63808  1.0000
  C   C2730     1.0  0.63433  0.76228  0.62183  1.0000
  Fe  Fe181     1.0  0.56565  0.51158  0.60178  1.0000
  H   H2171     1.0  0.54171  0.76177  0.58153  1.0000
  C   C2731     1.0  0.84768  0.94041  0.61085  1.0000
  H   H2172     1.0  0.53882  0.57797  0.57383  1.0000
  H   H2173     1.0  0.55753  0.92584  0.47136  1.0000
  C   C2732     1.0  0.77986  0.87737  0.69763  1.0000
  H   H2174     1.0  0.61869  0.83114  0.61001  1.0000
  C   C2733     1.0  0.95969  0.73917  0.65369  1.0000
  C   C2734     1.0  0.71633  0.91656  0.65847  1.0000
  H   H2175     1.0  0.66143  0.75630  0.64132  1.0000
  H   H2176     1.0  0.86458  0.88454  0.58517  1.0000
  H   H2177     1.0  0.73737  0.94993  0.52554  1.0000
  H   H2178     1.0  0.56163  0.99467  0.51299  1.0000
  C   C2735     1.0  0.71601  0.93667  0.52329  1.0000
  H   H2179     1.0  0.74339  0.90719  0.68634  1.0000
  C   C2736     1.0  0.88874  0.81734  0.61896  1.0000
  C   C2737     1.0  0.57588  0.80238  0.60734  1.0000
  C   C2738     1.0  0.85460  0.00379  0.64786  1.0000
  S   S364      1.0  0.99303  0.61349  0.50978  1.0000
  H   H2180     1.0  0.61156  0.76852  0.62841  1.0000
  H   H2181     1.0  0.86653  0.71749  0.65536  1.0000
  C   C2739     1.0  0.69131  0.51834  0.69244  1.0000
  C   C2740     1.0  0.83515  0.57049  0.51842  1.0000
  C   C2741     1.0  0.64139  0.99136  0.49541  1.0000
  C   C2742     1.0  0.66675  0.51363  0.68318  1.0000
  H   H2182     1.0  0.60962  0.86806  0.47301  1.0000
  H   H2183     1.0  0.71060  0.89464  0.47450  1.0000
  H   H2184     1.0  0.89132  0.82449  0.64221  1.0000
  C   C2743     1.0  0.65966  0.88449  0.47239  1.0000
  C   C2744     1.0  0.66029  0.93667  0.51589  1.0000
  C   C2745     1.0  0.75465  0.91623  0.63579  1.0000
  C   C2746     1.0  0.59216  0.82819  0.61263  1.0000
  C   C2747     1.0  0.66291  0.98209  0.48318  1.0000
  C   C2748     1.0  0.73208  0.89985  0.64681  1.0000
  H   H2185     1.0  0.52673  0.86430  0.63196  1.0000
  C   C2749     1.0  0.00152  0.75169  0.68335  1.0000
  C   C2750     1.0  0.89259  0.72318  0.65474  1.0000
  C   C2751     1.0  0.54549  0.82384  0.47090  1.0000
  C   C2752     1.0  0.53621  0.92040  0.69486  1.0000
  C   C2753     1.0  0.72575  0.60751  0.54169  1.0000
  H   H2186     1.0  0.86062  0.95449  0.61784  1.0000
  C   C2754     1.0  0.68902  0.88493  0.52211  1.0000
  C   C2755     1.0  0.74752  0.96557  0.64869  1.0000
  C   C2756     1.0  0.87544  0.81890  0.63390  1.0000
  H   H2187     1.0  0.96140  0.80883  0.65125  1.0000
  C   C2757     1.0  0.83380  0.98416  0.64129  1.0000
  C   C2758     1.0  0.76738  0.95567  0.70349  1.0000
  H   H2188     1.0  0.63783  0.96319  0.54163  1.0000
  C   C2759     1.0  0.79795  0.92633  0.60055  1.0000
  C   C2760     1.0  0.85036  0.90099  0.59227  1.0000
  C   C2761     1.0  0.80809  0.55579  0.51337  1.0000
  H   H2189     1.0  0.89445  0.74989  0.63267  1.0000
  H   H2190     1.0  0.72752  0.63416  0.54095  1.0000
  C   C2762     1.0  0.91054  0.71174  0.66669  1.0000
  C   C2763     1.0  0.53434  0.70933  0.58401  1.0000
  C   C2764     1.0  0.81639  0.90503  0.59151  1.0000
  P   P93       1.0  0.78857  0.97217  0.62154  1.0000
  S   S365      1.0  0.00851  0.91014  0.67660  1.0000
  H   H2191     1.0  0.95364  0.76411  0.63159  1.0000
  H   H2192     1.0  0.83118  0.81480  0.64962  1.0000
  C   C2765     1.0  0.96982  0.98216  0.70305  1.0000
  H   H2193     1.0  0.52821  0.77988  0.60710  1.0000
  H   H2194     1.0  0.72633  0.87432  0.64614  1.0000
  C   C2766     1.0  0.85151  0.59609  0.49313  1.0000
  C   C2767     1.0  0.63286  0.86403  0.47776  1.0000
  Fe  Fe182     1.0  0.99384  0.64153  0.53007  1.0000
  H   H2195     1.0  0.89254  0.91618  0.60222  1.0000
  C   C2768     1.0  0.72446  0.94928  0.65955  1.0000
  H   H2196     1.0  0.80144  0.99818  0.58972  1.0000
  H   H2197     1.0  0.53924  0.87418  0.51569  1.0000
  H   H2198     1.0  0.82021  0.58663  0.47628  1.0000
  H   H2199     1.0  0.67231  0.54593  0.55568  1.0000
  C   C2769     1.0  0.59122  0.78562  0.46573  1.0000
  C   C2770     1.0  0.81398  0.99834  0.63040  1.0000
  S   S366      1.0  0.59275  0.52382  0.57872  1.0000
  C   C2771     1.0  0.84346  0.90156  0.70581  1.0000
  H   H2200     1.0  0.60560  0.98702  0.56274  1.0000
  C   C2772     1.0  0.75519  0.52037  0.59192  1.0000
  H   H2201     1.0  0.72213  0.53488  0.51011  1.0000
  H   H2202     1.0  0.90387  0.52085  0.54536  1.0000
  C   C2773     1.0  0.78590  0.84662  0.70565  1.0000
  H   H2203     1.0  0.90870  0.85021  0.71293  1.0000
  C   C2774     1.0  0.72990  0.82974  0.70375  1.0000
  H   H2204     1.0  0.69751  0.57220  0.71346  1.0000
  H   H2205     1.0  0.51492  0.72071  0.61962  1.0000
  H   H2206     1.0  0.53509  0.65598  0.58702  1.0000
  C   C2775     1.0  0.95106  0.51944  0.51395  1.0000
  H   H2207     1.0  0.66943  0.52409  0.67146  1.0000
  C   C2776     1.0  0.52623  0.95300  0.69671  1.0000
  H   H2208     1.0  0.97805  0.76441  0.68247  1.0000
  H   H2209     1.0  0.65430  0.77615  0.48059  1.0000
  H   H2210     1.0  0.52587  0.96152  0.70774  1.0000
  H   H2211     1.0  0.55110  0.62412  0.71197  1.0000
  H   H2212     1.0  0.62470  0.60748  0.71086  1.0000
  C   C2777     1.0  0.53029  0.93025  0.66819  1.0000
  C   C2778     1.0  0.76097  0.82301  0.70873  1.0000
  H   H2213     1.0  0.90496  0.51945  0.50405  1.0000
  H   H2214     1.0  0.71079  0.81117  0.70597  1.0000
  H   H2215     1.0  0.00096  0.75744  0.70698  1.0000
  S   S367      1.0  0.00363  0.96189  0.71071  1.0000
  C   C2779     1.0  0.51366  0.58716  0.57605  1.0000
  H   H2216     1.0  0.75549  0.93586  0.71104  1.0000
  C   C2780     1.0  0.51446  0.70927  0.63112  1.0000
  H   H2217     1.0  0.51242  0.66839  0.67233  1.0000
  H   H2218     1.0  0.73338  0.99288  0.71175  1.0000
  C   C2781     1.0  0.65115  0.65192  0.71265  1.0000
  C   C2782     1.0  0.66430  0.70950  0.77103  1.0000
  C   C2783     1.0  0.65765  0.66020  0.78861  1.0000
  S   S368      1.0  0.98218  0.83738  0.87917  1.0000
  S   S369      1.0  0.96909  0.92954  0.88497  1.0000
  C   C2784     1.0  0.81924  0.70625  0.74886  1.0000
  H   H2219     1.0  0.00684  0.92881  0.78366  1.0000
  S   S370      1.0  0.97427  0.77154  0.91701  1.0000
  H   H2220     1.0  0.95392  0.58206  0.92587  1.0000
  H   H2221     1.0  0.65558  0.73382  0.76694  1.0000
  Fe  Fe183     1.0  0.57145  0.61251  0.79546  1.0000
  C   C2785     1.0  0.89522  0.89355  0.72422  1.0000
  S   S371      1.0  0.57081  0.65384  0.81063  1.0000
  Fe  Fe184     1.0  0.60390  0.54401  0.79132  1.0000
  S   S372      1.0  0.56802  0.53218  0.77553  1.0000
  Fe  Fe185     1.0  0.57598  0.58455  0.76505  1.0000
  S   S373      1.0  0.58503  0.59233  0.73951  1.0000
  H   H2222     1.0  0.97618  0.64934  0.87974  1.0000
  C   C2786     1.0  0.74732  0.61753  0.73118  1.0000
  S   S374      1.0  0.61449  0.59517  0.77993  1.0000
  S   S375      1.0  0.56454  0.56212  0.80818  1.0000
  H   H2223     1.0  0.73039  0.53205  0.77043  1.0000
  S   S376      1.0  0.80443  0.59862  0.92060  1.0000
  H   H2224     1.0  0.72285  0.68314  0.95088  1.0000
  Fe  Fe186     1.0  0.87794  0.56482  0.94178  1.0000
  S   S377      1.0  0.88031  0.57050  0.91657  1.0000
  C   C2787     1.0  0.92054  0.97550  0.76874  1.0000
  Fe  Fe187     1.0  0.85565  0.61975  0.91953  1.0000
  S   S378      1.0  0.87187  0.66515  0.90348  1.0000
  Fe  Fe188     1.0  0.82923  0.54876  0.92019  1.0000
  H   H2225     1.0  0.99783  0.86405  0.82497  1.0000
  S   S379      1.0  0.85626  0.61551  0.94471  1.0000
  C   C2788     1.0  0.70588  0.58524  0.72220  1.0000
  H   H2226     1.0  0.62486  0.70244  0.78930  1.0000
  Fe  Fe189     1.0  0.52938  0.55465  0.79141  1.0000
  H   H2227     1.0  0.80259  0.54402  0.77430  1.0000
  H   H2228     1.0  0.87323  0.83083  0.76201  1.0000
  H   H2229     1.0  0.77935  0.61062  0.80818  1.0000
  C   C2789     1.0  0.62833  0.62671  0.71792  1.0000
  H   H2230     1.0  0.54150  0.69617  0.83239  1.0000
  C   C2790     1.0  0.99341  0.86932  0.81322  1.0000
  H   H2231     1.0  0.51832  0.93646  0.85213  1.0000
  H   H2232     1.0  0.87646  0.93826  0.73309  1.0000
  C   C2791     1.0  0.63894  0.67570  0.73627  1.0000
  C   C2792     1.0  0.61692  0.65007  0.74170  1.0000
  C   C2793     1.0  0.61155  0.62546  0.73256  1.0000
  C   C2794     1.0  0.99140  0.61213  0.91245  1.0000
  C   C2795     1.0  0.79261  0.57484  0.79241  1.0000
  H   H2233     1.0  0.64250  0.69495  0.74331  1.0000
  H   H2234     1.0  0.60398  0.64951  0.75294  1.0000
  C   C2796     1.0  0.94398  0.51403  0.94330  1.0000
  C   C2797     1.0  0.97885  0.97241  0.88231  1.0000
  H   H2235     1.0  0.92869  0.98126  0.73039  1.0000
  H   H2236     1.0  0.54188  0.68849  0.78499  1.0000
  H   H2237     1.0  0.92755  0.98761  0.88317  1.0000
  H   H2238     1.0  0.58046  0.91474  0.83845  1.0000
  C   C2798     1.0  0.94538  0.74257  0.91305  1.0000
  C   C2799     1.0  0.93362  0.74369  0.89894  1.0000
  C   C2800     1.0  0.91096  0.71995  0.89623  1.0000
  C   C2801     1.0  0.90027  0.69455  0.90749  1.0000
  C   C2802     1.0  0.91207  0.69340  0.92160  1.0000
  C   C2803     1.0  0.93424  0.71750  0.92441  1.0000
  H   H2239     1.0  0.94188  0.76292  0.89014  1.0000
  H   H2240     1.0  0.90183  0.72113  0.88531  1.0000
  H   H2241     1.0  0.90410  0.67400  0.93035  1.0000
  H   H2242     1.0  0.94307  0.71650  0.93538  1.0000
  C   C2804     1.0  0.73209  0.99491  0.75845  1.0000
  S   S380      1.0  0.75947  0.59691  0.96110  1.0000
  C   C2805     1.0  0.54375  0.68855  0.80886  1.0000
  C   C2806     1.0  0.77812  0.60428  0.79682  1.0000
  C   C2807     1.0  0.57669  0.96322  0.82651  1.0000
  S   S381      1.0  0.68476  0.70862  0.71592  1.0000
  C   C2808     1.0  0.84743  0.92442  0.71614  1.0000
  H   H2243     1.0  0.74500  0.97127  0.75908  1.0000
  C   C2809     1.0  0.59462  0.00886  0.83893  1.0000
  C   C2810     1.0  0.74710  0.69073  0.94555  1.0000
  C   C2811     1.0  0.71667  0.52020  0.76288  1.0000
  H   H2244     1.0  0.78054  0.72940  0.71763  1.0000
  C   C2812     1.0  0.01146  0.98360  0.88062  1.0000
  C   C2813     1.0  0.95286  0.99593  0.88187  1.0000
  C   C2814     1.0  0.86108  0.69532  0.96182  1.0000
  C   C2815     1.0  0.91296  0.81244  0.74705  1.0000
  H   H2245     1.0  0.56591  0.95429  0.81718  1.0000
  H   H2246     1.0  0.51365  0.66583  0.74298  1.0000
  Fe  Fe190     1.0  0.00272  0.88356  0.88643  1.0000
  C   C2816     1.0  0.93138  0.97148  0.74193  1.0000
  C   C2817     1.0  0.94934  0.94217  0.74478  1.0000
  C   C2818     1.0  0.95384  0.92973  0.75964  1.0000
  C   C2819     1.0  0.93858  0.94621  0.77165  1.0000
  P   P94       1.0  0.97652  0.89136  0.76304  1.0000
  C   C2820     1.0  0.76774  0.67653  0.74984  1.0000
  H   H2247     1.0  0.88790  0.77621  0.95458  1.0000
  H   H2248     1.0  0.80579  0.82143  0.94877  1.0000
  C   C2821     1.0  0.99227  0.56514  0.89181  1.0000
  H   H2249     1.0  0.83123  0.94580  0.71692  1.0000
  H   H2250     1.0  0.80165  0.67033  0.76702  1.0000
  C   C2822     1.0  0.97206  0.85260  0.79102  1.0000
  C   C2823     1.0  0.76198  0.69385  0.73596  1.0000
  C   C2824     1.0  0.68295  0.52706  0.76261  1.0000
  C   C2825     1.0  0.76106  0.67650  0.93278  1.0000
  H   H2251     1.0  0.94666  0.69038  0.86401  1.0000
  C   C2826     1.0  0.78477  0.71684  0.72853  1.0000
  C   C2827     1.0  0.95220  0.85974  0.75700  1.0000
  C   C2828     1.0  0.91865  0.85664  0.76263  1.0000
  C   C2829     1.0  0.69498  0.60671  0.74647  1.0000
  H   H2252     1.0  0.89786  0.79427  0.74312  1.0000
  C   C2830     1.0  0.94631  0.81540  0.74140  1.0000
  C   C2831     1.0  0.96583  0.83900  0.74631  1.0000
  C   C2832     1.0  0.87320  0.92032  0.72533  1.0000
  S   S382      1.0  0.53374  0.60601  0.77961  1.0000
  H   H2253     1.0  0.53109  0.97676  0.86954  1.0000
  H   H2254     1.0  0.96016  0.92943  0.73536  1.0000
  H   H2255     1.0  0.94033  0.93661  0.78326  1.0000
  H   H2256     1.0  0.98760  0.51635  0.95474  1.0000
  H   H2257     1.0  0.91561  0.89070  0.73106  1.0000
  C   C2833     1.0  0.58463  0.94092  0.83857  1.0000
  C   C2834     1.0  0.97779  0.84599  0.80618  1.0000
  H   H2258     1.0  0.96030  0.83398  0.78577  1.0000
  C   C2835     1.0  0.79644  0.68318  0.75634  1.0000
  H   H2259     1.0  0.84164  0.71085  0.75377  1.0000
  H   H2260     1.0  0.60243  0.93522  0.86044  1.0000
  C   C2836     1.0  0.53375  0.70543  0.82155  1.0000
  H   H2261     1.0  0.90759  0.87261  0.77080  1.0000
  C   C2837     1.0  0.72609  0.62167  0.74437  1.0000
  H   H2262     1.0  0.97031  0.82268  0.81252  1.0000
  C   C2838     1.0  0.90100  0.80216  0.93276  1.0000
  C   C2839     1.0  0.89165  0.81124  0.91835  1.0000
  C   C2840     1.0  0.86075  0.80213  0.91484  1.0000
  C   C2841     1.0  0.83931  0.78370  0.92570  1.0000
  C   C2842     1.0  0.84909  0.77346  0.94004  1.0000
  C   C2843     1.0  0.87990  0.78329  0.94357  1.0000
  P   P95       1.0  0.82136  0.75012  0.95421  1.0000
  C   C2844     1.0  0.79700  0.72255  0.94542  1.0000
  H   H2263     1.0  0.74758  0.65804  0.92816  1.0000
  C   C2845     1.0  0.96955  0.69701  0.86799  1.0000
  H   H2264     1.0  0.64379  0.64648  0.79823  1.0000
  H   H2265     1.0  0.76589  0.79918  0.71477  1.0000
  H   H2266     1.0  0.90926  0.98836  0.77804  1.0000
  S   S383      1.0  0.92214  0.54440  0.95310  1.0000
  C   C2846     1.0  0.76487  0.71375  0.95182  1.0000
  C   C2847     1.0  0.77506  0.58799  0.76747  1.0000
  C   C2848     1.0  0.89913  0.83305  0.75767  1.0000
  C   C2849     1.0  0.79271  0.68552  0.92617  1.0000
  C   C2850     1.0  0.81075  0.70819  0.93251  1.0000
  C   C2851     1.0  0.98159  0.72903  0.86445  1.0000
  C   C2852     1.0  0.59695  0.95250  0.85095  1.0000
  C   C2853     1.0  0.98652  0.67372  0.87699  1.0000
  H   H2267     1.0  0.69261  0.62090  0.78486  1.0000
  C   C2854     1.0  0.97109  0.56137  0.90523  1.0000
  C   C2855     1.0  0.68516  0.58828  0.73549  1.0000
  H   H2268     1.0  0.92512  0.80905  0.93538  1.0000
  H   H2269     1.0  0.90862  0.82499  0.90988  1.0000
  H   H2270     1.0  0.85361  0.80913  0.90365  1.0000
  H   H2271     1.0  0.81532  0.77715  0.92284  1.0000
  H   H2272     1.0  0.85776  0.68774  0.95090  1.0000
  C   C2856     1.0  0.65655  0.67643  0.72189  1.0000
  H   H2273     1.0  0.63836  0.51639  0.75374  1.0000
  H   H2274     1.0  0.95457  0.54058  0.90754  1.0000
  H   H2275     1.0  0.75119  0.64844  0.79014  1.0000
  Fe  Fe191     1.0  0.80695  0.59097  0.94568  1.0000
  H   H2276     1.0  0.54541  0.51688  0.74171  1.0000
  S   S384      1.0  0.82893  0.53977  0.94526  1.0000
  C   C2857     1.0  0.98211  0.88269  0.78280  1.0000
  H   H2277     1.0  0.80361  0.67447  0.91627  1.0000
  H   H2278     1.0  0.83569  0.71388  0.92743  1.0000
  C   C2858     1.0  0.68549  0.64594  0.78104  1.0000
  H   H2279     1.0  0.77168  0.62836  0.72933  1.0000
  H   H2280     1.0  0.67805  0.60945  0.75648  1.0000
  H   H2281     1.0  0.77433  0.58130  0.75615  1.0000
  C   C2859     1.0  0.73705  0.59971  0.72007  1.0000
  C   C2860     1.0  0.69238  0.69547  0.76351  1.0000
  C   C2861     1.0  0.70351  0.66372  0.76858  1.0000
  H   H2282     1.0  0.95721  0.79961  0.73310  1.0000
  P   P96       1.0  0.73921  0.64495  0.75868  1.0000
  C   C2862     1.0  0.76009  0.61742  0.77187  1.0000
  C   C2863     1.0  0.99834  0.90573  0.78989  1.0000
  C   C2864     1.0  0.97072  0.58479  0.91555  1.0000
  H   H2283     1.0  0.61000  0.99510  0.86112  1.0000
  H   H2284     1.0  0.83154  0.74009  0.72886  1.0000
  C   C2865     1.0  0.00350  0.89926  0.80509  1.0000
  H   H2285     1.0  0.99133  0.84115  0.74146  1.0000
  C   C2866     1.0  0.53397  0.70096  0.79487  1.0000
  C   C2867     1.0  0.66457  0.51095  0.75339  1.0000
  H   H2286     1.0  0.99195  0.54726  0.88373  1.0000
  C   C2868     1.0  0.79118  0.56676  0.77773  1.0000
  C   C2869     1.0  0.76205  0.62558  0.78658  1.0000
  H   H2287     1.0  0.96837  0.74722  0.85757  1.0000
  H   H2288     1.0  0.70483  0.70929  0.75359  1.0000
  H   H2289     1.0  0.68836  0.97613  0.77225  1.0000
  H   H2290     1.0  0.69303  0.53201  0.82390  1.0000
  H   H2291     1.0  0.74016  0.68904  0.73069  1.0000
  C   C2870     1.0  0.91711  0.98824  0.75388  1.0000
  C   C2871     1.0  0.60151  0.98637  0.85123  1.0000
  C   C2872     1.0  0.81352  0.72289  0.73491  1.0000
  C   C2873     1.0  0.64695  0.69187  0.78357  1.0000
  H   H2292     1.0  0.80507  0.55836  0.80035  1.0000
  H   H2293     1.0  0.75395  0.51543  0.92483  1.0000
  C   C2874     1.0  0.70017  0.99763  0.76587  1.0000
  Fe  Fe192     1.0  0.00043  0.81043  0.89990  1.0000
  H   H2294     1.0  0.66096  0.57708  0.73714  1.0000
  H   H2295     1.0  0.51278  0.86022  0.92137  1.0000
  C   C2875     1.0  0.58173  0.99704  0.82663  1.0000
  H   H2296     1.0  0.75365  0.72367  0.96190  1.0000
  H   H2297     1.0  0.52121  0.91863  0.93892  1.0000
  C   C2876     1.0  0.51403  0.73442  0.82028  1.0000
  C   C2877     1.0  0.51539  0.73056  0.79350  1.0000
  H   H2298     1.0  0.74821  0.51421  0.83153  1.0000
  H   H2299     1.0  0.67082  0.54453  0.76980  1.0000
  H   H2300     1.0  0.77063  0.85914  0.96357  1.0000
  H   H2301     1.0  0.00073  0.70063  0.91172  1.0000
  C   C2878     1.0  0.79242  0.81171  0.95938  1.0000
  H   H2302     1.0  0.98994  0.63040  0.92043  1.0000
  H   H2303     1.0  0.60377  0.51625  0.73081  1.0000
  H   H2304     1.0  0.00870  0.72266  0.93557  1.0000
  C   C2879     1.0  0.01035  0.73790  0.87008  1.0000
  C   C2880     1.0  0.89133  0.87068  0.71404  1.0000
