data_image0
_chemical_formula_structural       C4H4CHC2HCH3CH2CSCH5CHC6HCPSCHC2SC5HCHC4HC3HCH2C2HPCH2CHC3HCHPH2C3H2FeH2C3H4CHCH2C2HCFeCHCSC7SHC4HC3SCFeH3C2HCH4SH3C2FeCHC2HFeH2S2CSHC2HSH3CFeHC5H2SHSC2FeHC2HCH3C3H3CHCHPC2HC2HCHC4SCFeSFeSHFeSFeS2FeS2CHCHCSFeCHPC2HSHSH4CH2CHCH2CH4CHCHC4SC2H2C7H4CHC6HC3HCH4CH2C3HC2H3C2HC5PC2SHCHC2H2C4H2C2H3CH3C2HC2H2CHSHC2HCHC2HCHC4H2C2H4CFeHCH3C4H2SCHC3HCSHPHC4H3CH2CFeH2C2PC12PC14SC2H12CH3C2HCH2CHFeCHCHCHS2HFeSHFeSFeS2C2FeSHFeSH5CHSHC2H2CH2CH3C4SHC6H4C2H3CSHCH2C3H2CSH2SCH3CHCSCHCH2C4HC2H2C8PC3H5CH2CHC4H4FeCSCSC4H2C3HCH4C4HC5PSCHCHC2HCHCHC2HCH7FeS2FeSCFeSFeS3HSH2CHSFeHCSC6H2CHC2SC2H2C6H4C5HCH4C2HCHCHPH2SHC2HC2HCSH3CH2C2H2C2H2CHCH2CHCHCHCHC7PC3HC5HC3H2CHCH7CH4PHCFePH2C5PC3H3C4HC7H6C2HC2HC3HC2H2PCFeHCH3C3SCHC3H3C2HCSC3HCSC3HC4H4CHC2HC5HPCH2CH2CHCFeS2FeSCFeHFeHS2FeS2FeS2FeSFeS3HCH3FeCFeS2C3FeCSC6HCH2C6H4C6H4CHC6SPH6C3HCPCHC2H3C3PC7H3C7HC3HC2HCH2CHCH3C13H8C3HCHCH2C2HC2S2H3CHCHC3H2CSC2HC3HCHCH4SH2C3HC2PH4C2H4CHCHC2H3C2HCSCH2C3FeH8CH2C2HCH4CH2CH2SC2H5SCSHFeS2FeS2FeS2FeSFeS2CH2C2FeS2FeS2C6H3C6H3C3H2C6H4CSHCSHPHSC2H4CSCHCPHCHCH4C2HSH3CH2CH2CHC2PCHCH3FeC2SC3HCH2CHC2H2CHC2H2CH2C4FeC3HCPHC2H3C2SC2HCH2C4HSCSHSCFeSC2HC4PC19H18FeCPC3PC10HC7HCH4CH5CH3C3HC6PC14H13C2HC3HCSHC3HCHSH2C2HC2H2CH6C2HC2HCHCH2CH2FeH2C2HCH2FeC3SH2C2HCHCFeHC2HCFeS2FeHCHS2H3FeSHFeS2C2HSCHCFeSCHCHFeS2FeS2FeSFeS3C6H4C6H4SHCHC6HCH2CHCH2SC3H2C6H5C4HC6HCHCH3CHC2H4CFeHCH3C6H3PC2HC7HCH5CHC4PC4H2C10HCHC2H3SC2H5SFeH4CHC4H2C2FeCHCH4CH2CHC3H2CH2CH4CH2CHC2PC9HC8H2C2HSHCH3CHPC6SFeH3CHCHCHCHCHC2HC3HC4H4CHC3HC3H2CHC2HC3HSFeSHC2HCHFeCHCHCHPHC4H2C3HC2HC2H3CHCH2C3HCSH5CHC2HC2FeS2FeS2FeSH2S2CFeS2HFeS3CFeCH2C6H4C4HCH2CH2C3H2C2PC3H3C2HCH4C2SHCH3C2H3SCSCHCH2CH3C2HC3SC4HCHC2H3C5HC6PC18H12CH7C2HCHC2HCH2C3PC9HC6H9FeHFeCHCHCHC2HC2HC7PHC2H3C2HCH5C2HC2HC3H2CHC2H7CH2CH2SCHCH2C2HCSH5FeS2FeS2FeS2FeSFeS3C6H4C7H2C6H4CHC6HPHC3HC10HCHCHC5H8CHCH2CH6FeHSC3HPC8HC3HC4H9CH2FeH3C3H2C2H2CHCHCH3C11HCH2C2H3SC11H5C2PHC2SHC2HSC2HC2HCFeHSH5C2H3C3H2PHC2HC2HCH2C2FeS2FeS2Fe2S3CSFeS2H2CFeS2FeCSHSHSHSCHC2HSC7H4C6H4C6H2C6H4C2HSC4HC6H4C2H3C6PC2HC12H10CH7C6HCHFeCH3C7HC3HC5H2C3HCH4C2H2C7PC18HC2H18SPC2H3CHCFeCH2C4H2C3H2C4HC2HPHSH6CSC2H2C7PCHC2HC2H3CHCH2FeC2HC3HC2HCH4CPCHC3HCH2C2HC2H2CHCSH9C3H3S2C2HSHC2HCHC2FeH3C3HFeC6H3CH2Fe2S2HFeHSHS2FeSFeS2FeSFeS3CH2C6H5C2HCH4C6H4CFeHC6HC2HC6PC5HC12H7C2H11PH5CHC4HCH4CHCHC3H4CH3C6HC4HC2HC5HC2HCHC2PC2HSPHCH5CSCPC2HCH3C3HCHC2HCHC5HCSCHC3HC2HCH3C2HCH2C2H2C4SH2CHC3HC3H5CH2CHC4HC7H2CHCHC2H2CHCHC3FeC2HC3FeHC3SFeHFeC2SCH3C2H2C2H2FeC3H2FeS4CH3SPH2C2S2Fe2C2S2HSFeHC2H2CFeSH2CSCFeC2HSFeCHSCHC2HCHSCHC4SCHCHSCH2C2HCHC2H2FeSHPH4CSC2H3CH3C2SC2HCH4FeC2FeSC7PHC3HCHCHC4HC2HC3HC5HCH3CHC3HCH3CH2CPH3CH2C6HC2HCHCHCH4SCHC2H3CH2CHC2HC2FeSCFeSHFeSFeS3Fe2S2FeHS2HCHCHC4HC4HC2HC2FeC2SCHCH2C6H4CHCHCH4CH5C2H3C3HCH3CHPSC3HSC2H2SPC2HCH2C2H5C2HCH4C3HC2H3C5HCSH3C3H2CHC4HCHC2HC2HC3HCH2C3PC18H4CH10CHC4H3C3H2CH2C2H4C2HCFeCHCH2FeCSFeS2FeHFeS3HSCFeS3FeS2FeS2FeSFeS3HS2C2HC6H3C7H2C6H4CHCHC3HCH2C2H3C9H4FeC3H2C6PC18HCH18CH2C3PHC2H2C2HCH2C4H3CH3CH4PH2CH4C2H2C2HCHFeCSC3PC8H10C2HCH2CFeCH2CFeH2C2H4C3H2C3H2CHC10H3CHCHCH2C6PC18H7CSH12SHCH2FeC3HCH3CHCH2C4H3CH4C2H3CHC2HCSHFeSHFeS2HFeS2FeS2FeSFeS4CHFeCHC7H4C2HC6H4CHC6H10CHC3PCHCHPHC2HC5HCH2CH3C2H2C2H3C2HCH2SCHC2HSCHCSC4HC3H2CHCHC4H3C2HC2H4CH7C5H2CH2C8HFeCH5C8HPC8HC10HPH15PC6PC5HC6H2C2H2CH2C2HC2H2CHC3HC5H2CHCHC5HFeS3FeSFeS3H5FeHFeS2FeSCS2CHCHCH7CHCHC9H4C3H2C6H7C2HCHC3PC2H2C2H2CH2C2HCHFePCHC4H2C2FeCH2C3HCH2SPC2HCHCHC3HC2H2CSHC5H4C2H3CH2CH2C4H3SH2CH3C6PC7HCH3CH2C2HC2HC2HC2HC2HC9SHC2PSH2CHC2HC4HC4HCHC2FeCHCHC2H2C2HCHCHC3HCHCH4CH3CHSFeS2FeHSFeCSHC3S2C2H3SCSH4C2PC7H5C5H2C5H3C3H3C2H4CHCH2FeH3CH2C3SCH2SH2C7HCHC6HC7HC2SCHC3PH7CSHSCSH3C2H5C6PC19HCH14CH2CH2C3PC10PC2HCH4CH2CHCHC2HCH2CHC2H2CHC2HCHCH2CH3C3HCHSH3SH2CHC9FeH2CHFeS2FeS2FeSFeS3HC2H2SC4PC2HFeHC2FeS2CHCH2C2H3C7H2CHC6H4C6H2CHCH4CHCH4CHC4SHCHCHCHSC4H3CH2CH2C3HC5H2C2HPC3H3C7H2C4H2PC2H4C4H3C3HSC2SH2CH2CHCH6C2H2C2H3PCHC9SHC2H7SCHCHC4PC7H2C3H2C3H11CH2CH2C6PC19H11CH7C5H2C4HCHC3HSCH2CH3C3SHC3HC9H2CHCH4C2HCPHC2HCSH2C2H5C2HCHCH2CHCH2C2HC4H3PCHC4H2SHC2HCHCHC2H2C3H2SHCH2C4H3C7H2CHCHCH2CHSCH3CHC4HCH3C2HSHFeSFeS2FeS2FeSFeSHC3FeSCFeHC6H4SH2C5SH2C2HCHC7PC4HC13H2CH3CH9CFeH2C2HPH2SC2H3C3H6C4HCPCHC2H3CHCHCFeSHCHC2H5C5H2CHCH2SC4SH2CHCHCHC2HC3HC2H2C4HC3HCHCHCH2CHPHCSH2FeC3H2CFeC2H2CHC2HCHCHSC3HC2HFeS2FeS2FeS2FeSFeS3CH4C4HCH3CH2C6H4C5H3FeH3CSFeC8HCH3C3HC2HCH5CHSH2CHSC3HCHC6PC16H17C3HC2HC3H5C2HC6HCHSCHCH2C4H3CSH4FeC2SC6H5C2H2CSCHCH3C2HCHCH2CPC2HCH2CHC6HCHCH2C2H3C2H2FeSHFeSFeSFeS3CHSFeSCFeS2FeS2FeS3FeSHCHCH2CHC6H4CHC6H7CH2C2HPCHC6H7C8H3PHC2H4C2H2CHC4HCSHCHFeCHCHCH3FeCH2C3HC6PCH2CSHC2HC8H2SH2C2HC2PH7CSH2C2FeCHC2HC2HCHPC8H5CH2C9PC18H21C2SC3HC2H2CHCHCH2CHCHCHCHCSH2CH2CHC7HCH3C3S2C2H2C2H2C3HCH2C2H3CH2C5HCHC2H2C2SH2C3HC4HCHC2H2CH3C7H2C2H2CH2SHFeSCFeSCFeS2FeS2FeS2CFeS3C9HC2HC7H4C2HCH3C2PC6H5C2HC3HCHC2H2CFeHCH2CHPC5H3CH2C7H4C3H2C4SC4SH2CH3CHC2H7CHCH2C2HCH3CH2C2HCHC2H3CHSC2HCHC2H3C2HPC4H3C12H3CHC4H8C3HCHC2HCHSC2HC3HCHPSFeCHC2HCHFeS2FeSHFeSFeS3FeS2FeHSCFeS3HFeS2Fe2SFeS4H3C4H4C2H2C5H2C3HC6H4C2HCHCHC7H9C2PC19H4C2H4CH6C2H2C3HC4H3C8PC3H3C3HC3HCHC2H5CH2C4HCFeC3HC2H6C2PC7PC6HC8H17C6HC2H2CSCHCHC2HCPH3C2FeC4HCSH5CHCHCH2C3HPH6C2HCH2C4HC3H2CHCHC2
_chemical_formula_sum              "C3360 H2688 S448 P112 Fe224"
_cell_length_a       47.3634
_cell_length_b       48.2214
_cell_length_c       87.4297
_cell_angle_alpha    86.143
_cell_angle_beta     85.7592
_cell_angle_gamma    114.516

_space_group_name_H-M_alt    "P 1"
_space_group_IT_number       1

loop_
  _space_group_symop_operation_xyz
  'x, y, z'

loop_
  _atom_site_type_symbol
  _atom_site_label
  _atom_site_symmetry_multiplicity
  _atom_site_fract_x
  _atom_site_fract_y
  _atom_site_fract_z
  _atom_site_occupancy
  C   C1        1.0  0.31877  0.26400  0.07054  1.0000
  C   C2        1.0  0.31605  0.24618  0.08445  1.0000
  C   C3        1.0  0.32160  0.21987  0.08436  1.0000
  C   C4        1.0  0.32992  0.21110  0.07044  1.0000
  H   H1        1.0  0.31018  0.25269  0.09543  1.0000
  H   H2        1.0  0.31988  0.20650  0.09515  1.0000
  H   H3        1.0  0.33503  0.19112  0.07041  1.0000
  H   H4        1.0  0.26080  0.27862  0.09502  1.0000
  C   C5        1.0  0.33245  0.22854  0.05657  1.0000
  H   H5        1.0  0.33965  0.22211  0.04583  1.0000
  C   C6        1.0  0.32719  0.25502  0.05660  1.0000
  C   C7        1.0  0.31484  0.01947  0.00417  1.0000
  H   H6        1.0  0.25698  0.29104  0.12181  1.0000
  C   C8        1.0  0.28150  0.29456  0.09945  1.0000
  H   H7        1.0  0.47575  0.08540  0.06407  1.0000
  H   H8        1.0  0.37826  0.30941  0.06113  1.0000
  H   H9        1.0  0.39227  0.23448  0.19119  1.0000
  C   C9        1.0  0.27922  0.30136  0.11466  1.0000
  H   H10       1.0  0.20014  0.28592  0.04639  1.0000
  H   H11       1.0  0.36667  0.20444  0.23057  1.0000
  C   C10       1.0  0.46398  0.06461  0.21444  1.0000
  S   S1        1.0  0.47221  0.30013  0.02541  1.0000
  C   C11       1.0  0.40627  0.07849  0.99574  1.0000
  H   H12       1.0  0.33034  0.26882  0.04577  1.0000
  H   H13       1.0  0.16574  0.21601  0.98695  1.0000
  H   H14       1.0  0.24899  0.16724  0.02068  1.0000
  H   H15       1.0  0.43925  0.09750  0.08129  1.0000
  H   H16       1.0  0.38083  0.01329  0.20645  1.0000
  C   C12       1.0  0.46155  0.16019  0.01521  1.0000
  H   H17       1.0  0.29457  0.32341  0.21690  1.0000
  C   C13       1.0  0.47802  0.07959  0.19967  1.0000
  C   C14       1.0  0.37791  0.27028  0.15987  1.0000
  C   C15       1.0  0.22173  0.28844  0.05085  1.0000
  C   C16       1.0  0.35571  0.32119  0.00037  1.0000
  C   C17       1.0  0.33619  0.03863  0.04537  1.0000
  C   C18       1.0  0.23613  0.26956  0.04665  1.0000
  H   H18       1.0  0.40342  0.15211  0.20492  1.0000
  C   C19       1.0  0.47088  0.26657  0.10953  1.0000
  P   P1        1.0  0.31308  0.29889  0.07057  1.0000
  S   S2        1.0  0.46434  0.00717  0.16132  1.0000
  C   C20       1.0  0.44735  0.10915  0.20051  1.0000
  H   H19       1.0  0.34816  0.10704  0.99955  1.0000
  C   C21       1.0  0.38186  0.08006  0.03107  1.0000
  C   C22       1.0  0.23519  0.31062  0.06081  1.0000
  S   S3        1.0  0.40117  0.17798  0.06637  1.0000
  C   C23       1.0  0.34051  0.04882  0.22384  1.0000
  C   C24       1.0  0.36931  0.02028  0.21555  1.0000
  C   C25       1.0  0.43646  0.14140  0.04133  1.0000
  C   C26       1.0  0.31027  0.30824  0.09009  1.0000
  C   C27       1.0  0.43000  0.01337  0.08161  1.0000
  H   H20       1.0  0.22562  0.25234  0.03894  1.0000
  C   C28       1.0  0.35193  0.12635  0.00608  1.0000
  H   H21       1.0  0.39406  0.16511  0.03390  1.0000
  C   C29       1.0  0.45377  0.03690  0.07167  1.0000
  C   C30       1.0  0.27757  0.29489  0.06255  1.0000
  C   C31       1.0  0.26386  0.27264  0.05252  1.0000
  C   C32       1.0  0.27692  0.21885  0.98846  1.0000
  H   H22       1.0  0.33692  0.01345  0.10864  1.0000
  C   C33       1.0  0.44329  0.99851  0.21766  1.0000
  C   C34       1.0  0.15188  0.30607  0.20631  1.0000
  C   C35       1.0  0.30761  0.23796  0.00966  1.0000
  H   H23       1.0  0.48084  0.11326  0.18145  1.0000
  C   C36       1.0  0.40898  0.02035  0.09098  1.0000
  H   H24       1.0  0.41466  0.09897  0.22082  1.0000
  H   H25       1.0  0.44400  0.01678  0.19418  1.0000
  C   C37       1.0  0.46329  0.16180  0.04706  1.0000
  C   C38       1.0  0.41237  0.05057  0.09083  1.0000
  H   H26       1.0  0.37052  0.19755  0.09435  1.0000
  P   P2        1.0  0.43398  0.23722  0.13709  1.0000
  C   C39       1.0  0.36700  0.15534  0.12778  1.0000
  H   H27       1.0  0.39641  0.05582  0.09834  1.0000
  H   H28       1.0  0.32754  0.25532  0.01400  1.0000
  C   C40       1.0  0.44979  0.16762  0.10116  1.0000
  H   H29       1.0  0.40831  0.23825  0.10731  1.0000
  C   C41       1.0  0.28827  0.21131  0.01920  1.0000
  C   C42       1.0  0.37724  0.26032  0.17532  1.0000
  C   C43       1.0  0.37237  0.15116  0.22449  1.0000
  H   H30       1.0  0.41558  0.15235  0.98835  1.0000
  C   C44       1.0  0.37787  0.15899  0.02530  1.0000
  H   H31       1.0  0.38820  0.28480  0.10833  1.0000
  P   P3        1.0  0.39965  0.11513  0.01813  1.0000
  H   H32       1.0  0.02650  0.29367  0.10012  1.0000
  H   H33       1.0  0.36564  0.28414  0.15680  1.0000
  C   C45       1.0  0.34952  0.06612  0.03556  1.0000
  C   C46       1.0  0.35500  0.02502  0.05076  1.0000
  C   C47       1.0  0.37935  0.14480  0.20967  1.0000
  H   H34       1.0  0.46365  0.16299  0.05938  1.0000
  H   H35       1.0  0.32907  0.18429  0.00859  1.0000
  Fe  Fe1       1.0  0.37020  0.01044  0.14170  1.0000
  H   H36       1.0  0.02424  0.29545  0.07177  1.0000
  H   H37       1.0  0.39448  0.17225  0.14634  1.0000
  C   C48       1.0  0.02580  0.31492  0.07773  1.0000
  C   C49       1.0  0.45709  0.06717  0.07155  1.0000
  C   C50       1.0  0.47013  0.10212  0.19290  1.0000
  H   H38       1.0  0.29281  0.11607  0.22677  1.0000
  H   H39       1.0  0.41627  0.12719  0.04942  1.0000
  H   H40       1.0  0.27420  0.25743  0.04926  1.0000
  H   H41       1.0  0.36063  0.12220  0.18985  1.0000
  C   C51       1.0  0.40062  0.06631  0.03667  1.0000
  H   H42       1.0  0.31417  0.00822  0.08370  1.0000
  C   C52       1.0  0.42123  0.30689  0.08813  1.0000
  H   H43       1.0  0.31122  0.02774  0.04890  1.0000
  H   H44       1.0  0.37259  0.11966  0.08479  1.0000
  C   C53       1.0  0.46419  0.30022  0.12742  1.0000
  C   C54       1.0  0.28589  0.00046  0.01233  1.0000
  H   H45       1.0  0.45489  0.30407  0.13835  1.0000
  C   C55       1.0  0.35526  0.12815  0.20112  1.0000
  Fe  Fe2       1.0  0.43185  0.22420  0.05288  1.0000
  C   C56       1.0  0.44149  0.07230  0.22212  1.0000
  H   H46       1.0  0.46145  0.16051  0.00287  1.0000
  C   C57       1.0  0.25815  0.19178  0.99802  1.0000
  S   S4        1.0  0.47788  0.26139  0.05712  1.0000
  C   C58       1.0  0.15080  0.27803  0.20242  1.0000
  C   C59       1.0  0.41028  0.23525  0.16768  1.0000
  C   C60       1.0  0.16201  0.26698  0.22815  1.0000
  C   C61       1.0  0.31707  0.12462  0.22210  1.0000
  C   C62       1.0  0.37420  0.13442  0.01670  1.0000
  C   C63       1.0  0.36152  0.17680  0.02241  1.0000
  C   C64       1.0  0.46143  0.22470  0.14496  1.0000
  S   S5        1.0  0.39512  0.25840  0.00512  1.0000
  H   H47       1.0  0.31915  0.13850  0.99469  1.0000
  C   C65       1.0  0.43039  0.13813  0.10841  1.0000
  C   C66       1.0  0.35572  0.04030  0.21182  1.0000
  C   C67       1.0  0.40255  0.12086  0.10242  1.0000
  C   C68       1.0  0.45741  0.27043  0.12363  1.0000
  H   H48       1.0  0.36584  0.19674  0.02852  1.0000
  C   C69       1.0  0.39425  0.13308  0.08930  1.0000
  C   C70       1.0  0.02698  0.31386  0.09367  1.0000
  C   C71       1.0  0.41832  0.22628  0.98668  1.0000
  S   S6        1.0  0.44189  0.12420  0.12497  1.0000
  C   C72       1.0  0.39316  0.24253  0.17922  1.0000
  Fe  Fe3       1.0  0.45619  0.29372  0.05085  1.0000
  H   H49       1.0  0.46974  0.03189  0.06405  1.0000
  H   H50       1.0  0.30558  0.10496  0.20070  1.0000
  H   H51       1.0  0.40104  0.06049  0.00501  1.0000
  C   C73       1.0  0.33544  0.14410  0.00328  1.0000
  C   C74       1.0  0.31730  0.02659  0.98820  1.0000
  H   H52       1.0  0.38728  0.09831  0.10802  1.0000
  C   C75       1.0  0.43531  0.14040  0.02534  1.0000
  H   H53       1.0  0.39494  0.27060  0.13639  1.0000
  H   H54       1.0  0.14604  0.27145  0.19095  1.0000
  H   H55       1.0  0.41451  0.28623  0.08242  1.0000
  H   H56       1.0  0.33548  0.02788  0.01018  1.0000
  S   S7        1.0  0.44659  0.22529  0.02773  1.0000
  H   H57       1.0  0.15522  0.23686  0.21029  1.0000
  H   H58       1.0  0.35572  0.13201  0.13332  1.0000
  H   H59       1.0  0.39128  0.16339  0.23115  1.0000
  C   C76       1.0  0.41186  0.24607  0.15217  1.0000
  C   C77       1.0  0.32417  0.11831  0.20727  1.0000
  Fe  Fe4       1.0  0.42700  0.25972  0.02356  1.0000
  C   C78       1.0  0.40802  0.10738  0.99875  1.0000
  H   H60       1.0  0.34462  0.00373  0.05834  1.0000
  C   C79       1.0  0.44128  0.18000  0.08819  1.0000
  C   C80       1.0  0.15593  0.25854  0.21333  1.0000
  H   H61       1.0  0.44908  0.18446  0.13266  1.0000
  Fe  Fe5       1.0  0.38022  0.04589  0.17052  1.0000
  H   H62       1.0  0.33456  0.07633  0.03154  1.0000
  H   H63       1.0  0.44017  0.12550  0.19490  1.0000
  S   S8        1.0  0.42049  0.03522  0.13189  1.0000
  S   S9        1.0  0.36478  0.05317  0.14721  1.0000
  C   C81       1.0  0.33818  0.32536  0.01285  1.0000
  S   S10       1.0  0.40931  0.25643  0.04848  1.0000
  H   H64       1.0  0.37092  0.30981  0.00229  1.0000
  C   C82       1.0  0.36004  0.16239  0.11318  1.0000
  C   C83       1.0  0.46379  0.19815  0.14070  1.0000
  H   H65       1.0  0.29277  0.20824  0.03102  1.0000
  S   S11       1.0  0.35742  0.05550  0.19243  1.0000
  H   H66       1.0  0.39000  0.00253  0.09850  1.0000
  H   H67       1.0  0.42209  0.22113  0.17092  1.0000
  H   H68       1.0  0.45618  0.20290  0.08287  1.0000
  C   C84       1.0  0.40505  0.20809  0.12764  1.0000
  Fe  Fe6       1.0  0.43134  0.02890  0.15609  1.0000
  H   H69       1.0  0.21442  0.21074  0.99043  1.0000
  C   C85       1.0  0.34115  0.14086  0.23088  1.0000
  C   C86       1.0  0.38922  0.17815  0.13506  1.0000
  C   C87       1.0  0.30191  0.24185  0.99436  1.0000
  C   C88       1.0  0.41337  0.16282  0.08226  1.0000
  C   C89       1.0  0.43649  0.07402  0.08119  1.0000
  H   H70       1.0  0.34350  0.14452  0.10735  1.0000
  H   H71       1.0  0.32957  0.06397  0.22111  1.0000
  S   S12       1.0  0.38116  0.00122  0.16563  1.0000
  H   H72       1.0  0.14795  0.32122  0.19785  1.0000
  S   S13       1.0  0.43131  0.07318  0.16248  1.0000
  C   C90       1.0  0.38720  0.03890  0.04647  1.0000
  C   C91       1.0  0.37518  0.19229  0.10587  1.0000
  Fe  Fe7       1.0  0.41612  0.07745  0.13889  1.0000
  H   H73       1.0  0.31747  0.26248  0.98713  1.0000
  C   C92       1.0  0.34072  0.16970  0.01122  1.0000
  C   C93       1.0  0.39479  0.26283  0.14832  1.0000
  H   H74       1.0  0.36434  0.26641  0.18424  1.0000
  C   C94       1.0  0.39989  0.24260  0.98792  1.0000
  H   H75       1.0  0.42996  0.22305  0.99635  1.0000
  H   H76       1.0  0.47145  0.18108  0.10567  1.0000
  H   H77       1.0  0.22416  0.32540  0.06409  1.0000
  C   C95       1.0  0.40636  0.30614  0.10280  1.0000
  C   C96       1.0  0.43307  0.09427  0.21511  1.0000
  C   C97       1.0  0.39727  0.21520  0.11314  1.0000
  H   H78       1.0  0.42564  0.07681  0.03344  1.0000
  H   H79       1.0  0.40167  0.02838  0.05083  1.0000
  H   H80       1.0  0.46669  0.24382  0.10656  1.0000
  C   C98       1.0  0.26362  0.18818  0.01337  1.0000
  H   H81       1.0  0.23938  0.17335  0.99354  1.0000
  C   C99       1.0  0.15805  0.31462  0.22110  1.0000
  H   H82       1.0  0.33992  0.31733  0.02447  1.0000
  P   P4        1.0  0.47277  0.03391  0.22261  1.0000
  C   C100      1.0  0.41451  0.13001  0.98633  1.0000
  C   C101      1.0  0.26310  0.31407  0.06651  1.0000
  H   H83       1.0  0.30408  0.32669  0.13250  1.0000
  C   C102      1.0  0.30571  0.32139  0.12070  1.0000
  C   C103      1.0  0.36821  0.00948  0.23111  1.0000
  H   H84       1.0  0.18186  0.32537  0.01380  1.0000
  C   C104      1.0  0.48292  0.32563  0.11694  1.0000
  H   H85       1.0  0.48122  0.26381  0.15786  1.0000
  C   C105      1.0  0.33693  0.32766  0.09638  1.0000
  C   C106      1.0  0.37428  0.32841  0.05602  1.0000
  C   C107      1.0  0.16294  0.29503  0.23217  1.0000
  C   C108      1.0  0.48204  0.24271  0.15482  1.0000
  S   S14       1.0  0.39658  0.33053  0.12900  1.0000
  C   C109      1.0  0.34547  0.33004  0.05909  1.0000
  Fe  Fe8       1.0  0.30747  0.29603  0.32059  1.0000
  S   S15       1.0  0.25775  0.25985  0.32307  1.0000
  Fe  Fe9       1.0  0.31068  0.30471  0.28465  1.0000
  S   S16       1.0  0.26116  0.26968  0.28486  1.0000
  H   H86       1.0  0.36010  0.16433  0.27976  1.0000
  Fe  Fe10      1.0  0.24907  0.29093  0.30521  1.0000
  S   S17       1.0  0.21345  0.31215  0.30660  1.0000
  Fe  Fe11      1.0  0.27357  0.24112  0.30258  1.0000
  S   S18       1.0  0.25872  0.19003  0.29968  1.0000
  S   S19       1.0  0.32352  0.27516  0.30127  1.0000
  Fe  Fe12      1.0  0.31243  0.04911  0.30726  1.0000
  S   S20       1.0  0.35381  0.03707  0.30368  1.0000
  S   S21       1.0  0.32389  0.09864  0.31249  1.0000
  C   C110      1.0  0.28472  0.05520  0.45445  1.0000
  H   H87       1.0  0.35101  0.04595  0.35950  1.0000
  C   C111      1.0  0.35331  0.27127  0.38560  1.0000
  H   H88       1.0  0.13983  0.20085  0.29414  1.0000
  C   C112      1.0  0.47925  0.10664  0.35581  1.0000
  S   S22       1.0  0.00274  0.27687  0.28829  1.0000
  Fe  Fe13      1.0  0.03212  0.29394  0.30787  1.0000
  C   C113      1.0  0.11847  0.26243  0.31652  1.0000
  H   H89       1.0  0.43520  0.15163  0.35327  1.0000
  P   P5        1.0  0.44528  0.11837  0.38018  1.0000
  C   C114      1.0  0.36478  0.11033  0.25772  1.0000
  C   C115      1.0  0.13150  0.25899  0.27361  1.0000
  H   H90       1.0  0.34434  0.24033  0.45742  1.0000
  S   S23       1.0  0.35547  0.00652  0.26267  1.0000
  H   H91       1.0  0.35698  0.09953  0.24742  1.0000
  S   S24       1.0  0.43854  0.09365  0.46007  1.0000
  H   H92       1.0  0.42887  0.25360  0.46775  1.0000
  H   H93       1.0  0.42654  0.02880  0.41699  1.0000
  H   H94       1.0  0.37514  0.29054  0.38667  1.0000
  H   H95       1.0  0.42946  0.06079  0.23324  1.0000
  C   C116      1.0  0.41629  0.12884  0.35509  1.0000
  H   H96       1.0  0.20534  0.27030  0.26008  1.0000
  H   H97       1.0  0.39049  0.14559  0.29564  1.0000
  C   C117      1.0  0.26908  0.13229  0.25584  1.0000
  H   H98       1.0  0.39201  0.15847  0.46798  1.0000
  C   C118      1.0  0.47932  0.21838  0.39192  1.0000
  H   H99       1.0  0.29123  0.32888  0.38774  1.0000
  H   H100      1.0  0.20486  0.32636  0.46642  1.0000
  C   C119      1.0  0.16051  0.31783  0.44657  1.0000
  H   H101      1.0  0.28039  0.07418  0.45824  1.0000
  H   H102      1.0  0.46929  0.03132  0.28821  1.0000
  H   H103      1.0  0.10773  0.30548  0.47795  1.0000
  H   H104      1.0  0.10253  0.23973  0.32169  1.0000
  C   C120      1.0  0.45897  0.15800  0.38407  1.0000
  H   H105      1.0  0.28919  0.21415  0.45320  1.0000
  C   C121      1.0  0.15996  0.32094  0.30360  1.0000
  H   H106      1.0  0.08463  0.25407  0.46886  1.0000
  C   C122      1.0  0.44971  0.20350  0.38706  1.0000
  C   C123      1.0  0.31234  0.32269  0.36622  1.0000
  C   C124      1.0  0.17199  0.29977  0.30819  1.0000
  C   C125      1.0  0.15093  0.27035  0.31461  1.0000
  S   S25       1.0  0.99050  0.28844  0.32458  1.0000
  C   C126      1.0  0.10640  0.28348  0.31178  1.0000
  C   C127      1.0  0.16089  0.27280  0.26484  1.0000
  H   H107      1.0  0.43470  0.21531  0.38630  1.0000
  H   H108      1.0  0.38574  0.30351  0.44299  1.0000
  C   C128      1.0  0.43259  0.18525  0.43242  1.0000
  C   C129      1.0  0.27726  0.16504  0.30347  1.0000
  C   C130      1.0  0.26226  0.13418  0.30052  1.0000
  C   C131      1.0  0.27613  0.11359  0.30305  1.0000
  C   C132      1.0  0.30532  0.12356  0.30860  1.0000
  C   C133      1.0  0.32040  0.15443  0.31146  1.0000
  C   C134      1.0  0.30658  0.17507  0.30894  1.0000
  H   H109      1.0  0.23967  0.12611  0.29623  1.0000
  H   H110      1.0  0.26409  0.08994  0.30085  1.0000
  H   H111      1.0  0.34307  0.16242  0.31557  1.0000
  H   H112      1.0  0.31868  0.19873  0.31114  1.0000
  C   C135      1.0  0.26075  0.02556  0.45646  1.0000
  H   H113      1.0  0.38368  0.20533  0.46370  1.0000
  C   C136      1.0  0.14746  0.28854  0.44152  1.0000
  C   C137      1.0  0.41833  0.01875  0.36243  1.0000
  C   C138      1.0  0.23784  0.11370  0.26124  1.0000
  C   C139      1.0  0.22308  0.31305  0.39984  1.0000
  C   C140      1.0  0.43948  0.17337  0.38325  1.0000
  C   C141      1.0  0.35364  0.01859  0.24316  1.0000
  H   H114      1.0  0.44625  0.17936  0.42379  1.0000
  C   C142      1.0  0.17486  0.23420  0.27718  1.0000
  C   C143      1.0  0.38406  0.13632  0.28482  1.0000
  C   C144      1.0  0.29209  0.12137  0.25750  1.0000
  H   H115      1.0  0.27583  0.24393  0.39760  1.0000
  C   C145      1.0  0.40687  0.08703  0.42503  1.0000
  H   H116      1.0  0.37169  0.22634  0.41144  1.0000
  H   H117      1.0  0.25276  0.33050  0.47727  1.0000
  H   H118      1.0  0.31582  0.19869  0.40767  1.0000
  H   H119      1.0  0.29075  0.20993  0.33699  1.0000
  C   C146      1.0  0.12746  0.31281  0.30520  1.0000
  H   H120      1.0  0.37349  0.25728  0.23367  1.0000
  H   H121      1.0  0.19913  0.13687  0.34612  1.0000
  C   C147      1.0  0.36061  0.23897  0.24280  1.0000
  C   C148      1.0  0.29724  0.24514  0.39163  1.0000
  C   C149      1.0  0.43020  0.09491  0.39849  1.0000
  H   H122      1.0  0.15796  0.28341  0.43133  1.0000
  C   C150      1.0  0.39156  0.11264  0.28043  1.0000
  C   C151      1.0  0.14621  0.32361  0.45988  1.0000
  H   H123      1.0  0.40419  0.10389  0.28774  1.0000
  H   H124      1.0  0.38741  0.01289  0.47572  1.0000
  H   H125      1.0  0.16601  0.25160  0.23640  1.0000
  C   C152      1.0  0.39793  0.20037  0.45497  1.0000
  C   C153      1.0  0.22278  0.14798  0.34911  1.0000
  H   H126      1.0  0.27524  0.15530  0.25054  1.0000
  C   C154      1.0  0.24405  0.17495  0.34045  1.0000
  C   C155      1.0  0.22923  0.08390  0.26810  1.0000
  C   C156      1.0  0.44342  0.02393  0.25277  1.0000
  C   C157      1.0  0.35710  0.13415  0.26204  1.0000
  C   C158      1.0  0.31718  0.32675  0.23772  1.0000
  P   P6        1.0  0.33254  0.14573  0.25075  1.0000
  C   C159      1.0  0.33971  0.18514  0.25289  1.0000
  C   C160      1.0  0.42292  0.04951  0.41517  1.0000
  S   S26       1.0  0.44885  0.00586  0.38587  1.0000
  H   H127      1.0  0.40405  0.04684  0.43867  1.0000
  C   C161      1.0  0.28319  0.09129  0.26427  1.0000
  H   H128      1.0  0.44252  0.05879  0.39157  1.0000
  C   C162      1.0  0.32676  0.19198  0.26630  1.0000
  C   C163      1.0  0.33058  0.22194  0.26792  1.0000
  H   H129      1.0  0.41532  0.12646  0.40936  1.0000
  H   H130      1.0  0.22036  0.12255  0.26028  1.0000
  C   C164      1.0  0.47008  0.03184  0.27576  1.0000
  C   C165      1.0  0.41697  0.10476  0.41070  1.0000
  C   C166      1.0  0.38187  0.09959  0.26689  1.0000
  C   C167      1.0  0.21369  0.32459  0.38707  1.0000
  H   H131      1.0  0.23669  0.18479  0.33088  1.0000
  H   H132      1.0  0.48391  0.13400  0.47711  1.0000
  C   C168      1.0  0.41041  0.31089  0.47846  1.0000
  C   C169      1.0  0.41467  0.10806  0.36757  1.0000
  H   H133      1.0  0.11450  0.26843  0.27275  1.0000
  H   H134      1.0  0.38691  0.08064  0.26366  1.0000
  H   H135      1.0  0.11013  0.24299  0.44565  1.0000
  C   C170      1.0  0.12028  0.26553  0.44960  1.0000
  H   H136      1.0  0.31320  0.17398  0.27543  1.0000
  H   H137      1.0  0.31999  0.22677  0.27823  1.0000
  H   H138      1.0  0.25565  0.32163  0.33647  1.0000
  C   C171      1.0  0.43408  0.31992  0.40125  1.0000
  C   C172      1.0  0.41951  0.16594  0.44614  1.0000
  H   H139      1.0  0.30033  0.08219  0.26568  1.0000
  C   C173      1.0  0.32570  0.26914  0.39356  1.0000
  C   C174      1.0  0.43242  0.06684  0.40077  1.0000
  H   H140      1.0  0.27459  0.19313  0.42835  1.0000
  H   H141      1.0  0.47430  0.07718  0.43728  1.0000
  C   C175      1.0  0.14555  0.22061  0.28582  1.0000
  H   H142      1.0  0.07465  0.32311  0.25521  1.0000
  S   S27       1.0  0.28910  0.02423  0.28751  1.0000
  H   H143      1.0  0.29040  0.31162  0.36150  1.0000
  C   C176      1.0  0.39400  0.12002  0.34460  1.0000
  C   C177      1.0  0.39098  0.07806  0.36907  1.0000
  H   H144      1.0  0.39038  0.29283  0.41493  1.0000
  C   C178      1.0  0.32021  0.03570  0.44326  1.0000
  H   H145      1.0  0.33300  0.08327  0.44624  1.0000
  C   C179      1.0  0.41015  0.05959  0.42731  1.0000
  C   C180      1.0  0.21693  0.32028  0.41457  1.0000
  H   H146      1.0  0.42267  0.14502  0.44810  1.0000
  C   C181      1.0  0.39553  0.29872  0.45309  1.0000
  H   H147      1.0  0.41637  0.16206  0.37977  1.0000
  C   C182      1.0  0.47197  0.03349  0.24343  1.0000
  C   C183      1.0  0.41462  0.29672  0.41268  1.0000
  C   C184      1.0  0.29655  0.00567  0.44571  1.0000
  C   C185      1.0  0.41986  0.27080  0.46692  1.0000
  H   H148      1.0  0.32631  0.28638  0.40106  1.0000
  H   H149      1.0  0.29608  0.31134  0.24486  1.0000
  C   C186      1.0  0.33861  0.23218  0.44630  1.0000
  C   C187      1.0  0.35673  0.20893  0.24112  1.0000
  H   H150      1.0  0.47663  0.16080  0.45258  1.0000
  H   H151      1.0  0.39422  0.03014  0.34457  1.0000
  H   H152      1.0  0.19184  0.22489  0.27876  1.0000
  H   H153      1.0  0.22454  0.31121  0.42433  1.0000
  C   C188      1.0  0.41133  0.22024  0.44134  1.0000
  Fe  Fe14      1.0  0.01318  0.32661  0.28206  1.0000
  H   H154      1.0  0.20508  0.06959  0.27243  1.0000
  C   C189      1.0  0.33928  0.03790  0.23940  1.0000
  H   H155      1.0  0.26905  0.14022  0.37533  1.0000
  H   H156      1.0  0.43464  0.04229  0.36284  1.0000
  H   H157      1.0  0.42035  0.01658  0.27578  1.0000
  C   C190      1.0  0.36664  0.14686  0.27576  1.0000
  C   C191      1.0  0.29899  0.20511  0.43004  1.0000
  C   C192      1.0  0.11898  0.30066  0.46786  1.0000
  C   C193      1.0  0.30717  0.21701  0.44401  1.0000
  H   H158      1.0  0.38998  0.06116  0.37815  1.0000
  H   H159      1.0  0.39528  0.13601  0.33496  1.0000
  S   S28       1.0  0.34108  0.31296  0.33918  1.0000
  C   C194      1.0  0.36216  0.23613  0.43448  1.0000
  H   H160      1.0  0.39801  0.09524  0.43467  1.0000
  C   C195      1.0  0.25186  0.07265  0.26951  1.0000
  C   C196      1.0  0.45888  0.28735  0.41930  1.0000
  C   C197      1.0  0.18248  0.26009  0.26666  1.0000
  H   H161      1.0  0.34342  0.03995  0.43825  1.0000
  C   C198      1.0  0.10595  0.27166  0.46270  1.0000
  S   S29       1.0  0.28627  0.00854  0.32511  1.0000
  H   H162      1.0  0.33796  0.00689  0.46623  1.0000
  P   P7        1.0  0.40266  0.25314  0.43782  1.0000
  H   H163      1.0  0.24515  0.04958  0.27491  1.0000
  C   C199      1.0  0.47826  0.31040  0.40779  1.0000
  C   C200      1.0  0.35380  0.22400  0.42051  1.0000
  C   C201      1.0  0.14788  0.32661  0.25690  1.0000
  C   C202      1.0  0.39531  0.01191  0.35206  1.0000
  H   H164      1.0  0.43740  0.22600  0.41896  1.0000
  H   H165      1.0  0.10129  0.22274  0.29087  1.0000
  H   H166      1.0  0.35013  0.26868  0.25739  1.0000
  C   C203      1.0  0.39738  0.31607  0.46543  1.0000
  H   H167      1.0  0.15966  0.25384  0.31834  1.0000
  H   H168      1.0  0.35345  0.08324  0.33797  1.0000
  C   C204      1.0  0.42676  0.27984  0.42162  1.0000
  Fe  Fe15      1.0  0.32854  0.00970  0.28500  1.0000
  H   H169      1.0  0.32739  0.04456  0.24848  1.0000
  H   H170      1.0  0.10701  0.29670  0.24686  1.0000
  C   C205      1.0  0.31436  0.06030  0.44771  1.0000
  C   C206      1.0  0.46583  0.32659  0.39872  1.0000
  P   P8        1.0  0.17097  0.30633  0.25123  1.0000
  C   C207      1.0  0.40226  0.17353  0.45738  1.0000
  C   C208      1.0  0.42810  0.21207  0.42990  1.0000
  C   C209      1.0  0.34748  0.24546  0.25618  1.0000
  C   C210      1.0  0.37039  0.09022  0.34627  1.0000
  C   C211      1.0  0.40645  0.27570  0.45381  1.0000
  C   C212      1.0  0.11700  0.31637  0.25325  1.0000
  C   C213      1.0  0.32228  0.20836  0.41836  1.0000
  C   C214      1.0  0.36890  0.06926  0.35848  1.0000
  C   C215      1.0  0.12383  0.23288  0.28396  1.0000
  C   C216      1.0  0.29640  0.22294  0.38193  1.0000
  C   C217      1.0  0.32416  0.22474  0.37401  1.0000
  C   C218      1.0  0.35264  0.24913  0.37593  1.0000
  P   P9        1.0  0.32360  0.19580  0.36175  1.0000
  C   C219      1.0  0.35064  0.21478  0.34467  1.0000
  C   C220      1.0  0.33449  0.16821  0.37172  1.0000
  C   C221      1.0  0.32669  0.13933  0.36642  1.0000
  C   C222      1.0  0.33370  0.11737  0.37449  1.0000
  C   C223      1.0  0.34891  0.12413  0.38777  1.0000
  C   C224      1.0  0.35720  0.15297  0.39298  1.0000
  C   C225      1.0  0.35029  0.17503  0.38491  1.0000
  C   C226      1.0  0.35357  0.24340  0.33820  1.0000
  C   C227      1.0  0.37487  0.25875  0.32522  1.0000
  C   C228      1.0  0.39325  0.24551  0.31847  1.0000
  C   C229      1.0  0.39056  0.21703  0.32483  1.0000
  C   C230      1.0  0.36940  0.20170  0.33792  1.0000
  C   C231      1.0  0.28447  0.17658  0.35641  1.0000
  C   C232      1.0  0.27481  0.18915  0.34398  1.0000
  S   S30       1.0  0.06508  0.27206  0.31476  1.0000
  C   C233      1.0  0.23204  0.13548  0.36160  1.0000
  C   C234      1.0  0.26263  0.14988  0.36536  1.0000
  H   H171      1.0  0.27406  0.20460  0.38062  1.0000
  H   H172      1.0  0.37429  0.25131  0.36977  1.0000
  H   H173      1.0  0.31495  0.13369  0.35610  1.0000
  H   H174      1.0  0.32715  0.09500  0.37045  1.0000
  H   H175      1.0  0.35433  0.10703  0.39398  1.0000
  H   H176      1.0  0.36906  0.15825  0.40327  1.0000
  H   H177      1.0  0.35719  0.19727  0.38902  1.0000
  H   H178      1.0  0.33932  0.25390  0.34319  1.0000
  H   H179      1.0  0.37693  0.28093  0.32040  1.0000
  H   H180      1.0  0.40946  0.25732  0.30829  1.0000
  H   H181      1.0  0.40466  0.20667  0.31952  1.0000
  H   H182      1.0  0.36755  0.17958  0.34253  1.0000
  C   C235      1.0  0.48399  0.10195  0.43618  1.0000
  H   H183      1.0  0.21544  0.11467  0.36839  1.0000
  H   H184      1.0  0.21859  0.31897  0.37567  1.0000
  H   H185      1.0  0.23531  0.29859  0.39834  1.0000
  C   C236      1.0  0.47155  0.11668  0.44627  1.0000
  C   C237      1.0  0.42158  0.28828  0.47924  1.0000
  H   H186      1.0  0.42163  0.01665  0.24774  1.0000
  C   C238      1.0  0.44253  0.02342  0.26880  1.0000
  H   H187      1.0  0.46921  0.27611  0.42672  1.0000
  H   H188      1.0  0.23774  0.02157  0.46172  1.0000
  C   C239      1.0  0.34013  0.32650  0.35767  1.0000
  H   H189      1.0  0.37808  0.00384  0.39232  1.0000
  Fe  Fe16      1.0  0.40899  0.09810  0.48110  1.0000
  C   C240      1.0  0.47713  0.11101  0.37152  1.0000
  H   H190      1.0  0.21143  0.32430  0.27558  1.0000
  C   C241      1.0  0.21224  0.33046  0.25087  1.0000
  H   H191      1.0  0.46281  0.10882  0.34844  1.0000
  C   C242      1.0  0.26651  0.00088  0.45203  1.0000
  H   H192      1.0  0.11870  0.32935  0.30157  1.0000
  S   S31       1.0  0.29834  0.32795  0.30380  1.0000
  S   S32       1.0  0.35851  0.08818  0.47951  1.0000
  H   H193      1.0  0.48324  0.31152  0.44587  1.0000
  Fe  Fe17      1.0  0.34614  0.05331  0.50022  1.0000
  S   S33       1.0  0.39627  0.06133  0.50092  1.0000
  H   H194      1.0  0.05466  0.29974  0.54404  1.0000
  Fe  Fe18      1.0  0.36540  0.12293  0.49677  1.0000
  S   S34       1.0  0.41660  0.13474  0.49709  1.0000
  Fe  Fe19      1.0  0.40001  0.09682  0.51702  1.0000
  S   S35       1.0  0.42707  0.09551  0.53767  1.0000
  S   S36       1.0  0.34916  0.08702  0.51749  1.0000
  C   C243      1.0  0.35155  0.24388  0.49787  1.0000
  C   C244      1.0  0.47449  0.28348  0.51524  1.0000
  Fe  Fe20      1.0  0.44149  0.05495  0.65850  1.0000
  S   S37       1.0  0.40944  0.07726  0.65395  1.0000
  H   H195      1.0  0.34288  0.03741  0.65210  1.0000
  Fe  Fe21      1.0  0.43872  0.09697  0.63097  1.0000
  S   S38       1.0  0.41037  0.09878  0.61092  1.0000
  H   H196      1.0  0.03070  0.20302  0.59180  1.0000
  H   H197      1.0  0.40299  0.17205  0.70240  1.0000
  H   H198      1.0  0.45017  0.18998  0.63780  1.0000
  H   H199      1.0  0.99553  0.26358  0.67344  1.0000
  H   H200      1.0  0.33108  0.04736  0.57220  1.0000
  C   C245      1.0  0.35684  0.19522  0.49855  1.0000
  H   H201      1.0  0.27418  0.06583  0.71485  1.0000
  S   S39       1.0  0.42487  0.00562  0.66912  1.0000
  H   H202      1.0  0.33940  0.00943  0.70314  1.0000
  C   C246      1.0  0.47223  0.16662  0.69811  1.0000
  C   C247      1.0  0.34289  0.08434  0.69271  1.0000
  H   H203      1.0  0.32913  0.20795  0.48350  1.0000
  H   H204      1.0  0.34197  0.25889  0.49301  1.0000
  C   C248      1.0  0.44968  0.25006  0.66528  1.0000
  H   H205      1.0  0.46009  0.22778  0.49107  1.0000
  H   H206      1.0  0.41851  0.21901  0.63313  1.0000
  C   C249      1.0  0.45251  0.07916  0.71072  1.0000
  H   H207      1.0  0.28540  0.01574  0.65817  1.0000
  H   H208      1.0  0.41707  0.00130  0.71678  1.0000
  H   H209      1.0  0.38435  0.03126  0.68280  1.0000
  C   C250      1.0  0.47045  0.19668  0.71939  1.0000
  C   C251      1.0  0.37721  0.02202  0.59745  1.0000
  C   C252      1.0  0.43212  0.19565  0.55002  1.0000
  C   C253      1.0  0.45492  0.31881  0.65380  1.0000
  S   S40       1.0  0.38079  0.28914  0.51712  1.0000
  H   H210      1.0  0.43086  0.28400  0.48961  1.0000
  C   C254      1.0  0.41644  0.09957  0.59045  1.0000
  C   C255      1.0  0.39348  0.10105  0.58146  1.0000
  C   C256      1.0  0.39644  0.10025  0.56530  1.0000
  C   C257      1.0  0.42232  0.09766  0.55792  1.0000
  C   C258      1.0  0.44533  0.09630  0.56689  1.0000
  C   C259      1.0  0.44254  0.09740  0.58301  1.0000
  H   H211      1.0  0.37314  0.10263  0.58706  1.0000
  H   H212      1.0  0.37864  0.10144  0.55857  1.0000
  H   H213      1.0  0.48337  0.07687  0.51696  1.0000
  H   H214      1.0  0.46030  0.09605  0.58973  1.0000
  C   C260      1.0  0.38321  0.23328  0.51576  1.0000
  C   C261      1.0  0.37652  0.20466  0.51017  1.0000
  H   H215      1.0  0.39798  0.24011  0.52494  1.0000
  H   H216      1.0  0.38615  0.18970  0.51501  1.0000
  H   H217      1.0  0.34702  0.20930  0.72588  1.0000
  C   C262      1.0  0.31634  0.06762  0.72344  1.0000
  S   S41       1.0  0.47101  0.13926  0.64081  1.0000
  H   H218      1.0  0.47004  0.28577  0.52731  1.0000
  C   C263      1.0  0.02119  0.21559  0.58469  1.0000
  H   H219      1.0  0.40985  0.31016  0.68765  1.0000
  H   H220      1.0  0.47180  0.25331  0.70399  1.0000
  C   C264      1.0  0.46736  0.23329  0.66789  1.0000
  C   C265      1.0  0.29710  0.00063  0.65817  1.0000
  C   C266      1.0  0.31525  0.04129  0.56341  1.0000
  H   H221      1.0  0.00763  0.27206  0.60687  1.0000
  H   H222      1.0  0.43117  0.28888  0.70964  1.0000
  C   C267      1.0  0.48317  0.10272  0.49597  1.0000
  S   S42       1.0  0.46871  0.07149  0.63482  1.0000
  H   H223      1.0  0.46539  0.09414  0.56133  1.0000
  H   H224      1.0  0.27691  0.32326  0.66690  1.0000
  S   S43       1.0  0.03949  0.29442  0.49005  1.0000
  C   C268      1.0  0.48294  0.19072  0.53371  1.0000
  H   H225      1.0  0.44918  0.23426  0.51842  1.0000
  H   H226      1.0  0.41710  0.25633  0.65078  1.0000
  H   H227      1.0  0.37795  0.02343  0.57286  1.0000
  C   C269      1.0  0.10474  0.32130  0.54124  1.0000
  H   H228      1.0  0.47564  0.08319  0.48932  1.0000
  C   C270      1.0  0.42080  0.31842  0.67596  1.0000
  S   S44       1.0  0.34641  0.15878  0.49150  1.0000
  C   C271      1.0  0.42709  0.17572  0.53860  1.0000
  H   H229      1.0  0.48075  0.19846  0.66021  1.0000
  C   C272      1.0  0.98753  0.21659  0.56535  1.0000
  H   H230      1.0  0.31574  0.08623  0.56061  1.0000
  H   H231      1.0  0.38496  0.08634  0.70089  1.0000
  C   C273      1.0  0.02026  0.29627  0.60782  1.0000
  C   C274      1.0  0.39808  0.03132  0.72558  1.0000
  C   C275      1.0  0.27540  0.02743  0.54018  1.0000
  C   C276      1.0  0.30654  0.06346  0.55688  1.0000
  H   H232      1.0  0.43278  0.10931  0.71828  1.0000
  C   C277      1.0  0.44043  0.19264  0.71643  1.0000
  C   C278      1.0  0.36081  0.08156  0.70421  1.0000
  H   H233      1.0  0.36999  0.00309  0.65265  1.0000
  H   H234      1.0  0.28046  0.07397  0.54001  1.0000
  C   C279      1.0  0.46774  0.21194  0.65790  1.0000
  C   C280      1.0  0.45032  0.20698  0.64534  1.0000
  C   C281      1.0  0.32952  0.01287  0.65477  1.0000
  C   C282      1.0  0.42103  0.02490  0.71763  1.0000
  C   C283      1.0  0.39242  0.22563  0.69151  1.0000
  C   C284      1.0  0.42955  0.08566  0.71855  1.0000
  C   C285      1.0  0.45241  0.17338  0.53047  1.0000
  C   C286      1.0  0.44810  0.04877  0.71008  1.0000
  P   P10       1.0  0.03465  0.30481  0.57560  1.0000
  C   C287      1.0  0.43190  0.24462  0.65271  1.0000
  C   C288      1.0  0.37088  0.25313  0.50965  1.0000
  C   C289      1.0  0.46294  0.25418  0.51029  1.0000
  H   H235      1.0  0.00448  0.22895  0.49352  1.0000
  H   H236      1.0  0.29787  0.08078  0.68756  1.0000
  H   H237      1.0  0.38716  0.26055  0.72971  1.0000
  H   H238      1.0  0.48024  0.23588  0.67780  1.0000
  H   H239      1.0  0.26072  0.02230  0.53086  1.0000
  C   C290      1.0  0.29838  0.07022  0.71189  1.0000
  H   H240      1.0  0.47323  0.09774  0.70469  1.0000
  H   H241      1.0  0.47054  0.31045  0.64816  1.0000
  C   C291      1.0  0.28659  0.05653  0.54530  1.0000
  H   H242      1.0  0.46524  0.04373  0.70337  1.0000
  C   C292      1.0  0.36365  0.01385  0.58383  1.0000
  C   C293      1.0  0.30388  0.01190  0.55842  1.0000
  C   C294      1.0  0.03152  0.24723  0.58508  1.0000
  C   C295      1.0  0.01918  0.26363  0.57596  1.0000
  H   H243      1.0  0.00926  0.29046  0.63257  1.0000
  H   H244      1.0  0.42806  0.20272  0.72336  1.0000
  H   H245      1.0  0.35050  0.18684  0.70142  1.0000
  H   H246      1.0  0.00531  0.28548  0.52223  1.0000
  Fe  Fe22      1.0  0.44403  0.11778  0.66399  1.0000
  C   C296      1.0  0.44220  0.16254  0.69520  1.0000
  S   S45       1.0  0.42354  0.14162  0.68015  1.0000
  C   C297      1.0  0.99921  0.27085  0.48859  1.0000
  S   S46       1.0  0.47423  0.09403  0.67012  1.0000
  C   C298      1.0  0.02085  0.30660  0.62243  1.0000
  C   C299      1.0  0.41545  0.25457  0.69368  1.0000
  C   C300      1.0  0.99763  0.24819  0.56583  1.0000
  C   C301      1.0  0.07284  0.31905  0.56481  1.0000
  H   H247      1.0  0.41242  0.19726  0.55638  1.0000
  H   H248      1.0  0.35356  0.09132  0.68085  1.0000
  C   C302      1.0  0.42634  0.17543  0.70448  1.0000
  C   C303      1.0  0.34448  0.21505  0.49243  1.0000
  C   C304      1.0  0.43242  0.22332  0.64273  1.0000
  H   H249      1.0  0.44803  0.15730  0.52200  1.0000
  C   C305      1.0  0.00991  0.31924  0.56635  1.0000
  H   H250      1.0  0.40353  0.16160  0.53622  1.0000
  H   H251      1.0  0.39342  0.21531  0.68098  1.0000
  H   H252      1.0  0.46632  0.22814  0.56240  1.0000
  H   H253      1.0  0.04941  0.25898  0.59237  1.0000
  C   C306      1.0  0.36602  0.22183  0.71689  1.0000
  C   C307      1.0  0.38874  0.25062  0.71910  1.0000
  C   C308      1.0  0.41359  0.26674  0.70765  1.0000
  C   C309      1.0  0.03553  0.31721  0.59468  1.0000
  H   H254      1.0  0.40174  0.03734  0.59697  1.0000
  C   C310      1.0  0.28384  0.00513  0.54676  1.0000
  C   C311      1.0  0.44009  0.30633  0.66878  1.0000
  C   C312      1.0  0.46250  0.21305  0.55338  1.0000
  C   C313      1.0  0.36790  0.20930  0.70311  1.0000
  C   C314      1.0  0.31166  0.07858  0.69652  1.0000
  P   P11       1.0  0.44712  0.27602  0.67874  1.0000
  S   S47       1.0  0.31465  0.00156  0.50269  1.0000
  C   C315      1.0  0.48313  0.29282  0.68744  1.0000
  H   H255      1.0  0.26484  0.01648  0.49168  1.0000
  C   C316      1.0  0.34764  0.07293  0.71966  1.0000
  H   H256      1.0  0.33392  0.00068  0.53313  1.0000
  C   C317      1.0  0.07538  0.31222  0.54954  1.0000
  C   C318      1.0  0.99911  0.20026  0.57487  1.0000
  H   H257      1.0  0.99140  0.17580  0.57442  1.0000
  C   C319      1.0  0.40205  0.06178  0.72600  1.0000
  H   H258      1.0  0.36977  0.01839  0.62217  1.0000
  C   C320      1.0  0.37689  0.00809  0.68813  1.0000
  H   H259      1.0  0.98910  0.26060  0.55808  1.0000
  C   C321      1.0  0.98825  0.23871  0.49106  1.0000
  C   C322      1.0  0.35913  0.01113  0.61172  1.0000
  H   H260      1.0  0.99353  0.28983  0.72714  1.0000
  C   C323      1.0  0.46911  0.25051  0.49487  1.0000
  H   H261      1.0  0.44423  0.32412  0.52064  1.0000
  H   H262      1.0  0.98579  0.30760  0.48334  1.0000
  H   H263      1.0  0.10651  0.31569  0.52951  1.0000
  H   H264      1.0  0.99267  0.31995  0.68721  1.0000
  H   H265      1.0  0.41180  0.32442  0.48798  1.0000
  H   H266      1.0  0.37684  0.01235  0.73081  1.0000
  H   H267      1.0  0.99641  0.33028  0.51275  1.0000
  Fe  Fe23      1.0  0.33009  0.17192  0.90552  1.0000
  S   S48       1.0  0.37822  0.17346  0.90502  1.0000
  S   S49       1.0  0.28457  0.12943  0.90624  1.0000
  Fe  Fe24      1.0  0.35377  0.24112  0.90507  1.0000
  S   S50       1.0  0.40371  0.24773  0.90478  1.0000
  C   C324      1.0  0.03377  0.23991  0.92619  1.0000
  Fe  Fe25      1.0  0.39227  0.21399  0.88715  1.0000
  S   S51       1.0  0.42810  0.22405  0.86638  1.0000
  Fe  Fe26      1.0  0.38555  0.20703  0.92266  1.0000
  S   S52       1.0  0.41176  0.20277  0.94285  1.0000
  S   S53       1.0  0.34368  0.20998  0.88625  1.0000
  S   S54       1.0  0.33637  0.20289  0.92440  1.0000
  H   H268      1.0  0.99194  0.19731  0.82999  1.0000
  S   S55       1.0  0.01211  0.24420  0.88456  1.0000
  H   H269      1.0  0.99912  0.30098  0.77524  1.0000
  H   H270      1.0  0.04808  0.31592  0.97904  1.0000
  C   C325      1.0  0.30447  0.28337  0.81865  1.0000
  H   H271      1.0  0.36894  0.27674  0.83015  1.0000
  S   S56       1.0  0.39602  0.22493  0.79691  1.0000
  Fe  Fe27      1.0  0.43406  0.25097  0.77718  1.0000
  H   H272      1.0  0.31684  0.08051  0.97134  1.0000
  C   C326      1.0  0.33100  0.08311  0.96058  1.0000
  S   S57       1.0  0.42410  0.24499  0.75248  1.0000
  C   C327      1.0  0.41852  0.22516  0.84721  1.0000
  C   C328      1.0  0.38753  0.21409  0.84387  1.0000
  C   C329      1.0  0.38091  0.21441  0.82842  1.0000
  C   C330      1.0  0.40519  0.22610  0.81620  1.0000
  C   C331      1.0  0.43614  0.23774  0.81958  1.0000
  C   C332      1.0  0.44271  0.23695  0.83500  1.0000
  H   H273      1.0  0.36869  0.20473  0.85315  1.0000
  H   H274      1.0  0.35691  0.20540  0.82589  1.0000
  C   C333      1.0  0.31828  0.07756  0.79462  1.0000
  H   H275      1.0  0.34063  0.04326  0.93135  1.0000
  C   C334      1.0  0.40713  0.21835  0.96009  1.0000
  C   C335      1.0  0.42193  0.21424  0.97281  1.0000
  S   S58       1.0  0.29095  0.00323  0.89547  1.0000
  C   C336      1.0  0.38901  0.23486  0.96128  1.0000
  C   C337      1.0  0.48231  0.32035  0.82623  1.0000
  H   H276      1.0  0.44639  0.30605  0.84531  1.0000
  H   H277      1.0  0.37859  0.23881  0.95131  1.0000
  C   C338      1.0  0.28621  0.09411  0.90359  1.0000
  C   C339      1.0  0.31458  0.09153  0.90287  1.0000
  C   C340      1.0  0.31545  0.06333  0.90066  1.0000
  C   C341      1.0  0.28803  0.03747  0.89914  1.0000
  C   C342      1.0  0.25948  0.03974  0.90017  1.0000
  C   C343      1.0  0.25862  0.06808  0.90231  1.0000
  H   H278      1.0  0.33589  0.11125  0.90392  1.0000
  H   H279      1.0  0.33753  0.06159  0.89999  1.0000
  H   H280      1.0  0.23820  0.01978  0.89912  1.0000
  H   H281      1.0  0.23655  0.06985  0.90292  1.0000
  C   C344      1.0  0.29182  0.17700  0.96516  1.0000
  C   C345      1.0  0.09658  0.30828  0.89211  1.0000
  C   C346      1.0  0.07246  0.28164  0.88817  1.0000
  C   C347      1.0  0.04141  0.27811  0.88968  1.0000
  C   C348      1.0  0.03459  0.30164  0.89496  1.0000
  H   H282      1.0  0.00020  0.27244  0.85566  1.0000
  C   C349      1.0  0.25879  0.17966  0.87000  1.0000
  H   H283      1.0  0.07785  0.26353  0.88405  1.0000
  H   H284      1.0  0.01073  0.29912  0.89612  1.0000
  H   H285      1.0  0.98887  0.21802  0.85499  1.0000
  H   H286      1.0  0.23339  0.24566  0.91456  1.0000
  C   C350      1.0  0.28347  0.26242  0.91014  1.0000
  C   C351      1.0  0.25529  0.26577  0.91187  1.0000
  H   H287      1.0  0.28330  0.23990  0.91165  1.0000
  C   C352      1.0  0.31180  0.28828  0.90635  1.0000
  H   H288      1.0  0.42429  0.14162  0.96170  1.0000
  C   C353      1.0  0.01266  0.27196  0.81675  1.0000
  H   H289      1.0  0.25725  0.31510  0.97898  1.0000
  P   P12       1.0  0.01723  0.30272  0.95037  1.0000
  H   H290      1.0  0.27813  0.12141  0.94097  1.0000
  H   H291      1.0  0.46797  0.28667  0.97759  1.0000
  S   S59       1.0  0.48085  0.24955  0.77331  1.0000
  H   H292      1.0  0.37548  0.17013  0.74830  1.0000
  C   C354      1.0  0.35873  0.27884  0.80688  1.0000
  C   C355      1.0  0.48427  0.23033  0.89214  1.0000
  H   H293      1.0  0.35235  0.12134  0.73677  1.0000
  C   C356      1.0  0.41531  0.11425  0.74997  1.0000
  C   C357      1.0  0.38511  0.24672  0.97517  1.0000
  H   H294      1.0  0.37953  0.27655  0.80232  1.0000
  C   C358      1.0  0.03732  0.26694  0.93245  1.0000
  S   S60       1.0  0.42363  0.32310  0.73620  1.0000
  H   H295      1.0  0.46266  0.23201  0.91443  1.0000
  H   H296      1.0  0.25097  0.16976  0.84663  1.0000
  H   H297      1.0  0.30580  0.06142  0.73531  1.0000
  C   C359      1.0  0.25917  0.01824  0.95229  1.0000
  H   H298      1.0  0.28096  0.22334  0.83539  1.0000
  H   H299      1.0  0.40942  0.05007  0.97826  1.0000
  C   C360      1.0  0.28361  0.32075  0.90636  1.0000
  C   C361      1.0  0.32560  0.28178  0.82877  1.0000
  H   H300      1.0  0.24298  0.03428  0.78879  1.0000
  H   H301      1.0  0.42426  0.18368  0.76066  1.0000
  C   C362      1.0  0.00138  0.26387  0.84459  1.0000
  C   C363      1.0  0.00996  0.28356  0.83082  1.0000
  H   H302      1.0  0.47347  0.28643  0.94919  1.0000
  H   H303      1.0  0.20619  0.03691  0.87786  1.0000
  C   C364      1.0  0.38635  0.15431  0.74886  1.0000
  H   H304      1.0  0.45504  0.24687  0.81030  1.0000
  C   C365      1.0  0.41384  0.16202  0.75583  1.0000
  H   H305      1.0  0.00417  0.25943  0.97791  1.0000
  H   H306      1.0  0.05833  0.28744  0.92874  1.0000
  C   C366      1.0  0.36654  0.09127  0.93229  1.0000
  H   H307      1.0  0.34289  0.28092  0.78458  1.0000
  C   C367      1.0  0.27221  0.29495  0.86588  1.0000
  H   H308      1.0  0.30688  0.18703  0.97393  1.0000
  C   C368      1.0  0.00576  0.32344  0.93596  1.0000
  H   H309      1.0  0.38833  0.13904  0.93584  1.0000
  C   C369      1.0  0.25668  0.04472  0.94613  1.0000
  H   H310      1.0  0.05262  0.32381  0.85870  1.0000
  C   C370      1.0  0.36418  0.32408  0.86335  1.0000
  C   C371      1.0  0.35251  0.08964  0.86498  1.0000
  C   C372      1.0  0.35345  0.11864  0.86115  1.0000
  C   C373      1.0  0.33418  0.12232  0.85061  1.0000
  C   C374      1.0  0.31405  0.09704  0.84388  1.0000
  C   C375      1.0  0.31328  0.06784  0.84750  1.0000
  C   C376      1.0  0.33234  0.06425  0.85831  1.0000
  P   P13       1.0  0.28674  0.03550  0.83871  1.0000
  C   C377      1.0  0.24786  0.02126  0.84884  1.0000
  C   C378      1.0  0.28805  0.04783  0.81854  1.0000
  C   C379      1.0  0.26154  0.03553  0.81064  1.0000
  H   H311      1.0  0.46669  0.24560  0.83746  1.0000
  C   C380      1.0  0.01352  0.26742  0.94288  1.0000
  C   C381      1.0  0.99401  0.29208  0.75164  1.0000
  C   C382      1.0  0.31651  0.06879  0.81037  1.0000
  C   C383      1.0  0.31080  0.28333  0.80276  1.0000
  C   C384      1.0  0.37337  0.12664  0.74232  1.0000
  H   H312      1.0  0.31025  0.14351  0.96198  1.0000
  C   C385      1.0  0.29765  0.00369  0.83986  1.0000
  C   C386      1.0  0.24080  0.03722  0.86031  1.0000
  C   C387      1.0  0.29069  0.01495  0.98027  1.0000
  H   H313      1.0  0.33609  0.02139  0.78848  1.0000
  H   H314      1.0  0.42687  0.09905  0.75050  1.0000
  C   C388      1.0  0.21123  0.02487  0.86877  1.0000
  H   H315      1.0  0.22820  0.06282  0.93468  1.0000
  C   C389      1.0  0.40741  0.31597  0.87266  1.0000
  H   H316      1.0  0.36710  0.08671  0.87333  1.0000
  H   H317      1.0  0.36893  0.13826  0.86642  1.0000
  H   H318      1.0  0.33484  0.14481  0.84771  1.0000
  H   H319      1.0  0.29904  0.10027  0.83586  1.0000
  H   H320      1.0  0.33161  0.04199  0.86176  1.0000
  H   H321      1.0  0.26595  0.27416  0.87346  1.0000
  H   H322      1.0  0.05180  0.23996  0.91778  1.0000
  C   C390      1.0  0.29181  0.06512  0.78684  1.0000
  H   H323      1.0  0.33744  0.07824  0.81614  1.0000
  H   H324      1.0  0.35904  0.25319  0.85712  1.0000
  H   H325      1.0  0.24596  0.15599  0.87492  1.0000
  H   H326      1.0  0.34011  0.04027  0.98198  1.0000
  P   P14       1.0  0.37111  0.07036  0.73462  1.0000
  H   H327      1.0  0.25821  0.05872  0.86315  1.0000
  C   C391      1.0  0.42838  0.14208  0.75632  1.0000
  Fe  Fe28      1.0  0.44723  0.29664  0.74837  1.0000
  P   P15       1.0  0.31637  0.28023  0.84938  1.0000
  H   H328      1.0  0.46767  0.32341  0.81792  1.0000
  H   H329      1.0  0.00768  0.23196  0.80554  1.0000
  C   C392      1.0  0.17817  0.23131  0.96270  1.0000
  C   C393      1.0  0.20068  0.23812  0.95008  1.0000
  C   C394      1.0  0.22824  0.23485  0.95192  1.0000
  C   C395      1.0  0.23366  0.22485  0.96641  1.0000
  C   C396      1.0  0.25125  0.32764  0.95579  1.0000
  P   P16       1.0  0.27034  0.22233  0.96846  1.0000
  C   C397      1.0  0.35258  0.27903  0.82275  1.0000
  C   C398      1.0  0.27139  0.18930  0.96019  1.0000
  C   C399      1.0  0.25325  0.17655  0.94831  1.0000
  H   H330      1.0  0.29456  0.28480  0.79500  1.0000
  H   H331      1.0  0.24219  0.14268  0.93208  1.0000
  H   H332      1.0  0.02013  0.28687  0.80601  1.0000
  C   C400      1.0  0.25552  0.15194  0.94156  1.0000
  C   C401      1.0  0.39551  0.28668  0.86781  1.0000
  C   C402      1.0  0.29554  0.30360  0.85333  1.0000
  C   C403      1.0  0.98470  0.32286  0.80733  1.0000
  H   H333      1.0  0.47873  0.29714  0.86412  1.0000
  C   C404      1.0  0.20504  0.01364  0.93934  1.0000
  C   C405      1.0  0.30088  0.25683  0.95831  1.0000
  C   C406      1.0  0.29770  0.28452  0.95759  1.0000
  C   C407      1.0  0.31998  0.31063  0.94861  1.0000
  C   C408      1.0  0.34629  0.30955  0.94085  1.0000
  C   C409      1.0  0.35018  0.28236  0.94200  1.0000
  C   C410      1.0  0.32735  0.25601  0.95053  1.0000
  H   H334      1.0  0.27575  0.06714  0.94582  1.0000
  H   H335      1.0  0.15681  0.23387  0.96121  1.0000
  H   H336      1.0  0.19688  0.24617  0.93884  1.0000
  H   H337      1.0  0.24560  0.24053  0.94205  1.0000
  H   H338      1.0  0.36312  0.32938  0.93347  1.0000
  H   H339      1.0  0.23776  0.18574  0.94398  1.0000
  C   C411      1.0  0.06533  0.32752  0.96924  1.0000
  C   C412      1.0  0.99492  0.23289  0.84426  1.0000
  H   H340      1.0  0.28298  0.28443  0.82304  1.0000
  C   C413      1.0  0.98596  0.24040  0.94676  1.0000
  C   C414      1.0  0.25667  0.31345  0.86895  1.0000
  H   H341      1.0  0.37977  0.09458  0.92113  1.0000
  C   C415      1.0  0.22967  0.04238  0.93974  1.0000
  C   C416      1.0  0.29030  0.23279  0.87328  1.0000
  C   C417      1.0  0.32384  0.01274  0.74542  1.0000
  H   H342      1.0  0.27746  0.28555  0.96353  1.0000
  C   C418      1.0  0.47040  0.31070  0.84170  1.0000
  C   C419      1.0  0.34702  0.03990  0.74946  1.0000
  H   H343      1.0  0.37013  0.28130  0.93557  1.0000
  H   H344      1.0  0.32997  0.23485  0.95070  1.0000
  P   P17       1.0  0.29491  0.02058  0.95940  1.0000
  C   C420      1.0  0.41739  0.09511  0.96828  1.0000
  Fe  Fe29      1.0  0.47264  0.24785  0.74818  1.0000
  H   H345      1.0  0.27091  0.19626  0.89192  1.0000
  C   C421      1.0  0.27282  0.20238  0.87960  1.0000
  H   H346      1.0  0.23870  0.30665  0.87866  1.0000
  H   H347      1.0  0.35743  0.13193  0.96099  1.0000
  H   H348      1.0  0.34025  0.09396  0.78844  1.0000
  C   C422      1.0  0.41935  0.12396  0.97119  1.0000
  C   C423      1.0  0.25527  0.29495  0.91016  1.0000
  C   C424      1.0  0.32619  0.05766  0.95239  1.0000
  S   S61       1.0  0.21950  0.29826  0.91314  1.0000
  C   C425      1.0  0.00590  0.24088  0.81644  1.0000
  H   H349      1.0  0.23940  0.01914  0.81653  1.0000
  C   C426      1.0  0.00466  0.30342  0.73617  1.0000
  C   C427      1.0  0.38779  0.10638  0.74283  1.0000
  C   C428      1.0  0.37123  0.11635  0.94053  1.0000
  H   H350      1.0  0.29327  0.07169  0.77461  1.0000
  H   H351      1.0  0.36903  0.06343  0.76859  1.0000
  H   H352      1.0  0.36735  0.32852  0.97572  1.0000
  C   C429      1.0  0.35129  0.04288  0.76510  1.0000
  C   C430      1.0  0.00780  0.30983  0.76328  1.0000
  H   H353      1.0  0.43653  0.20201  0.97188  1.0000
  C   C431      1.0  0.31173  0.31739  0.90444  1.0000
  S   S62       1.0  0.34785  0.28553  0.90390  1.0000
  C   C432      1.0  0.26348  0.04409  0.79484  1.0000
  C   C433      1.0  0.35361  0.11227  0.95470  1.0000
  C   C434      1.0  0.05713  0.32526  0.95408  1.0000
  H   H354      1.0  0.12038  0.31062  0.89100  1.0000
  C   C435      1.0  0.36799  0.27603  0.86074  1.0000
  S   S63       1.0  0.45328  0.30213  0.77339  1.0000
  C   C436      1.0  0.29332  0.24085  0.85733  1.0000
  C   C437      1.0  0.33263  0.01904  0.77646  1.0000
  C   C438      1.0  0.26175  0.18743  0.85408  1.0000
  H   H355      1.0  0.30190  0.25000  0.88081  1.0000
  C   C439      1.0  0.34418  0.06204  0.93818  1.0000
  C   C440      1.0  0.41093  0.07243  0.98055  1.0000
  C   C441      1.0  0.99710  0.32958  0.84711  1.0000
  C   C442      1.0  0.27886  0.21792  0.84774  1.0000
  H   H356      1.0  0.00356  0.19239  0.92515  1.0000
  H   H357      1.0  0.42079  0.09035  0.95651  1.0000
  H   H358      1.0  0.45010  0.14856  0.76142  1.0000
  H   H359      1.0  0.40742  0.27203  0.86967  1.0000
  C   C443      1.0  0.98937  0.27140  0.97938  1.0000
  H   H360      1.0  0.32032  0.00974  0.73342  1.0000
  C   C444      1.0  0.18327  0.22128  0.97718  1.0000
  C   C445      1.0  0.27580  0.13984  0.94660  1.0000
  H   H361      1.0  0.31160  0.00695  0.81536  1.0000
  C   C446      1.0  0.00656  0.21309  0.93033  1.0000
  C   C447      1.0  0.33797  0.28114  0.79688  1.0000
  C   C448      1.0  0.99694  0.22133  0.83019  1.0000
  C   C449      1.0  0.29391  0.15234  0.95841  1.0000
  C   C450      1.0  0.35210  0.29462  0.85843  1.0000
  H   H362      1.0  0.18439  0.01176  0.93408  1.0000
  P   P18       1.0  0.02040  0.32391  0.83142  1.0000
  C   C451      1.0  0.99063  0.29372  0.96782  1.0000
  H   H363      1.0  0.37112  0.25959  0.97593  1.0000
  H   H364      1.0  0.42836  0.32387  0.87845  1.0000
  C   C452      1.0  0.47873  0.24523  0.90440  1.0000
  H   H365      1.0  0.23792  0.30423  0.95341  1.0000
  H   H366      1.0  0.29422  0.99951  0.92884  1.0000
  C   C453      1.0  0.21093  0.21812  0.97907  1.0000
  H   H367      1.0  0.47213  0.20562  0.89257  1.0000
  C   C454      1.0  0.05885  0.32861  0.89859  1.0000
  Fe  Fe30      1.0  0.37760  0.42374  0.13979  1.0000
  S   S64       1.0  0.42135  0.42121  0.12965  1.0000
  S   S65       1.0  0.35484  0.44976  0.12652  1.0000
  Fe  Fe31      1.0  0.37569  0.38816  0.17103  1.0000
  S   S66       1.0  0.41952  0.38320  0.16296  1.0000
  C   C455      1.0  0.99215  0.35223  0.21157  1.0000
  Fe  Fe32      1.0  0.43834  0.43280  0.15281  1.0000
  H   H368      1.0  0.09028  0.49512  0.09044  1.0000
  Fe  Fe33      1.0  0.39957  0.37247  0.14042  1.0000
  H   H369      1.0  0.29117  0.38603  0.02384  1.0000
  S   S67       1.0  0.39589  0.43874  0.16240  1.0000
  S   S68       1.0  0.35441  0.37410  0.14892  1.0000
  Fe  Fe34      1.0  0.22898  0.43621  0.02700  1.0000
  S   S69       1.0  0.22174  0.47731  0.03354  1.0000
  S   S70       1.0  0.20810  0.40831  0.00732  1.0000
  Fe  Fe35      1.0  0.26105  0.43248  0.05575  1.0000
  S   S71       1.0  0.25672  0.47336  0.06427  1.0000
  S   S72       1.0  0.28217  0.40371  0.06814  1.0000
  Fe  Fe36      1.0  0.20798  0.45337  0.05769  1.0000
  S   S73       1.0  0.16953  0.45973  0.07197  1.0000
  Fe  Fe37      1.0  0.27086  0.49473  0.03971  1.0000
  S   S74       1.0  0.30285  0.54522  0.03845  1.0000
  S   S75       1.0  0.21087  0.41061  0.05082  1.0000
  S   S76       1.0  0.27953  0.45526  0.03151  1.0000
  H   H370      1.0  0.06916  0.63724  0.11403  1.0000
  C   C456      1.0  0.26754  0.37185  0.02159  1.0000
  H   H371      1.0  0.07470  0.55691  0.09840  1.0000
  H   H372      1.0  0.01155  0.61126  0.11626  1.0000
  H   H373      1.0  0.13998  0.41628  0.05053  1.0000
  Fe  Fe38      1.0  0.02538  0.63968  0.16126  1.0000
  C   C457      1.0  0.32061  0.46389  0.99410  1.0000
  Fe  Fe39      1.0  0.04317  0.38606  0.14127  1.0000
  S   S77       1.0  0.02551  0.41505  0.12767  1.0000
  S   S78       1.0  0.08014  0.37299  0.13007  1.0000
  C   C458      1.0  0.31690  0.35126  0.99536  1.0000
  C   C459      1.0  0.42689  0.51781  0.13082  1.0000
  C   C460      1.0  0.99388  0.42078  0.04973  1.0000
  Fe  Fe40      1.0  0.02656  0.43880  0.14897  1.0000
  C   C461      1.0  0.06496  0.45481  0.07935  1.0000
  S   S79       1.0  0.04796  0.41183  0.16220  1.0000
  C   C462      1.0  0.01926  0.56219  0.16222  1.0000
  C   C463      1.0  0.18635  0.49647  0.13026  1.0000
  C   C464      1.0  0.01262  0.50896  0.16247  1.0000
  C   C465      1.0  0.03684  0.51760  0.15049  1.0000
  C   C466      1.0  0.05189  0.54852  0.14426  1.0000
  C   C467      1.0  0.04305  0.57071  0.15003  1.0000
  H   H374      1.0  0.45443  0.52568  0.04683  1.0000
  C   C468      1.0  0.00399  0.53121  0.16834  1.0000
  H   H375      1.0  0.01725  0.53066  0.10048  1.0000
  H   H376      1.0  0.05500  0.59446  0.14524  1.0000
  C   C469      1.0  0.14548  0.43514  0.08816  1.0000
  C   C470      1.0  0.14505  0.40645  0.09235  1.0000
  C   C471      1.0  0.12497  0.38754  0.10523  1.0000
  C   C472      1.0  0.10494  0.39702  0.11386  1.0000
  C   C473      1.0  0.10541  0.42569  0.10958  1.0000
  C   C474      1.0  0.12570  0.44467  0.09687  1.0000
  H   H377      1.0  0.16003  0.39879  0.08565  1.0000
  H   H378      1.0  0.12482  0.36545  0.10850  1.0000
  H   H379      1.0  0.09065  0.43358  0.11626  1.0000
  H   H380      1.0  0.12623  0.46698  0.09382  1.0000
  C   C475      1.0  0.33444  0.43632  0.11045  1.0000
  C   C476      1.0  0.32933  0.40771  0.10565  1.0000
  C   C477      1.0  0.31323  0.39787  0.09271  1.0000
  C   C478      1.0  0.30164  0.41638  0.08462  1.0000
  C   C479      1.0  0.30649  0.44486  0.08956  1.0000
  C   C480      1.0  0.32326  0.45497  0.10223  1.0000
  H   H381      1.0  0.33789  0.39332  0.11195  1.0000
  H   H382      1.0  0.30966  0.37582  0.08902  1.0000
  H   H383      1.0  0.29785  0.45942  0.08346  1.0000
  H   H384      1.0  0.32770  0.47742  0.10563  1.0000
  C   C481      1.0  0.43844  0.36029  0.10315  1.0000
  H   H385      1.0  0.44538  0.38086  0.10894  1.0000
  C   C482      1.0  0.06594  0.42093  0.03667  1.0000
  C   C483      1.0  0.34464  0.61143  0.99436  1.0000
  C   C484      1.0  0.34320  0.62233  0.00866  1.0000
  C   C485      1.0  0.32998  0.60164  0.02203  1.0000
  C   C486      1.0  0.31745  0.56992  0.02116  1.0000
  C   C487      1.0  0.31821  0.55887  0.00681  1.0000
  S   S80       1.0  0.99370  0.66216  0.16828  1.0000
  P   P19       1.0  0.43381  0.50258  0.07939  1.0000
  H   H386      1.0  0.32943  0.61028  0.03310  1.0000
  H   H387      1.0  0.30868  0.53444  0.00608  1.0000
  H   H388      1.0  0.42531  0.55678  0.06783  1.0000
  H   H389      1.0  0.10239  0.34681  0.98364  1.0000
  H   H390      1.0  0.03755  0.38766  0.20328  1.0000
  H   H391      1.0  0.12133  0.41787  0.14779  1.0000
  C   C488      1.0  0.22965  0.41503  0.12731  1.0000
  C   C489      1.0  0.02295  0.37231  0.21314  1.0000
  C   C490      1.0  0.20586  0.33740  0.01612  1.0000
  H   H392      1.0  0.29333  0.51331  0.10772  1.0000
  C   C491      1.0  0.02825  0.36640  0.07709  1.0000
  P   P20       1.0  0.29322  0.37197  0.99190  1.0000
  C   C492      1.0  0.34210  0.35611  0.05302  1.0000
  H   H393      1.0  0.22608  0.36086  0.10354  1.0000
  C   C493      1.0  0.99752  0.39522  0.05633  1.0000
  C   C494      1.0  0.09300  0.41049  0.05720  1.0000
  H   H394      1.0  0.13967  0.43213  0.02305  1.0000
  H   H395      1.0  0.03196  0.38454  0.09930  1.0000
  H   H396      1.0  0.08575  0.45676  0.07243  1.0000
  C   C495      1.0  0.34960  0.42501  0.98819  1.0000
  C   C496      1.0  0.22639  0.43643  0.11669  1.0000
  C   C497      1.0  0.21990  0.41794  0.98723  1.0000
  P   P21       1.0  0.22968  0.47295  0.12231  1.0000
  C   C498      1.0  0.19208  0.47009  0.13025  1.0000
  C   C499      1.0  0.25737  0.48514  0.13640  1.0000
  C   C500      1.0  0.25306  0.50141  0.14842  1.0000
  C   C501      1.0  0.27446  0.51046  0.15934  1.0000
  C   C502      1.0  0.30030  0.50339  0.15832  1.0000
  C   C503      1.0  0.30483  0.48737  0.14636  1.0000
  C   C504      1.0  0.28354  0.47835  0.13544  1.0000
  H   H397      1.0  0.04546  0.42194  0.03248  1.0000
  H   H398      1.0  0.27760  0.42328  0.99734  1.0000
  H   H399      1.0  0.25148  0.46487  0.98856  1.0000
  C   C505      1.0  0.47104  0.52934  0.06938  1.0000
  C   C506      1.0  0.24438  0.50065  0.10535  1.0000
  C   C507      1.0  0.27666  0.51686  0.10098  1.0000
  C   C508      1.0  0.28775  0.53745  0.08755  1.0000
  C   C509      1.0  0.26676  0.54191  0.07836  1.0000
  C   C510      1.0  0.23466  0.52560  0.08252  1.0000
  C   C511      1.0  0.22350  0.50497  0.09590  1.0000
  H   H400      1.0  0.11120  0.46437  0.14716  1.0000
  C   C512      1.0  0.05768  0.61404  0.11096  1.0000
  C   C513      1.0  0.45362  0.36095  0.08858  1.0000
  C   C514      1.0  0.02821  0.55392  0.10345  1.0000
  H   H401      1.0  0.15267  0.51460  0.13604  1.0000
  C   C515      1.0  0.02976  0.36524  0.09309  1.0000
  C   C516      1.0  0.26135  0.36134  0.00707  1.0000
  H   H402      1.0  0.31673  0.51016  0.16684  1.0000
  C   C517      1.0  0.22544  0.38152  0.10733  1.0000
  H   H403      1.0  0.28740  0.46578  0.12634  1.0000
  H   H404      1.0  0.31260  0.54945  0.08402  1.0000
  C   C518      1.0  0.01234  0.45033  0.09804  1.0000
  H   H405      1.0  0.02996  0.33822  0.11367  1.0000
  C   C519      1.0  0.13961  0.43985  0.14296  1.0000
  H   H406      1.0  0.27534  0.55725  0.06774  1.0000
  H   H407      1.0  0.21833  0.52808  0.07508  1.0000
  H   H408      1.0  0.19852  0.49177  0.09859  1.0000
  C   C520      1.0  0.42953  0.46379  0.07848  1.0000
  C   C521      1.0  0.40951  0.44054  0.08983  1.0000
  C   C522      1.0  0.40401  0.41006  0.08863  1.0000
  C   C523      1.0  0.41830  0.40249  0.07607  1.0000
  C   C524      1.0  0.01008  0.56884  0.10886  1.0000
  C   C525      1.0  0.44423  0.45608  0.06599  1.0000
  C   C526      1.0  0.40301  0.50712  0.07003  1.0000
  C   C527      1.0  0.37687  0.48136  0.06683  1.0000
  C   C528      1.0  0.35408  0.48507  0.05876  1.0000
  C   C529      1.0  0.35684  0.51438  0.05409  1.0000
  C   C530      1.0  0.38242  0.54017  0.05744  1.0000
  C   C531      1.0  0.40553  0.53660  0.06536  1.0000
  C   C532      1.0  0.00961  0.42815  0.08803  1.0000
  H   H409      1.0  0.39763  0.44585  0.09950  1.0000
  H   H410      1.0  0.38859  0.39234  0.09746  1.0000
  H   H411      1.0  0.41355  0.37875  0.07505  1.0000
  H   H412      1.0  0.39265  0.46614  0.98508  1.0000
  H   H413      1.0  0.37370  0.45830  0.07057  1.0000
  H   H414      1.0  0.33393  0.46515  0.05633  1.0000
  H   H415      1.0  0.33897  0.51702  0.04795  1.0000
  H   H416      1.0  0.38415  0.56284  0.05385  1.0000
  C   C533      1.0  0.13388  0.46605  0.14264  1.0000
  C   C534      1.0  0.16846  0.44173  0.13667  1.0000
  C   C535      1.0  0.31641  0.33366  0.22182  1.0000
  H   H417      1.0  0.17200  0.42096  0.13671  1.0000
  C   C536      1.0  0.35301  0.47608  0.99071  1.0000
  H   H418      1.0  0.36682  0.50058  0.99041  1.0000
  C   C537      1.0  0.33448  0.33438  0.11159  1.0000
  H   H419      1.0  0.04374  0.49074  0.10727  1.0000
  H   H420      1.0  0.09229  0.43505  0.01413  1.0000
  C   C538      1.0  0.11928  0.41751  0.04664  1.0000
  C   C539      1.0  0.44735  0.49920  0.10966  1.0000
  H   H421      1.0  0.22181  0.34101  0.22597  1.0000
  C   C540      1.0  0.39857  0.35156  0.04630  1.0000
  C   C541      1.0  0.15726  0.49436  0.13631  1.0000
  S   S81       1.0  0.99486  0.35000  0.14975  1.0000
  S   S82       1.0  0.00807  0.58932  0.17037  1.0000
  H   H422      1.0  0.39260  0.38243  0.21172  1.0000
  H   H423      1.0  0.23296  0.41960  0.13916  1.0000
  H   H424      1.0  0.07065  0.55540  0.13500  1.0000
  C   C542      1.0  0.06609  0.41213  0.05231  1.0000
  H   H425      1.0  0.09376  0.40380  0.06921  1.0000
  C   C543      1.0  0.36659  0.37937  0.04343  1.0000
  H   H426      1.0  0.32073  0.35877  0.05567  1.0000
  C   C544      1.0  0.41277  0.52364  0.10508  1.0000
  C   C545      1.0  0.41070  0.52792  0.12074  1.0000
  C   C546      1.0  0.03590  0.43025  0.07859  1.0000
  H   H427      1.0  0.20427  0.51863  0.12547  1.0000
  H   H428      1.0  0.46328  0.50730  0.15958  1.0000
  C   C547      1.0  0.07555  0.59881  0.10596  1.0000
  S   S83       1.0  0.34056  0.36257  0.19242  1.0000
  C   C548      1.0  0.31701  0.41260  0.99170  1.0000
  C   C549      1.0  0.33462  0.34694  0.98291  1.0000
  H   H429      1.0  0.41360  0.39484  0.03243  1.0000
  C   C550      1.0  0.23021  0.34429  0.00438  1.0000
  C   C551      1.0  0.04138  0.47451  0.09889  1.0000
  C   C552      1.0  0.22059  0.40196  0.09693  1.0000
  H   H430      1.0  0.35494  0.34970  0.11640  1.0000
  C   C553      1.0  0.11908  0.42648  0.03115  1.0000
  H   H431      1.0  0.00080  0.48525  0.16734  1.0000
  C   C554      1.0  0.35376  0.33180  0.98540  1.0000
  H   H432      1.0  0.35962  0.33749  0.08965  1.0000
  H   H433      1.0  0.99224  0.44780  0.10575  1.0000
  H   H434      1.0  0.10080  0.61016  0.10523  1.0000
  H   H435      1.0  0.45712  0.49481  0.13305  1.0000
  S   S84       1.0  0.04875  0.49066  0.14266  1.0000
  H   H436      1.0  0.27090  0.52281  0.16864  1.0000
  H   H437      1.0  0.23322  0.37198  0.13068  1.0000
  C   C555      1.0  0.33208  0.57965  0.99343  1.0000
  C   C556      1.0  0.06763  0.47679  0.08951  1.0000
  C   C557      1.0  0.24314  0.36502  0.03324  1.0000
  H   H438      1.0  0.21670  0.44457  0.09341  1.0000
  C   C558      1.0  0.44519  0.50344  0.12525  1.0000
  C   C559      1.0  0.43881  0.42551  0.06489  1.0000
  P   P22       1.0  0.03172  0.40091  0.06599  1.0000
  H   H439      1.0  0.35277  0.64672  0.00948  1.0000
  H   H440      1.0  0.39924  0.53077  0.09763  1.0000
  H   H441      1.0  0.21721  0.39698  0.08514  1.0000
  H   H442      1.0  0.01146  0.44375  0.05039  1.0000
  C   C560      1.0  0.39464  0.37688  0.03989  1.0000
  C   C561      1.0  0.43128  0.50934  0.09942  1.0000
  H   H443      1.0  0.42467  0.52037  0.14301  1.0000
  H   H444      1.0  0.39571  0.53813  0.12518  1.0000
  H   H445      1.0  0.47983  0.62695  0.12666  1.0000
  H   H446      1.0  0.05872  0.38831  0.22852  1.0000
  C   C562      1.0  0.09242  0.42820  0.02616  1.0000
  H   H447      1.0  0.45961  0.47347  0.05703  1.0000
  C   C563      1.0  0.22960  0.38787  0.12258  1.0000
  H   H448      1.0  0.99972  0.57661  0.07956  1.0000
  C   C564      1.0  0.36751  0.45665  0.98774  1.0000
  C   C565      1.0  0.06082  0.56882  0.10212  1.0000
  H   H449      1.0  0.32473  0.48161  0.14558  1.0000
  H   H450      1.0  0.30559  0.34320  0.02027  1.0000
  H   H451      1.0  0.23318  0.50699  0.14949  1.0000
  C   C566      1.0  0.37156  0.36685  0.21885  1.0000
  C   C567      1.0  0.02505  0.59918  0.11233  1.0000
  H   H452      1.0  0.19335  0.34369  0.03940  1.0000
  C   C568      1.0  0.34351  0.35385  0.21227  1.0000
  S   S85       1.0  0.46410  0.33653  0.06255  1.0000
  C   C569      1.0  0.21231  0.34789  0.03052  1.0000
  H   H453      1.0  0.98717  0.40879  0.08802  1.0000
  H   H454      1.0  0.36379  0.39942  0.03883  1.0000
  C   C570      1.0  0.22074  0.42917  0.10162  1.0000
  C   C571      1.0  0.30269  0.43231  0.99463  1.0000
  C   C572      1.0  0.03489  0.37262  0.22750  1.0000
  Fe  Fe41      1.0  0.99818  0.37780  0.16996  1.0000
  H   H455      1.0  0.15905  0.33655  0.22389  1.0000
  H   H456      1.0  0.45030  0.41950  0.05533  1.0000
  H   H457      1.0  0.24811  0.37377  0.04428  1.0000
  H   H458      1.0  0.99200  0.51621  0.13132  1.0000
  H   H459      1.0  0.03423  0.64091  0.07780  1.0000
  H   H460      1.0  0.47893  0.62395  0.04021  1.0000
  H   H461      1.0  0.36128  0.41046  0.98575  1.0000
  H   H462      1.0  0.47210  0.38220  0.08315  1.0000
  C   C573      1.0  0.02672  0.34118  0.06945  1.0000
  H   H463      1.0  0.22427  0.33734  0.99315  1.0000
  H   H464      1.0  0.02635  0.34189  0.05706  1.0000
  C   C574      1.0  0.02895  0.33898  0.10131  1.0000
  C   C575      1.0  0.41493  0.33281  0.11035  1.0000
  H   H465      1.0  0.42066  0.34997  0.04392  1.0000
  C   C576      1.0  0.31876  0.34022  0.01039  1.0000
  H   H466      1.0  0.46117  0.48750  0.10566  1.0000
  H   H467      1.0  0.98554  0.52441  0.17777  1.0000
  H   H468      1.0  0.27844  0.37073  0.22609  1.0000
  H   H469      1.0  0.30929  0.47890  0.99641  1.0000
  C   C577      1.0  0.44496  0.33434  0.08100  1.0000
  H   H470      1.0  0.27325  0.33174  0.07408  1.0000
  H   H471      1.0  0.08911  0.65915  0.08383  1.0000
  C   C578      1.0  0.47425  0.53602  0.05328  1.0000
  H   H472      1.0  0.47831  0.43975  0.09321  1.0000
  H   H473      1.0  0.98958  0.65776  0.10920  1.0000
  S   S86       1.0  0.03406  0.65932  0.13637  1.0000
  C   C579      1.0  0.20513  0.40882  0.44102  1.0000
  C   C580      1.0  0.26358  0.36094  0.23691  1.0000
  H   H474      1.0  0.46615  0.39407  0.47428  1.0000
  H   H475      1.0  0.07401  0.47443  0.25374  1.0000
  H   H476      1.0  0.18317  0.35955  0.26890  1.0000
  H   H477      1.0  0.35521  0.53686  0.31031  1.0000
  H   H478      1.0  0.40030  0.35832  0.31578  1.0000
  S   S87       1.0  0.42076  0.41202  0.46338  1.0000
  C   C581      1.0  0.06864  0.64729  0.47164  1.0000
  S   S88       1.0  0.08499  0.44054  0.45180  1.0000
  H   H479      1.0  0.02550  0.45665  0.31423  1.0000
  Fe  Fe42      1.0  0.39831  0.43625  0.45045  1.0000
  S   S89       1.0  0.38753  0.43452  0.42218  1.0000
  S   S90       1.0  0.36708  0.46016  0.46101  1.0000
  Fe  Fe43      1.0  0.38050  0.38650  0.41990  1.0000
  S   S91       1.0  0.33998  0.35552  0.40713  1.0000
  S   S92       1.0  0.38076  0.37962  0.44485  1.0000
  Fe  Fe44      1.0  0.32812  0.62305  0.44985  1.0000
  S   S93       1.0  0.29363  0.61452  0.43217  1.0000
  S   S94       1.0  0.35549  0.59138  0.45153  1.0000
  Fe  Fe45      1.0  0.26617  0.63248  0.44779  1.0000
  S   S95       1.0  0.21130  0.60337  0.45377  1.0000
  Fe  Fe46      1.0  0.01856  0.51655  0.42976  1.0000
  S   S96       1.0  0.02596  0.52736  0.40393  1.0000
  S   S97       1.0  0.06178  0.53691  0.44438  1.0000
  C   C582      1.0  0.14235  0.46999  0.32844  1.0000
  H   H480      1.0  0.12505  0.40082  0.42892  1.0000
  H   H481      1.0  0.38953  0.33417  0.46475  1.0000
  C   C583      1.0  0.03184  0.61572  0.29884  1.0000
  C   C584      1.0  0.35364  0.51487  0.31509  1.0000
  Fe  Fe47      1.0  0.14700  0.60062  0.39265  1.0000
  S   S98       1.0  0.15651  0.61541  0.36685  1.0000
  S   S99       1.0  0.15640  0.55905  0.40169  1.0000
  Fe  Fe48      1.0  0.11169  0.62300  0.36971  1.0000
  S   S100      1.0  0.06971  0.60754  0.35399  1.0000
  S   S101      1.0  0.10260  0.60763  0.39519  1.0000
  C   C585      1.0  0.17007  0.58703  0.45006  1.0000
  C   C586      1.0  0.14740  0.56666  0.46168  1.0000
  C   C587      1.0  0.11525  0.55219  0.45958  1.0000
  C   C588      1.0  0.10392  0.55720  0.44574  1.0000
  C   C589      1.0  0.12629  0.57849  0.43414  1.0000
  C   C590      1.0  0.15891  0.59313  0.43625  1.0000
  H   H482      1.0  0.09881  0.53636  0.46876  1.0000
  H   H483      1.0  0.11861  0.58321  0.42336  1.0000
  H   H484      1.0  0.17546  0.60856  0.42697  1.0000
  C   C591      1.0  0.36487  0.49721  0.45835  1.0000
  C   C592      1.0  0.38702  0.52278  0.44876  1.0000
  C   C593      1.0  0.38396  0.55104  0.44706  1.0000
  C   C594      1.0  0.35832  0.55462  0.45452  1.0000
  C   C595      1.0  0.33630  0.52912  0.46422  1.0000
  C   C596      1.0  0.33981  0.50116  0.46625  1.0000
  H   H485      1.0  0.40678  0.52089  0.44270  1.0000
  H   H486      1.0  0.40160  0.57033  0.43975  1.0000
  H   H487      1.0  0.06418  0.46515  0.37423  1.0000
  C   C597      1.0  0.01208  0.59587  0.34286  1.0000
  C   C598      1.0  0.02698  0.58634  0.35410  1.0000
  C   C599      1.0  0.00732  0.56071  0.36465  1.0000
  H   H488      1.0  0.02595  0.61586  0.33483  1.0000
  H   H489      1.0  0.01737  0.55297  0.37376  1.0000
  C   C600      1.0  0.10473  0.47531  0.43889  1.0000
  C   C601      1.0  0.08836  0.48310  0.42778  1.0000
  C   C602      1.0  0.10339  0.50929  0.41683  1.0000
  C   C603      1.0  0.13520  0.52837  0.41677  1.0000
  C   C604      1.0  0.15143  0.52087  0.42805  1.0000
  C   C605      1.0  0.13634  0.49470  0.43903  1.0000
  H   H490      1.0  0.06376  0.46877  0.42760  1.0000
  H   H491      1.0  0.09030  0.51452  0.40834  1.0000
  H   H492      1.0  0.17571  0.53588  0.42847  1.0000
  H   H493      1.0  0.14900  0.48946  0.44765  1.0000
  C   C606      1.0  0.43816  0.60030  0.40594  1.0000
  S   S102      1.0  0.47361  0.48307  0.39857  1.0000
  H   H494      1.0  0.23707  0.39509  0.35278  1.0000
  C   C607      1.0  0.02181  0.63889  0.29560  1.0000
  S   S103      1.0  0.46678  0.36298  0.44722  1.0000
  H   H495      1.0  0.42084  0.47704  0.44177  1.0000
  P   P23       1.0  0.12838  0.65185  0.47579  1.0000
  H   H496      1.0  0.01483  0.66000  0.24238  1.0000
  S   S104      1.0  0.99272  0.37511  0.32833  1.0000
  C   C608      1.0  0.02290  0.62594  0.38011  1.0000
  C   C609      1.0  0.26400  0.34507  0.33930  1.0000
  H   H497      1.0  0.03816  0.61903  0.38640  1.0000
  H   H498      1.0  0.15470  0.46749  0.30449  1.0000
  H   H499      1.0  0.15961  0.44793  0.43920  1.0000
  H   H500      1.0  0.09597  0.36731  0.27032  1.0000
  C   C610      1.0  0.99050  0.60918  0.38318  1.0000
  S   S105      1.0  0.04463  0.34383  0.30087  1.0000
  C   C611      1.0  0.01516  0.45353  0.28315  1.0000
  H   H501      1.0  0.02002  0.53160  0.28800  1.0000
  C   C612      1.0  0.18999  0.66262  0.46596  1.0000
  P   P24       1.0  0.46092  0.66129  0.39367  1.0000
  H   H502      1.0  0.15030  0.38535  0.27723  1.0000
  C   C613      1.0  0.24276  0.35626  0.34481  1.0000
  H   H503      1.0  0.09158  0.54043  0.27333  1.0000
  C   C614      1.0  0.08545  0.53403  0.29817  1.0000
  H   H504      1.0  0.03385  0.39249  0.28536  1.0000
  H   H505      1.0  0.02450  0.39504  0.38097  1.0000
  H   H506      1.0  0.15475  0.56155  0.47244  1.0000
  H   H507      1.0  0.99777  0.41084  0.29813  1.0000
  C   C615      1.0  0.25796  0.35141  0.26473  1.0000
  C   C616      1.0  0.08906  0.64570  0.27679  1.0000
  H   H508      1.0  0.26084  0.38419  0.42558  1.0000
  S   S106      1.0  0.43017  0.39399  0.41645  1.0000
  H   H509      1.0  0.39085  0.36156  0.38380  1.0000
  H   H510      1.0  0.08835  0.51284  0.29890  1.0000
  H   H511      1.0  0.41462  0.62432  0.37369  1.0000
  C   C617      1.0  0.03831  0.62045  0.45176  1.0000
  H   H512      1.0  0.22959  0.55687  0.47561  1.0000
  H   H513      1.0  0.47981  0.42095  0.43392  1.0000
  C   C618      1.0  0.06069  0.50737  0.36909  1.0000
  H   H514      1.0  0.18881  0.52546  0.46003  1.0000
  H   H515      1.0  0.01627  0.56759  0.30685  1.0000
  C   C619      1.0  0.06973  0.64425  0.26512  1.0000
  H   H516      1.0  0.42529  0.47301  0.47301  1.0000
  C   C620      1.0  0.00290  0.54911  0.26938  1.0000
  C   C621      1.0  0.01289  0.40034  0.37176  1.0000
  P   P25       1.0  0.07291  0.62405  0.29553  1.0000
  C   C622      1.0  0.07767  0.58874  0.29641  1.0000
  H   H517      1.0  0.17595  0.34388  0.29881  1.0000
  C   C623      1.0  0.11056  0.35612  0.26657  1.0000
  H   H518      1.0  0.39468  0.53459  0.32689  1.0000
  H   H519      1.0  0.19056  0.35207  0.37912  1.0000
  H   H520      1.0  0.40539  0.61317  0.47328  1.0000
  Fe  Fe49      1.0  0.00126  0.33752  0.31617  1.0000
  C   C624      1.0  0.07576  0.57292  0.31082  1.0000
  C   C625      1.0  0.03711  0.47153  0.27070  1.0000
  S   S107      1.0  0.98741  0.46580  0.42861  1.0000
  C   C626      1.0  0.02280  0.48360  0.33227  1.0000
  C   C627      1.0  0.08343  0.57690  0.28288  1.0000
  C   C628      1.0  0.21278  0.52898  0.45720  1.0000
  H   H521      1.0  0.35575  0.41662  0.39105  1.0000
  C   C629      1.0  0.34110  0.34635  0.38769  1.0000
  H   H522      1.0  0.01525  0.51175  0.34884  1.0000
  H   H523      1.0  0.10811  0.61624  0.44969  1.0000
  C   C630      1.0  0.99484  0.47878  0.30965  1.0000
  H   H524      1.0  0.36542  0.39913  0.28118  1.0000
  C   C631      1.0  0.10629  0.43813  0.31179  1.0000
  C   C632      1.0  0.16720  0.42986  0.43780  1.0000
  H   H525      1.0  0.32255  0.48212  0.47389  1.0000
  H   H526      1.0  0.12200  0.49657  0.47232  1.0000
  C   C633      1.0  0.99575  0.39222  0.34609  1.0000
  H   H527      1.0  0.31666  0.53096  0.47040  1.0000
  C   C634      1.0  0.22913  0.35493  0.44511  1.0000
  C   C635      1.0  0.05664  0.43255  0.26898  1.0000
  H   H528      1.0  0.02027  0.36891  0.35706  1.0000
  H   H529      1.0  0.07110  0.58158  0.32144  1.0000
  C   C636      1.0  0.22717  0.33987  0.45974  1.0000
  H   H530      1.0  0.03825  0.49979  0.37588  1.0000
  H   H531      1.0  0.39192  0.36644  0.28843  1.0000
  C   C637      1.0  0.15656  0.37905  0.43088  1.0000
  C   C638      1.0  0.31287  0.33246  0.38113  1.0000
  C   C639      1.0  0.38481  0.37796  0.29715  1.0000
  C   C640      1.0  0.28578  0.37465  0.44319  1.0000
  Fe  Fe50      1.0  0.44060  0.39580  0.44474  1.0000
  C   C641      1.0  0.23138  0.34393  0.23690  1.0000
  C   C642      1.0  0.41584  0.60923  0.38308  1.0000
  C   C643      1.0  0.12286  0.64538  0.31323  1.0000
  H   H532      1.0  0.42146  0.55305  0.41540  1.0000
  C   C644      1.0  0.43385  0.43277  0.43880  1.0000
  P   P26       1.0  0.19433  0.34865  0.43586  1.0000
  H   H533      1.0  0.10149  0.42973  0.30063  1.0000
  C   C645      1.0  0.00595  0.65225  0.41257  1.0000
  C   C646      1.0  0.14768  0.40318  0.43194  1.0000
  H   H534      1.0  0.21005  0.45266  0.44767  1.0000
  H   H535      1.0  0.38459  0.53313  0.39599  1.0000
  H   H536      1.0  0.45831  0.51414  0.42347  1.0000
  C   C647      1.0  0.37587  0.51358  0.32442  1.0000
  C   C648      1.0  0.08722  0.54956  0.28379  1.0000
  S   S108      1.0  0.00479  0.44053  0.39089  1.0000
  C   C649      1.0  0.01038  0.38534  0.35820  1.0000
  C   C650      1.0  0.34511  0.34019  0.24435  1.0000
  H   H537      1.0  0.01729  0.61284  0.44605  1.0000
  C   C651      1.0  0.46029  0.49276  0.42595  1.0000
  H   H538      1.0  0.16172  0.66175  0.32678  1.0000
  H   H539      1.0  0.17988  0.36530  0.40496  1.0000
  C   C652      1.0  0.05778  0.46102  0.26366  1.0000
  C   C653      1.0  0.03527  0.41487  0.28153  1.0000
  C   C654      1.0  0.27688  0.36454  0.25081  1.0000
  C   C655      1.0  0.09475  0.64663  0.30990  1.0000
  H   H540      1.0  0.23543  0.48952  0.35753  1.0000
  S   S109      1.0  0.17722  0.64860  0.39831  1.0000
  C   C656      1.0  0.23580  0.54679  0.46597  1.0000
  S   S110      1.0  0.03289  0.35455  0.25835  1.0000
  H   H541      1.0  0.45273  0.60517  0.47776  1.0000
  S   S111      1.0  0.30101  0.64170  0.46589  1.0000
  C   C657      1.0  0.46880  0.43601  0.43089  1.0000
  Fe  Fe51      1.0  0.44317  0.44821  0.41750  1.0000
  S   S112      1.0  0.46990  0.46290  0.45390  1.0000
  C   C658      1.0  0.36895  0.35084  0.37899  1.0000
  C   C659      1.0  0.01542  0.47168  0.31819  1.0000
  H   H542      1.0  0.08949  0.58518  0.47890  1.0000
  C   C660      1.0  0.36980  0.39645  0.29307  1.0000
  C   C661      1.0  0.22081  0.51709  0.44428  1.0000
  C   C662      1.0  0.25223  0.52420  0.43955  1.0000
  C   C663      1.0  0.27498  0.54129  0.44870  1.0000
  P   P27       1.0  0.26461  0.51397  0.42151  1.0000
  C   C664      1.0  0.28667  0.49192  0.42541  1.0000
  C   C665      1.0  0.23201  0.49166  0.41128  1.0000
  C   C666      1.0  0.22910  0.46343  0.40643  1.0000
  C   C667      1.0  0.20297  0.44526  0.39945  1.0000
  C   C668      1.0  0.17934  0.45486  0.39740  1.0000
  C   C669      1.0  0.18210  0.48292  0.40204  1.0000
  C   C670      1.0  0.20853  0.50149  0.40865  1.0000
  C   C671      1.0  0.30846  0.49111  0.41382  1.0000
  C   C672      1.0  0.32518  0.47360  0.41664  1.0000
  C   C673      1.0  0.31990  0.45652  0.43094  1.0000
  C   C674      1.0  0.29791  0.45675  0.44239  1.0000
  C   C675      1.0  0.28150  0.47458  0.43973  1.0000
  C   C676      1.0  0.29042  0.54998  0.41040  1.0000
  C   C677      1.0  0.32190  0.56441  0.41319  1.0000
  C   C678      1.0  0.34149  0.59338  0.40567  1.0000
  C   C679      1.0  0.32993  0.60823  0.39527  1.0000
  C   C680      1.0  0.29879  0.59413  0.39238  1.0000
  C   C681      1.0  0.27908  0.56517  0.39990  1.0000
  C   C682      1.0  0.43370  0.65803  0.42370  1.0000
  H   H543      1.0  0.08485  0.58860  0.27164  1.0000
  H   H544      1.0  0.20239  0.50298  0.43800  1.0000
  H   H545      1.0  0.29916  0.54676  0.44532  1.0000
  H   H546      1.0  0.24642  0.45482  0.40837  1.0000
  H   H547      1.0  0.20064  0.42333  0.39604  1.0000
  H   H548      1.0  0.15876  0.44042  0.39237  1.0000
  H   H549      1.0  0.16369  0.49042  0.40065  1.0000
  H   H550      1.0  0.20998  0.52311  0.41216  1.0000
  H   H551      1.0  0.31261  0.50412  0.40266  1.0000
  H   H552      1.0  0.34247  0.47340  0.40787  1.0000
  H   H553      1.0  0.33334  0.44358  0.43336  1.0000
  H   H554      1.0  0.29453  0.44384  0.45353  1.0000
  H   H555      1.0  0.26512  0.47495  0.44894  1.0000
  H   H556      1.0  0.33123  0.55389  0.42158  1.0000
  H   H557      1.0  0.36531  0.60474  0.40837  1.0000
  H   H558      1.0  0.34468  0.63115  0.38985  1.0000
  H   H559      1.0  0.28962  0.60630  0.38478  1.0000
  H   H560      1.0  0.25493  0.55552  0.39781  1.0000
  Fe  Fe52      1.0  0.09382  0.41332  0.47234  1.0000
  C   C683      1.0  0.25433  0.34199  0.46592  1.0000
  P   P28       1.0  0.98576  0.46483  0.29113  1.0000
  C   C684      1.0  0.32764  0.45939  0.31790  1.0000
  C   C685      1.0  0.34978  0.45785  0.32737  1.0000
  C   C686      1.0  0.37405  0.48523  0.33051  1.0000
  P   P29       1.0  0.34755  0.42095  0.33480  1.0000
  C   C687      1.0  0.36401  0.40588  0.31989  1.0000
  C   C688      1.0  0.36824  0.42515  0.35172  1.0000
  C   C689      1.0  0.35201  0.41777  0.36660  1.0000
  C   C690      1.0  0.36836  0.42268  0.37958  1.0000
  C   C691      1.0  0.40093  0.43461  0.37784  1.0000
  C   C692      1.0  0.41725  0.44177  0.36310  1.0000
  C   C693      1.0  0.40103  0.43708  0.35008  1.0000
  C   C694      1.0  0.37922  0.38732  0.32384  1.0000
  C   C695      1.0  0.43512  0.46807  0.43540  1.0000
  C   C696      1.0  0.41963  0.56880  0.40648  1.0000
  H   H561      1.0  0.07167  0.42369  0.26314  1.0000
  C   C697      1.0  0.35938  0.41033  0.30438  1.0000
  C   C698      1.0  0.30685  0.39508  0.33983  1.0000
  C   C699      1.0  0.29594  0.36431  0.33696  1.0000
  C   C700      1.0  0.25870  0.37260  0.43694  1.0000
  C   C701      1.0  0.07999  0.54588  0.31166  1.0000
  C   C702      1.0  0.25354  0.38651  0.34841  1.0000
  C   C703      1.0  0.28550  0.40588  0.34596  1.0000
  H   H562      1.0  0.22668  0.41093  0.44534  1.0000
  C   C704      1.0  0.26689  0.55243  0.46189  1.0000
  H   H563      1.0  0.39006  0.34393  0.35768  1.0000
  H   H564      1.0  0.30895  0.43860  0.31511  1.0000
  H   H565      1.0  0.39166  0.48494  0.33762  1.0000
  H   H566      1.0  0.32679  0.40798  0.36832  1.0000
  C   C705      1.0  0.37228  0.36010  0.23477  1.0000
  H   H567      1.0  0.41355  0.43815  0.38793  1.0000
  H   H568      1.0  0.44254  0.45108  0.36186  1.0000
  H   H569      1.0  0.41408  0.44302  0.33873  1.0000
  H   H570      1.0  0.38192  0.38234  0.33576  1.0000
  H   H571      1.0  0.38131  0.56895  0.37512  1.0000
  C   C706      1.0  0.43593  0.62083  0.39443  1.0000
  H   H572      1.0  0.31246  0.48873  0.30446  1.0000
  H   H573      1.0  0.34701  0.42373  0.30096  1.0000
  H   H574      1.0  0.31200  0.35521  0.33266  1.0000
  C   C707      1.0  0.38963  0.37351  0.31251  1.0000
  C   C708      1.0  0.08233  0.42794  0.32396  1.0000
  C   C709      1.0  0.32955  0.48777  0.31182  1.0000
  H   H575      1.0  0.29350  0.42939  0.34857  1.0000
  C   C710      1.0  0.21869  0.49869  0.36061  1.0000
  C   C711      1.0  0.22824  0.52605  0.36748  1.0000
  C   C712      1.0  0.20648  0.53745  0.37189  1.0000
  C   C713      1.0  0.17529  0.52172  0.36929  1.0000
  C   C714      1.0  0.16570  0.49481  0.36190  1.0000
  C   C715      1.0  0.18745  0.48294  0.35796  1.0000
  P   P30       1.0  0.12507  0.47353  0.35939  1.0000
  C   C716      1.0  0.10886  0.44318  0.37513  1.0000
  C   C717      1.0  0.10520  0.49819  0.35992  1.0000
  C   C718      1.0  0.11876  0.52749  0.35164  1.0000
  C   C719      1.0  0.10361  0.54689  0.35253  1.0000
  C   C720      1.0  0.07489  0.53687  0.36150  1.0000
  C   C721      1.0  0.07563  0.48794  0.36821  1.0000
  C   C722      1.0  0.10363  0.45013  0.39013  1.0000
  C   C723      1.0  0.09098  0.42682  0.40239  1.0000
  C   C724      1.0  0.08376  0.39648  0.39981  1.0000
  C   C725      1.0  0.08945  0.38942  0.38497  1.0000
  C   C726      1.0  0.10210  0.41269  0.37266  1.0000
  C   C727      1.0  0.11856  0.45913  0.34084  1.0000
  C   C728      1.0  0.08837  0.43857  0.33839  1.0000
  C   C729      1.0  0.01469  0.42529  0.28864  1.0000
  H   H576      1.0  0.25234  0.53816  0.36965  1.0000
  H   H577      1.0  0.21340  0.55812  0.37769  1.0000
  H   H578      1.0  0.15869  0.53039  0.37343  1.0000
  H   H579      1.0  0.18018  0.46142  0.35297  1.0000
  H   H580      1.0  0.14130  0.53563  0.34488  1.0000
  H   H581      1.0  0.11424  0.56992  0.34661  1.0000
  H   H582      1.0  0.06350  0.55185  0.36277  1.0000
  H   H583      1.0  0.10882  0.47353  0.39236  1.0000
  H   H584      1.0  0.08630  0.43223  0.41389  1.0000
  H   H585      1.0  0.07347  0.37850  0.40934  1.0000
  H   H586      1.0  0.08367  0.36584  0.38298  1.0000
  H   H587      1.0  0.10635  0.40675  0.36127  1.0000
  H   H588      1.0  0.06941  0.43095  0.34764  1.0000
  C   C730      1.0  0.06254  0.61299  0.44651  1.0000
  C   C731      1.0  0.00940  0.58577  0.30379  1.0000
  H   H589      1.0  0.25426  0.41238  0.47352  1.0000
  C   C732      1.0  0.39711  0.57773  0.38375  1.0000
  C   C733      1.0  0.09329  0.64024  0.46625  1.0000
  C   C734      1.0  0.08973  0.62253  0.45382  1.0000
  H   H590      1.0  0.16542  0.48701  0.32980  1.0000
  C   C735      1.0  0.98998  0.63218  0.29714  1.0000
  S   S113      1.0  0.10545  0.37325  0.46849  1.0000
  H   H591      1.0  0.01795  0.57283  0.27044  1.0000
  C   C736      1.0  0.39891  0.55754  0.39549  1.0000
  C   C737      1.0  0.40413  0.59577  0.48217  1.0000
  C   C738      1.0  0.36839  0.34079  0.36415  1.0000
  H   H592      1.0  0.06035  0.59954  0.43681  1.0000
  C   C739      1.0  0.01635  0.35285  0.24052  1.0000
  H   H593      1.0  0.21796  0.34145  0.34613  1.0000
  S   S114      1.0  0.34744  0.33334  0.26445  1.0000
  H   H594      1.0  0.45428  0.60863  0.41450  1.0000
  H   H595      1.0  0.39407  0.37060  0.23972  1.0000
  C   C740      1.0  0.19581  0.43264  0.44237  1.0000
  C   C741      1.0  0.13625  0.45928  0.31400  1.0000
  H   H596      1.0  0.30854  0.38759  0.43672  1.0000
  C   C742      1.0  0.00984  0.50271  0.33787  1.0000
  C   C743      1.0  0.22580  0.33461  0.26475  1.0000
  H   H597      1.0  0.99553  0.62797  0.41643  1.0000
  H   H598      1.0  0.03777  0.49320  0.26609  1.0000
  C   C744      1.0  0.00070  0.42228  0.37350  1.0000
  H   H599      1.0  0.05901  0.41181  0.32223  1.0000
  H   H600      1.0  0.03822  0.47765  0.33900  1.0000
  H   H601      1.0  0.30196  0.37693  0.25074  1.0000
  H   H602      1.0  0.41500  0.63663  0.42165  1.0000
  H   H603      1.0  0.05253  0.65675  0.41420  1.0000
  H   H604      1.0  0.07896  0.53414  0.32284  1.0000
  C   C745      1.0  0.18547  0.38173  0.43532  1.0000
  C   C746      1.0  0.03582  0.65124  0.36855  1.0000
  H   H605      1.0  0.41287  0.65601  0.44671  1.0000
  C   C747      1.0  0.98601  0.42902  0.36144  1.0000
  C   C748      1.0  0.04125  0.63735  0.46442  1.0000
  H   H606      1.0  0.40038  0.66207  0.39019  1.0000
  C   C749      1.0  0.14051  0.66334  0.32397  1.0000
  H   H607      1.0  0.28497  0.56649  0.46851  1.0000
  C   C750      1.0  0.14115  0.36631  0.27038  1.0000
  H   H608      1.0  0.19182  0.65535  0.47762  1.0000
  H   H609      1.0  0.07050  0.66038  0.48139  1.0000
  C   C751      1.0  0.00389  0.52570  0.27936  1.0000
  H   H610      1.0  0.30466  0.36134  0.46259  1.0000
  H   H611      1.0  0.26822  0.35372  0.27553  1.0000
  Fe  Fe53      1.0  0.99371  0.47712  0.40275  1.0000
  H   H612      1.0  0.15594  0.34601  0.46403  1.0000
  H   H613      1.0  0.02233  0.64262  0.46868  1.0000
  C   C752      1.0  0.28361  0.35946  0.45769  1.0000
  C   C753      1.0  0.15975  0.35158  0.26562  1.0000
  H   H614      1.0  0.13114  0.63041  0.30762  1.0000
  C   C754      1.0  0.12146  0.66306  0.27347  1.0000
  H   H615      1.0  0.04473  0.63082  0.26716  1.0000
  H   H616      1.0  0.14034  0.35784  0.42715  1.0000
  Fe  Fe54      1.0  0.13373  0.65698  0.39850  1.0000
  C   C755      1.0  0.19189  0.35069  0.40377  1.0000
  C   C756      1.0  0.98556  0.33271  0.23896  1.0000
  C   C757      1.0  0.19801  0.34331  0.38903  1.0000
  S   S115      1.0  0.18994  0.39981  0.47967  1.0000
  H   H617      1.0  0.98652  0.66271  0.46288  1.0000
  H   H618      1.0  0.03857  0.66215  0.29172  1.0000
  C   C758      1.0  0.20148  0.33936  0.41666  1.0000
  C   C759      1.0  0.01679  0.66032  0.35973  1.0000
  H   H619      1.0  0.42475  0.33346  0.39470  1.0000
  C   C760      1.0  0.16208  0.66278  0.46174  1.0000
  H   H620      1.0  0.06092  0.66293  0.36602  1.0000
  C   C761      1.0  0.08252  0.66070  0.25061  1.0000
  Fe  Fe55      1.0  0.32200  0.66389  0.42301  1.0000
  H   H621      1.0  0.06746  0.65994  0.24175  1.0000
  C   C762      1.0  0.98948  0.50988  0.32942  1.0000
  C   C763      1.0  0.48354  0.48774  0.41708  1.0000
  H   H622      1.0  0.48099  0.34499  0.39008  1.0000
  C   C764      1.0  0.09851  0.33115  0.25802  1.0000
  Fe  Fe56      1.0  0.39073  0.39490  0.52260  1.0000
  S   S116      1.0  0.34997  0.34927  0.52809  1.0000
  S   S117      1.0  0.41774  0.42586  0.54042  1.0000
  Fe  Fe57      1.0  0.32913  0.36451  0.50861  1.0000
  H   H623      1.0  0.45719  0.57099  0.65306  1.0000
  C   C765      1.0  0.18274  0.38695  0.66246  1.0000
  H   H624      1.0  0.16913  0.51568  0.48607  1.0000
  S   S118      1.0  0.36888  0.41161  0.50403  1.0000
  S   S119      1.0  0.41518  0.37720  0.50538  1.0000
  H   H625      1.0  0.29531  0.47401  0.54984  1.0000
  H   H626      1.0  0.26036  0.64482  0.50007  1.0000
  H   H627      1.0  0.35095  0.53927  0.50806  1.0000
  Fe  Fe58      1.0  0.06937  0.34661  0.48864  1.0000
  S   S120      1.0  0.05510  0.38523  0.49146  1.0000
  H   H628      1.0  0.45205  0.46573  0.56191  1.0000
  Fe  Fe59      1.0  0.09202  0.40136  0.50792  1.0000
  S   S121      1.0  0.07815  0.41651  0.53058  1.0000
  S   S122      1.0  0.10447  0.36143  0.50607  1.0000
  C   C766      1.0  0.12493  0.40289  0.71711  1.0000
  C   C767      1.0  0.13953  0.40949  0.70196  1.0000
  H   H629      1.0  0.98460  0.39019  0.64376  1.0000
  S   S123      1.0  0.40662  0.42378  0.65693  1.0000
  C   C768      1.0  0.43077  0.35430  0.65326  1.0000
  H   H630      1.0  0.26869  0.50490  0.49398  1.0000
  C   C769      1.0  0.43940  0.34522  0.54085  1.0000
  Fe  Fe60      1.0  0.40855  0.46949  0.66223  1.0000
  S   S124      1.0  0.36641  0.47718  0.67155  1.0000
  C   C770      1.0  0.31220  0.39798  0.54996  1.0000
  H   H631      1.0  0.14484  0.63014  0.66606  1.0000
  C   C771      1.0  0.43980  0.34895  0.71920  1.0000
  H   H632      1.0  0.22146  0.45465  0.66368  1.0000
  Fe  Fe61      1.0  0.06378  0.41627  0.65163  1.0000
  S   S125      1.0  0.11100  0.42057  0.64215  1.0000
  S   S126      1.0  0.03018  0.37055  0.66475  1.0000
  Fe  Fe62      1.0  0.07791  0.48082  0.63813  1.0000
  S   S127      1.0  0.12634  0.49027  0.62761  1.0000
  S   S128      1.0  0.05299  0.51209  0.63671  1.0000
  Fe  Fe63      1.0  0.10433  0.44278  0.62003  1.0000
  S   S129      1.0  0.12325  0.42917  0.59813  1.0000
  Fe  Fe64      1.0  0.12967  0.46730  0.65030  1.0000
  S   S130      1.0  0.17536  0.48321  0.66105  1.0000
  S   S131      1.0  0.05536  0.43475  0.62892  1.0000
  S   S132      1.0  0.08295  0.46150  0.66142  1.0000
  C   C772      1.0  0.10245  0.61603  0.63928  1.0000
  C   C773      1.0  0.11957  0.59817  0.63932  1.0000
  C   C774      1.0  0.10469  0.56630  0.63866  1.0000
  C   C775      1.0  0.07255  0.55204  0.63777  1.0000
  C   C776      1.0  0.05538  0.56985  0.63777  1.0000
  C   C777      1.0  0.07021  0.60172  0.63862  1.0000
  H   H633      1.0  0.14454  0.60905  0.63978  1.0000
  H   H634      1.0  0.11812  0.55283  0.63868  1.0000
  H   H635      1.0  0.03049  0.55894  0.63709  1.0000
  H   H636      1.0  0.05683  0.61523  0.63855  1.0000
  C   C778      1.0  0.17476  0.48499  0.71348  1.0000
  C   C779      1.0  0.20228  0.49041  0.70424  1.0000
  C   C780      1.0  0.20255  0.49093  0.68812  1.0000
  C   C781      1.0  0.17529  0.48590  0.68112  1.0000
  C   C782      1.0  0.14826  0.48208  0.69031  1.0000
  C   C783      1.0  0.14804  0.48167  0.70640  1.0000
  H   H637      1.0  0.22323  0.49377  0.70952  1.0000
  H   H638      1.0  0.22384  0.49477  0.68112  1.0000
  H   H639      1.0  0.12725  0.47853  0.68507  1.0000
  H   H640      1.0  0.12681  0.47805  0.71334  1.0000
  S   S133      1.0  0.34900  0.34374  0.49064  1.0000
  H   H641      1.0  0.21448  0.61875  0.48597  1.0000
  C   C784      1.0  0.13179  0.33756  0.54803  1.0000
  H   H642      1.0  0.46773  0.35048  0.48987  1.0000
  C   C785      1.0  0.35231  0.47445  0.69118  1.0000
  C   C786      1.0  0.36293  0.46167  0.70302  1.0000
  C   C787      1.0  0.34972  0.45833  0.71839  1.0000
  C   C788      1.0  0.32604  0.46798  0.72209  1.0000
  C   C789      1.0  0.31587  0.48132  0.71026  1.0000
  C   C790      1.0  0.32885  0.48438  0.69488  1.0000
  H   H643      1.0  0.38096  0.45392  0.70031  1.0000
  C   C791      1.0  0.05052  0.35886  0.61094  1.0000
  H   H644      1.0  0.29779  0.48898  0.71295  1.0000
  H   H645      1.0  0.32050  0.49431  0.68578  1.0000
  C   C792      1.0  0.40012  0.54905  0.50437  1.0000
  H   H646      1.0  0.33461  0.49925  0.64528  1.0000
  C   C793      1.0  0.00772  0.36859  0.68227  1.0000
  H   H647      1.0  0.30413  0.53012  0.64167  1.0000
  H   H648      1.0  0.21338  0.34176  0.52168  1.0000
  S   S134      1.0  0.40132  0.41634  0.61429  1.0000
  C   C794      1.0  0.33977  0.49286  0.53580  1.0000
  C   C795      1.0  0.29372  0.45005  0.52980  1.0000
  C   C796      1.0  0.14629  0.66246  0.70556  1.0000
  H   H649      1.0  0.06213  0.38314  0.61211  1.0000
  H   H650      1.0  0.13378  0.53914  0.56724  1.0000
  C   C797      1.0  0.09117  0.41958  0.54926  1.0000
  C   C798      1.0  0.07630  0.42985  0.56064  1.0000
  C   C799      1.0  0.08556  0.43269  0.57566  1.0000
  C   C800      1.0  0.10993  0.42530  0.57950  1.0000
  C   C801      1.0  0.12467  0.41480  0.56815  1.0000
  C   C802      1.0  0.11538  0.41192  0.55313  1.0000
  H   H651      1.0  0.05749  0.43577  0.55780  1.0000
  H   H652      1.0  0.07401  0.44086  0.58420  1.0000
  H   H653      1.0  0.14360  0.40909  0.57097  1.0000
  H   H654      1.0  0.12694  0.40383  0.54455  1.0000
  H   H655      1.0  0.41413  0.33573  0.54135  1.0000
  C   C803      1.0  0.25389  0.36734  0.50529  1.0000
  C   C804      1.0  0.22238  0.35734  0.51120  1.0000
  C   C805      1.0  0.20236  0.36701  0.50353  1.0000
  C   C806      1.0  0.28219  0.34565  0.67069  1.0000
  H   H656      1.0  0.17812  0.35898  0.50809  1.0000
  C   C807      1.0  0.41257  0.42261  0.56096  1.0000
  C   C808      1.0  0.38853  0.39754  0.56980  1.0000
  C   C809      1.0  0.38546  0.39617  0.58606  1.0000
  C   C810      1.0  0.40639  0.41968  0.59373  1.0000
  C   C811      1.0  0.43026  0.44489  0.58488  1.0000
  C   C812      1.0  0.43331  0.44627  0.56862  1.0000
  H   H657      1.0  0.44656  0.46314  0.59057  1.0000
  C   C813      1.0  0.37348  0.55390  0.50185  1.0000
  H   H658      1.0  0.30883  0.44640  0.65754  1.0000
  C   C814      1.0  0.21377  0.38680  0.48987  1.0000
  H   H659      1.0  0.13914  0.40493  0.72646  1.0000
  H   H660      1.0  0.19601  0.35887  0.69236  1.0000
  H   H661      1.0  0.05182  0.39224  0.70931  1.0000
  C   C815      1.0  0.42177  0.54353  0.68962  1.0000
  H   H662      1.0  0.42198  0.39750  0.69546  1.0000
  C   C816      1.0  0.32204  0.42397  0.62594  1.0000
  C   C817      1.0  0.41609  0.34220  0.66817  1.0000
  H   H663      1.0  0.44209  0.49219  0.52719  1.0000
  H   H664      1.0  0.99051  0.64204  0.54138  1.0000
  H   H665      1.0  0.40433  0.54589  0.66774  1.0000
  H   H666      1.0  0.11455  0.56143  0.72132  1.0000
  C   C818      1.0  0.44140  0.54931  0.56226  1.0000
  Fe  Fe65      1.0  0.13919  0.39075  0.48614  1.0000
  H   H667      1.0  0.45872  0.59518  0.55085  1.0000
  C   C819      1.0  0.42399  0.51817  0.56109  1.0000
  H   H668      1.0  0.16446  0.41648  0.69983  1.0000
  H   H669      1.0  0.28952  0.39535  0.48706  1.0000
  H   H670      1.0  0.31326  0.38878  0.53905  1.0000
  C   C820      1.0  0.10203  0.56643  0.49872  1.0000
  C   C821      1.0  0.24531  0.39709  0.48408  1.0000
  C   C822      1.0  0.07616  0.39627  0.70744  1.0000
  C   C823      1.0  0.44503  0.57105  0.54997  1.0000
  C   C824      1.0  0.35694  0.49072  0.52245  1.0000
  C   C825      1.0  0.21458  0.61147  0.65428  1.0000
  H   H671      1.0  0.24735  0.50739  0.65088  1.0000
  H   H672      1.0  0.35063  0.51020  0.54338  1.0000
  H   H673      1.0  0.15451  0.34484  0.54148  1.0000
  P   P31       1.0  0.30800  0.43686  0.59657  1.0000
  C   C826      1.0  0.06566  0.50186  0.69143  1.0000
  C   C827      1.0  0.04575  0.50999  0.68303  1.0000
  H   H674      1.0  0.39758  0.48444  0.54676  1.0000
  C   C828      1.0  0.08413  0.56294  0.67954  1.0000
  C   C829      1.0  0.10425  0.55502  0.68800  1.0000
  C   C830      1.0  0.09488  0.52421  0.69380  1.0000
  C   C831      1.0  0.16818  0.58401  0.67254  1.0000
  C   C832      1.0  0.16084  0.55806  0.66451  1.0000
  C   C833      1.0  0.18012  0.55900  0.65140  1.0000
  C   C834      1.0  0.20688  0.58568  0.64624  1.0000
  H   H675      1.0  0.05886  0.47805  0.69564  1.0000
  C   C835      1.0  0.33532  0.50105  0.59261  1.0000
  H   H676      1.0  0.04718  0.35458  0.55073  1.0000
  H   H677      1.0  0.11051  0.51720  0.69972  1.0000
  H   H678      1.0  0.14033  0.53702  0.66827  1.0000
  H   H679      1.0  0.17430  0.53889  0.64526  1.0000
  H   H680      1.0  0.22165  0.58628  0.63604  1.0000
  C   C836      1.0  0.21824  0.60675  0.49601  1.0000
  H   H681      1.0  0.45239  0.55653  0.57263  1.0000
  C   C837      1.0  0.24908  0.60551  0.51667  1.0000
  C   C838      1.0  0.22851  0.57490  0.52131  1.0000
  C   C839      1.0  0.20271  0.55992  0.51326  1.0000
  C   C840      1.0  0.19752  0.57629  0.50072  1.0000
  P   P32       1.0  0.17851  0.51946  0.51850  1.0000
  C   C841      1.0  0.16883  0.51417  0.53921  1.0000
  C   C842      1.0  0.14358  0.50608  0.50874  1.0000
  C   C843      1.0  0.11364  0.49282  0.51699  1.0000
  C   C844      1.0  0.08706  0.48179  0.50913  1.0000
  H   H682      1.0  0.48128  0.34125  0.71553  1.0000
  H   H683      1.0  0.40190  0.35202  0.67389  1.0000
  C   C845      1.0  0.14636  0.50696  0.49261  1.0000
  C   C846      1.0  0.17675  0.49437  0.54868  1.0000
  C   C847      1.0  0.16922  0.49086  0.56468  1.0000
  C   C848      1.0  0.15348  0.50673  0.57134  1.0000
  C   C849      1.0  0.14599  0.52685  0.56204  1.0000
  C   C850      1.0  0.15392  0.53081  0.54605  1.0000
  C   C851      1.0  0.19933  0.49732  0.51246  1.0000
  C   C852      1.0  0.22996  0.51160  0.50494  1.0000
  C   C853      1.0  0.45464  0.56577  0.66548  1.0000
  C   C854      1.0  0.04625  0.64558  0.71913  1.0000
  H   H684      1.0  0.14352  0.61963  0.71561  1.0000
  C   C855      1.0  0.18421  0.46517  0.51472  1.0000
  H   H685      1.0  0.06082  0.36530  0.58630  1.0000
  C   C856      1.0  0.04992  0.34864  0.59633  1.0000
  C   C857      1.0  0.12102  0.57225  0.51067  1.0000
  H   H686      1.0  0.23306  0.56268  0.53099  1.0000
  H   H687      1.0  0.17776  0.56583  0.49440  1.0000
  H   H688      1.0  0.11050  0.48980  0.52947  1.0000
  S   S135      1.0  0.12268  0.65606  0.63990  1.0000
  C   C858      1.0  0.41032  0.50873  0.54763  1.0000
  C   C859      1.0  0.09012  0.48348  0.49304  1.0000
  H   H689      1.0  0.42774  0.37327  0.64739  1.0000
  H   H690      1.0  0.18854  0.48146  0.54386  1.0000
  H   H691      1.0  0.17480  0.47516  0.57196  1.0000
  H   H692      1.0  0.14810  0.54656  0.53900  1.0000
  H   H693      1.0  0.24196  0.53624  0.50258  1.0000
  S   S136      1.0  0.47915  0.41472  0.67452  1.0000
  Fe  Fe66      1.0  0.39045  0.39048  0.48699  1.0000
  H   H694      1.0  0.35973  0.43157  0.54602  1.0000
  H   H695      1.0  0.16025  0.45367  0.52007  1.0000
  H   H696      1.0  0.32491  0.34958  0.67956  1.0000
  H   H697      1.0  0.37233  0.37920  0.56411  1.0000
  C   C860      1.0  0.33843  0.42229  0.55390  1.0000
  H   H698      1.0  0.42156  0.50120  0.57049  1.0000
  C   C861      1.0  0.28477  0.38534  0.56012  1.0000
  C   C862      1.0  0.28354  0.39710  0.57424  1.0000
  C   C863      1.0  0.30972  0.42194  0.57820  1.0000
  C   C864      1.0  0.33740  0.43410  0.56801  1.0000
  H   H699      1.0  0.40100  0.36140  0.71948  1.0000
  H   H700      1.0  0.39870  0.53186  0.69592  1.0000
  C   C865      1.0  0.30893  0.38259  0.60968  1.0000
  C   C866      1.0  0.32500  0.37679  0.63493  1.0000
  Fe  Fe67      1.0  0.37274  0.33190  0.50988  1.0000
  C   C867      1.0  0.09084  0.40274  0.69234  1.0000
  H   H701      1.0  0.26224  0.38671  0.58209  1.0000
  C   C868      1.0  0.14528  0.63881  0.67720  1.0000
  H   H702      1.0  0.01864  0.41675  0.68088  1.0000
  H   H703      1.0  0.30266  0.37328  0.59888  1.0000
  H   H704      1.0  0.15754  0.60660  0.52115  1.0000
  H   H705      1.0  0.21918  0.56052  0.71830  1.0000
  C   C869      1.0  0.42494  0.55156  0.67372  1.0000
  H   H706      1.0  0.40769  0.55485  0.59731  1.0000
  H   H707      1.0  0.19269  0.44722  0.60872  1.0000
  C   C870      1.0  0.43843  0.48884  0.51530  1.0000
  H   H708      1.0  0.24102  0.34763  0.66315  1.0000
  C   C871      1.0  0.12562  0.62070  0.48944  1.0000
  C   C872      1.0  0.25442  0.44256  0.58825  1.0000
  C   C873      1.0  0.45654  0.33839  0.52918  1.0000
  H   H709      1.0  0.03679  0.34061  0.72026  1.0000
  H   H710      1.0  0.47853  0.60085  0.71429  1.0000
  C   C874      1.0  0.31252  0.41239  0.61193  1.0000
  H   H711      1.0  0.29944  0.43056  0.50902  1.0000
  H   H712      1.0  0.13699  0.37441  0.65511  1.0000
  C   C875      1.0  0.24408  0.62135  0.50393  1.0000
  H   H713      1.0  0.16179  0.64936  0.50251  1.0000
  H   H714      1.0  0.23715  0.45224  0.71966  1.0000
  H   H715      1.0  0.24444  0.38434  0.64091  1.0000
  H   H716      1.0  0.35837  0.45237  0.57093  1.0000
  C   C876      1.0  0.14492  0.62632  0.50139  1.0000
  H   H717      1.0  0.26950  0.43390  0.53266  1.0000
  H   H718      1.0  0.15049  0.35684  0.56852  1.0000
  C   C877      1.0  0.46350  0.38988  0.69184  1.0000
  H   H719      1.0  0.43490  0.57884  0.52699  1.0000
  C   C878      1.0  0.21302  0.38913  0.65876  1.0000
  C   C879      1.0  0.22076  0.38118  0.64439  1.0000
  P   P33       1.0  0.24331  0.40768  0.67082  1.0000
  C   C880      1.0  0.22716  0.40715  0.69025  1.0000
  C   C881      1.0  0.26901  0.38893  0.67319  1.0000
  C   C882      1.0  0.26206  0.35977  0.66841  1.0000
  C   C883      1.0  0.00581  0.39461  0.68749  1.0000
  C   C884      1.0  0.30916  0.36036  0.67788  1.0000
  C   C885      1.0  0.31565  0.38889  0.68309  1.0000
  C   C886      1.0  0.29538  0.40282  0.68099  1.0000
  C   C887      1.0  0.23882  0.43339  0.69812  1.0000
  C   C888      1.0  0.22771  0.43208  0.71355  1.0000
  H   H720      1.0  0.03986  0.54661  0.67026  1.0000
  C   C889      1.0  0.19334  0.37842  0.71349  1.0000
  C   C890      1.0  0.20460  0.37956  0.69809  1.0000
  C   C891      1.0  0.26324  0.44660  0.66181  1.0000
  C   C892      1.0  0.24617  0.46411  0.65967  1.0000
  C   C893      1.0  0.26081  0.49405  0.65235  1.0000
  C   C894      1.0  0.29266  0.50676  0.64713  1.0000
  C   C895      1.0  0.30977  0.48938  0.64909  1.0000
  C   C896      1.0  0.29507  0.45933  0.65628  1.0000
  H   H721      1.0  0.26919  0.61680  0.52278  1.0000
  H   H722      1.0  0.20434  0.36405  0.62308  1.0000
  C   C897      1.0  0.24530  0.49392  0.50001  1.0000
  C   C898      1.0  0.44825  0.54946  0.69726  1.0000
  H   H723      1.0  0.17665  0.39464  0.67304  1.0000
  S   S137      1.0  0.45678  0.48652  0.66984  1.0000
  H   H724      1.0  0.07790  0.40356  0.68276  1.0000
  C   C899      1.0  0.14254  0.60217  0.51199  1.0000
  H   H725      1.0  0.33638  0.40033  0.68880  1.0000
  H   H726      1.0  0.30034  0.42459  0.68541  1.0000
  H   H727      1.0  0.25697  0.45473  0.69252  1.0000
  C   C900      1.0  0.19818  0.36995  0.63419  1.0000
  H   H728      1.0  0.23535  0.63217  0.65029  1.0000
  P   P34       1.0  0.14344  0.58303  0.68952  1.0000
  C   C901      1.0  0.32825  0.40623  0.63737  1.0000
  C   C902      1.0  0.26533  0.38746  0.49174  1.0000
  C   C903      1.0  0.41885  0.49911  0.50769  1.0000
  C   C904      1.0  0.19544  0.61060  0.66744  1.0000
  C   C905      1.0  0.20490  0.40468  0.72121  1.0000
  C   C906      1.0  0.46840  0.35359  0.71126  1.0000
  S   S138      1.0  0.12933  0.43201  0.48905  1.0000
  Fe  Fe68      1.0  0.45624  0.44220  0.66261  1.0000
  H   H729      1.0  0.33701  0.41582  0.64783  1.0000
  H   H730      1.0  0.36686  0.37659  0.59275  1.0000
  H   H731      1.0  0.11908  0.55348  0.51880  1.0000
  C   C907      1.0  0.09288  0.39556  0.71997  1.0000
  H   H732      1.0  0.26295  0.44266  0.57642  1.0000
  C   C908      1.0  0.26022  0.44166  0.61555  1.0000
  H   H733      1.0  0.14681  0.50311  0.58371  1.0000
  C   C909      1.0  0.00076  0.65826  0.53114  1.0000
  H   H734      1.0  0.35404  0.46651  0.50214  1.0000
  C   C910      1.0  0.14441  0.63278  0.70496  1.0000
  H   H735      1.0  0.27313  0.44086  0.62512  1.0000
  C   C911      1.0  0.31053  0.44810  0.51644  1.0000
  H   H736      1.0  0.18772  0.42280  0.51131  1.0000
  C   C912      1.0  0.48118  0.57214  0.67312  1.0000
  C   C913      1.0  0.19675  0.56168  0.71900  1.0000
  H   H737      1.0  0.35623  0.55049  0.59035  1.0000
  C   C914      1.0  0.27145  0.44025  0.60042  1.0000
  C   C915      1.0  0.30830  0.47253  0.53946  1.0000
  C   C916      1.0  0.02245  0.34395  0.55470  1.0000
  H   H738      1.0  0.40036  0.50182  0.48593  1.0000
  C   C917      1.0  0.19970  0.44762  0.50984  1.0000
  C   C918      1.0  0.33979  0.47442  0.59613  1.0000
  C   C919      1.0  0.02503  0.64698  0.73071  1.0000
  C   C920      1.0  0.43152  0.56166  0.53642  1.0000
  H   H739      1.0  0.33134  0.36370  0.64346  1.0000
  H   H740      1.0  0.45805  0.45311  0.48695  1.0000
  H   H741      1.0  0.46684  0.46373  0.51389  1.0000
  H   H742      1.0  0.41604  0.50787  0.60313  1.0000
  C   C921      1.0  0.16025  0.37581  0.65223  1.0000
  H   H743      1.0  0.35773  0.44797  0.72747  1.0000
  C   C922      1.0  0.18670  0.57119  0.70582  1.0000
  C   C923      1.0  0.42316  0.36489  0.71340  1.0000
  C   C924      1.0  0.15710  0.57151  0.70654  1.0000
  H   H744      1.0  0.44147  0.37131  0.56011  1.0000
  C   C925      1.0  0.23021  0.46197  0.50250  1.0000
  C   C926      1.0  0.34187  0.46846  0.51268  1.0000
  C   C927      1.0  0.14406  0.62071  0.69073  1.0000
  H   H745      1.0  0.31294  0.49958  0.58973  1.0000
  H   H746      1.0  0.32615  0.44725  0.62777  1.0000
  C   C928      1.0  0.13767  0.56187  0.72060  1.0000
  H   H747      1.0  0.37350  0.45700  0.60215  1.0000
  C   C929      1.0  0.36928  0.47719  0.59962  1.0000
  C   C930      1.0  0.39356  0.50608  0.60013  1.0000
  H   H748      1.0  0.35486  0.58037  0.48846  1.0000
  C   C931      1.0  0.05493  0.54051  0.67717  1.0000
  C   C932      1.0  0.12243  0.40915  0.68957  1.0000
  C   C933      1.0  0.21476  0.44553  0.60639  1.0000
  H   H749      1.0  0.08573  0.54317  0.49749  1.0000
  S   S139      1.0  0.27787  0.35416  0.51532  1.0000
  Fe  Fe69      1.0  0.42703  0.44612  0.63270  1.0000
  S   S140      1.0  0.42587  0.49070  0.63774  1.0000
  H   H750      1.0  0.44947  0.56416  0.49728  1.0000
  C   C934      1.0  0.43497  0.38535  0.69981  1.0000
  C   C935      1.0  0.00307  0.35570  0.54817  1.0000
  H   H751      1.0  0.20190  0.57766  0.69509  1.0000
  C   C936      1.0  0.23200  0.44427  0.61850  1.0000
  H   H752      1.0  0.17595  0.35710  0.71951  1.0000
  Fe  Fe70      1.0  0.47434  0.50473  0.64494  1.0000
  C   C937      1.0  0.35981  0.52998  0.59296  1.0000
  H   H753      1.0  0.09119  0.58615  0.67430  1.0000
  C   C938      1.0  0.22605  0.44484  0.59127  1.0000
  H   H754      1.0  0.21272  0.44612  0.58190  1.0000
  C   C939      1.0  0.41424  0.53036  0.53512  1.0000
  H   H755      1.0  0.22331  0.44515  0.63020  1.0000
  P   P35       1.0  0.39744  0.51740  0.51759  1.0000
  H   H756      1.0  0.13398  0.41537  0.67787  1.0000
  C   C940      1.0  0.31511  0.36489  0.62116  1.0000
  C   C941      1.0  0.42879  0.56793  0.49573  1.0000
  C   C942      1.0  0.38883  0.53248  0.59684  1.0000
  C   C943      1.0  0.10425  0.59050  0.48816  1.0000
  H   H757      1.0  0.06406  0.47072  0.51556  1.0000
  H   H758      1.0  0.24190  0.44829  0.49843  1.0000
  C   C944      1.0  0.41519  0.49415  0.49218  1.0000
  C   C945      1.0  0.42961  0.47800  0.48471  1.0000
  C   C946      1.0  0.45296  0.47281  0.50772  1.0000
  H   H759      1.0  0.15060  0.35923  0.63006  1.0000
  C   C947      1.0  0.45019  0.34262  0.64608  1.0000
  C   C948      1.0  0.44814  0.46694  0.49252  1.0000
  H   H760      1.0  0.02359  0.49255  0.68066  1.0000
  C   C949      1.0  0.45482  0.36524  0.55140  1.0000
  C   C950      1.0  0.48016  0.37401  0.69766  1.0000
  H   H761      1.0  0.01295  0.37484  0.53919  1.0000
  H   H762      1.0  0.26466  0.36619  0.55701  1.0000
  H   H763      1.0  0.44525  0.54179  0.70944  1.0000
  C   C951      1.0  0.37558  0.57724  0.49079  1.0000
  H   H764      1.0  0.46197  0.35247  0.63462  1.0000
  C   C952      1.0  0.47819  0.56436  0.68909  1.0000
  H   H765      1.0  0.20190  0.63073  0.67360  1.0000
  H   H766      1.0  0.04422  0.62357  0.71593  1.0000
  C   C953      1.0  0.16794  0.36730  0.63810  1.0000
  C   C954      1.0  0.12950  0.34429  0.56325  1.0000
  C   C955      1.0  0.43075  0.59118  0.48466  1.0000
  H   H767      1.0  0.99404  0.37792  0.61734  1.0000
  C   C956      1.0  0.98672  0.39190  0.70117  1.0000
  S   S141      1.0  0.47683  0.46151  0.63802  1.0000
  H   H768      1.0  0.98506  0.41209  0.70502  1.0000
  H   H769      1.0  0.11160  0.66137  0.50758  1.0000
  H   H770      1.0  0.31362  0.34245  0.61909  1.0000
  H   H771      1.0  0.06963  0.47432  0.48689  1.0000
  H   H772      1.0  0.09911  0.34000  0.58350  1.0000
  C   C957      1.0  0.99096  0.34006  0.69104  1.0000
  H   H773      1.0  0.03658  0.34593  0.63532  1.0000
  C   C958      1.0  0.02926  0.33248  0.73231  1.0000
  C   C959      1.0  0.11977  0.49607  0.48480  1.0000
  H   H774      1.0  0.98733  0.64294  0.70796  1.0000
  C   C960      1.0  0.03620  0.33786  0.62401  1.0000
  C   C961      1.0  0.10016  0.33489  0.57168  1.0000
  Fe  Fe71      1.0  0.22745  0.40563  0.91765  1.0000
  S   S142      1.0  0.18790  0.35892  0.92315  1.0000
  S   S143      1.0  0.24799  0.44061  0.93473  1.0000
  Fe  Fe72      1.0  0.23330  0.39814  0.88287  1.0000
  S   S144      1.0  0.19421  0.35077  0.88595  1.0000
  S   S145      1.0  0.26221  0.41978  0.85970  1.0000
  Fe  Fe73      1.0  0.16942  0.37044  0.90179  1.0000
  S   S146      1.0  0.11979  0.36610  0.90178  1.0000
  H   H775      1.0  0.32592  0.59865  0.94971  1.0000
  H   H776      1.0  0.03478  0.36937  0.85399  1.0000
  S   S147      1.0  0.20726  0.41853  0.89733  1.0000
  S   S148      1.0  0.25731  0.38946  0.90278  1.0000
  C   C962      1.0  0.24152  0.44725  0.98100  1.0000
  Fe  Fe74      1.0  0.22810  0.47244  0.77873  1.0000
  S   S149      1.0  0.21704  0.51041  0.76855  1.0000
  S   S150      1.0  0.20040  0.44822  0.80188  1.0000
  H   H777      1.0  0.34388  0.57403  0.78320  1.0000
  Fe  Fe75      1.0  0.26846  0.53576  0.76140  1.0000
  S   S151      1.0  0.29835  0.58638  0.76248  1.0000
  S   S152      1.0  0.22274  0.44921  0.75695  1.0000
  S   S153      1.0  0.27983  0.49938  0.77310  1.0000
  C   C963      1.0  0.30140  0.60236  0.78020  1.0000
  Fe  Fe76      1.0  0.21637  0.34340  0.90690  1.0000
  C   C964      1.0  0.27648  0.59133  0.79193  1.0000
  H   H778      1.0  0.25947  0.59762  0.81442  1.0000
  H   H779      1.0  0.25505  0.57198  0.79040  1.0000
  C   C965      1.0  0.24444  0.42701  0.84371  1.0000
  C   C966      1.0  0.21406  0.42505  0.84543  1.0000
  C   C967      1.0  0.20090  0.43167  0.83252  1.0000
  C   C968      1.0  0.21794  0.44021  0.81779  1.0000
  C   C969      1.0  0.24830  0.44213  0.81608  1.0000
  C   C970      1.0  0.26141  0.43542  0.82898  1.0000
  H   H780      1.0  0.20078  0.41848  0.85671  1.0000
  H   H781      1.0  0.17745  0.43027  0.83394  1.0000
  H   H782      1.0  0.26153  0.44838  0.80478  1.0000
  H   H783      1.0  0.28461  0.43627  0.82747  1.0000
  C   C971      1.0  0.23693  0.43129  0.95492  1.0000
  C   C972      1.0  0.21542  0.40196  0.96119  1.0000
  C   C973      1.0  0.36421  0.63900  0.88807  1.0000
  C   C974      1.0  0.25004  0.45384  0.96493  1.0000
  H   H784      1.0  0.20532  0.38431  0.95368  1.0000
  C   C975      1.0  0.35351  0.55162  0.76445  1.0000
  H   H785      1.0  0.26666  0.47660  0.96029  1.0000
  H   H786      1.0  0.33315  0.57114  0.98237  1.0000
  C   C976      1.0  0.11912  0.36067  0.95956  1.0000
  H   H787      1.0  0.19644  0.40382  0.73317  1.0000
  H   H788      1.0  0.00634  0.62608  0.73642  1.0000
  C   C977      1.0  0.25754  0.35160  0.94431  1.0000
  C   C978      1.0  0.31108  0.52206  0.93486  1.0000
  C   C979      1.0  0.10146  0.39340  0.75345  1.0000
  H   H789      1.0  0.00213  0.37668  0.87520  1.0000
  H   H790      1.0  0.25136  0.62383  0.84867  1.0000
  C   C980      1.0  0.34898  0.57463  0.92741  1.0000
  C   C981      1.0  0.31863  0.55147  0.92781  1.0000
  P   P36       1.0  0.35798  0.61247  0.91822  1.0000
  C   C982      1.0  0.33225  0.62652  0.92802  1.0000
  C   C983      1.0  0.39726  0.63871  0.92095  1.0000
  C   C984      1.0  0.07011  0.33600  0.84899  1.0000
  H   H791      1.0  0.10825  0.34454  0.86274  1.0000
  H   H792      1.0  0.14919  0.37094  0.84078  1.0000
  H   H793      1.0  0.02205  0.39630  0.92096  1.0000
  C   C985      1.0  0.42410  0.64045  0.80353  1.0000
  C   C986      1.0  0.06342  0.46904  0.73632  1.0000
  H   H794      1.0  0.28769  0.50427  0.93497  1.0000
  C   C987      1.0  0.99471  0.36621  0.78866  1.0000
  H   H795      1.0  0.20678  0.56845  0.76945  1.0000
  H   H796      1.0  0.36237  0.52368  0.74821  1.0000
  H   H797      1.0  0.30089  0.55616  0.92256  1.0000
  H   H798      1.0  0.39532  0.60732  0.78976  1.0000
  C   C988      1.0  0.32907  0.62757  0.78230  1.0000
  C   C989      1.0  0.02040  0.35562  0.93358  1.0000
  S   S154      1.0  0.26579  0.51780  0.73812  1.0000
  H   H799      1.0  0.13852  0.43879  0.78071  1.0000
  C   C990      1.0  0.01152  0.34022  0.81420  1.0000
  H   H800      1.0  0.04846  0.38572  0.81436  1.0000
  H   H801      1.0  0.16181  0.40156  0.78277  1.0000
  H   H802      1.0  0.23965  0.54467  0.95468  1.0000
  C   C991      1.0  0.06134  0.33984  0.83425  1.0000
  C   C992      1.0  0.02427  0.40627  0.74025  1.0000
  H   H803      1.0  0.03461  0.40784  0.79135  1.0000
  H   H804      1.0  0.98837  0.37602  0.77867  1.0000
  H   H805      1.0  0.98652  0.41979  0.73867  1.0000
  S   S155      1.0  0.30999  0.64732  0.82529  1.0000
  C   C993      1.0  0.99172  0.35832  0.86807  1.0000
  S   S156      1.0  0.30957  0.46244  0.74155  1.0000
  C   C994      1.0  0.12474  0.36236  0.83895  1.0000
  H   H806      1.0  0.39499  0.58563  0.93455  1.0000
  C   C995      1.0  0.01025  0.35387  0.85612  1.0000
  H   H807      1.0  0.10828  0.35349  0.74769  1.0000
  H   H808      1.0  0.12886  0.37081  0.93485  1.0000
  C   C996      1.0  0.28473  0.38833  0.96173  1.0000
  H   H809      1.0  0.05350  0.34683  0.90255  1.0000
  H   H810      1.0  0.38116  0.53372  0.94720  1.0000
  H   H811      1.0  0.32745  0.49275  0.94740  1.0000
  C   C997      1.0  0.27435  0.38188  0.94726  1.0000
  C   C998      1.0  0.40417  0.50371  0.83341  1.0000
  H   H812      1.0  0.41836  0.54568  0.81861  1.0000
  C   C999      1.0  0.11454  0.37211  0.75490  1.0000
  C   C1000     1.0  0.13611  0.37497  0.76547  1.0000
  C   C1001     1.0  0.36378  0.53862  0.94166  1.0000
  S   S157      1.0  0.36288  0.63713  0.97762  1.0000
  C   C1002     1.0  0.20697  0.39536  0.97725  1.0000
  C   C1003     1.0  0.08989  0.33194  0.89723  1.0000
  C   C1004     1.0  0.33195  0.64154  0.79606  1.0000
  C   C1005     1.0  0.22867  0.64090  0.77947  1.0000
  H   H813      1.0  0.26662  0.65392  0.74318  1.0000
  C   C1006     1.0  0.39178  0.33469  0.87041  1.0000
  H   H814      1.0  0.04227  0.35263  0.76868  1.0000
  C   C1007     1.0  0.42216  0.64528  0.90944  1.0000
  C   C1008     1.0  0.29916  0.65342  0.94484  1.0000
  H   H815      1.0  0.43330  0.65869  0.79408  1.0000
  H   H816      1.0  0.29373  0.37113  0.84008  1.0000
  H   H817      1.0  0.14303  0.37431  0.96164  1.0000
  C   C1009     1.0  0.07617  0.44767  0.73786  1.0000
  C   C1010     1.0  0.10968  0.41710  0.76309  1.0000
  C   C1011     1.0  0.10167  0.34749  0.85133  1.0000
  C   C1012     1.0  0.28776  0.34978  0.84721  1.0000
  C   C1013     1.0  0.21771  0.59327  0.76837  1.0000
  H   H818      1.0  0.31909  0.49063  0.82846  1.0000
  C   C1014     1.0  0.13806  0.46110  0.89968  1.0000
  C   C1015     1.0  0.13467  0.44164  0.88814  1.0000
  C   C1016     1.0  0.16004  0.44682  0.87735  1.0000
  C   C1017     1.0  0.18905  0.47106  0.87827  1.0000
  C   C1018     1.0  0.19297  0.49013  0.89017  1.0000
  C   C1019     1.0  0.16698  0.48548  0.90060  1.0000
  P   P37       1.0  0.23054  0.52119  0.89166  1.0000
  C   C1020     1.0  0.23308  0.52904  0.91163  1.0000
  C   C1021     1.0  0.26070  0.50942  0.88521  1.0000
  C   C1022     1.0  0.27425  0.49651  0.89567  1.0000
  C   C1023     1.0  0.29607  0.48585  0.89029  1.0000
  C   C1024     1.0  0.30457  0.48798  0.87447  1.0000
  C   C1025     1.0  0.29144  0.50102  0.86401  1.0000
  C   C1026     1.0  0.26977  0.51184  0.86934  1.0000
  C   C1027     1.0  0.24311  0.55910  0.91571  1.0000
  C   C1028     1.0  0.24538  0.56466  0.93119  1.0000
  C   C1029     1.0  0.23757  0.54032  0.94270  1.0000
  C   C1030     1.0  0.22696  0.51032  0.93879  1.0000
  C   C1031     1.0  0.22445  0.50466  0.92336  1.0000
  C   C1032     1.0  0.23599  0.55453  0.87886  1.0000
  C   C1033     1.0  0.21225  0.55449  0.87012  1.0000
  C   C1034     1.0  0.21775  0.57949  0.85933  1.0000
  C   C1035     1.0  0.24687  0.60469  0.85724  1.0000
  C   C1036     1.0  0.27049  0.60502  0.86599  1.0000
  C   C1037     1.0  0.26513  0.57999  0.87670  1.0000
  H   H819      1.0  0.11836  0.45689  0.90809  1.0000
  H   H820      1.0  0.11255  0.42213  0.88772  1.0000
  H   H821      1.0  0.15741  0.43141  0.86854  1.0000
  H   H822      1.0  0.20839  0.47408  0.86992  1.0000
  H   H823      1.0  0.16908  0.50027  0.90964  1.0000
  H   H824      1.0  0.26761  0.49364  0.90793  1.0000
  H   H825      1.0  0.30551  0.47489  0.89842  1.0000
  H   H826      1.0  0.32041  0.47847  0.87030  1.0000
  H   H827      1.0  0.29707  0.50166  0.85173  1.0000
  H   H828      1.0  0.25920  0.52099  0.86100  1.0000
  H   H829      1.0  0.24912  0.57836  0.90710  1.0000
  H   H830      1.0  0.25335  0.58790  0.93427  1.0000
  C   C1038     1.0  0.03222  0.33901  0.75949  1.0000
  H   H831      1.0  0.22083  0.49133  0.94769  1.0000
  H   H832      1.0  0.21616  0.48116  0.92059  1.0000
  H   H833      1.0  0.18964  0.53508  0.87139  1.0000
  H   H834      1.0  0.19953  0.57923  0.85246  1.0000
  H   H835      1.0  0.22565  0.65247  0.78922  1.0000
  H   H836      1.0  0.29315  0.62448  0.86418  1.0000
  H   H837      1.0  0.28374  0.58035  0.88325  1.0000
  C   C1039     1.0  0.37154  0.56807  0.93445  1.0000
  C   C1040     1.0  0.17740  0.55244  0.73296  1.0000
  H   H838      1.0  0.42790  0.50694  0.83465  1.0000
  C   C1041     1.0  0.13142  0.41997  0.77360  1.0000
  H   H839      1.0  0.40058  0.35709  0.87452  1.0000
  C   C1042     1.0  0.11630  0.36559  0.82417  1.0000
  C   C1043     1.0  0.30690  0.63072  0.80773  1.0000
  H   H840      1.0  0.09975  0.43357  0.76254  1.0000
  C   C1044     1.0  0.27904  0.60588  0.80551  1.0000
  H   H841      1.0  0.34847  0.63612  0.77330  1.0000
  H   H842      1.0  0.32897  0.45249  0.84448  1.0000
  C   C1045     1.0  0.37252  0.51990  0.78634  1.0000
  C   C1046     1.0  0.36247  0.54205  0.79093  1.0000
  C   C1047     1.0  0.35266  0.55759  0.77988  1.0000
  P   P38       1.0  0.36107  0.54993  0.81086  1.0000
  C   C1048     1.0  0.39007  0.58770  0.81346  1.0000
  C   C1049     1.0  0.32257  0.54700  0.81703  1.0000
  C   C1050     1.0  0.31854  0.56658  0.82730  1.0000
  C   C1051     1.0  0.28858  0.56309  0.83263  1.0000
  C   C1052     1.0  0.26241  0.54044  0.82753  1.0000
  C   C1053     1.0  0.26625  0.52136  0.81705  1.0000
  C   C1054     1.0  0.29616  0.52444  0.81190  1.0000
  C   C1055     1.0  0.39962  0.59414  0.82818  1.0000
  C   C1056     1.0  0.42133  0.62342  0.83049  1.0000
  H   H843      1.0  0.42837  0.62841  0.84187  1.0000
  C   C1057     1.0  0.40242  0.61119  0.80116  1.0000
  C   C1058     1.0  0.36796  0.52159  0.82270  1.0000
  C   C1059     1.0  0.39867  0.52566  0.82438  1.0000
  C   C1060     1.0  0.37908  0.47744  0.84073  1.0000
  C   C1061     1.0  0.34849  0.47302  0.83894  1.0000
  C   C1062     1.0  0.34294  0.49489  0.82989  1.0000
  H   H844      1.0  0.33796  0.56206  0.89777  1.0000
  H   H845      1.0  0.37969  0.50704  0.79457  1.0000
  H   H846      1.0  0.33835  0.58494  0.83098  1.0000
  H   H847      1.0  0.28576  0.57882  0.84020  1.0000
  H   H848      1.0  0.23922  0.53820  0.83137  1.0000
  H   H849      1.0  0.24602  0.50433  0.81278  1.0000
  H   H850      1.0  0.29864  0.50902  0.80402  1.0000
  H   H851      1.0  0.38993  0.57664  0.83793  1.0000
  H   H852      1.0  0.37928  0.49564  0.76753  1.0000
  Fe  Fe77      1.0  0.27392  0.47965  0.75027  1.0000
  H   H853      1.0  0.13437  0.37690  0.81457  1.0000
  Fe  Fe78      1.0  0.21506  0.48897  0.74635  1.0000
  C   C1063     1.0  0.34431  0.58371  0.89094  1.0000
  H   H854      1.0  0.28393  0.34330  0.90489  1.0000
  C   C1064     1.0  0.37256  0.51344  0.77097  1.0000
  H   H855      1.0  0.34553  0.56344  0.75602  1.0000
  C   C1065     1.0  0.35459  0.61148  0.89769  1.0000
  H   H856      1.0  0.38329  0.46034  0.84767  1.0000
  C   C1066     1.0  0.02082  0.38403  0.79576  1.0000
  C   C1067     1.0  0.14465  0.39897  0.77476  1.0000
  H   H857      1.0  0.37431  0.66085  0.89269  1.0000
  C   C1068     1.0  0.27893  0.36432  0.97329  1.0000
  C   C1069     1.0  0.36310  0.52930  0.76003  1.0000
  H   H858      1.0  0.33488  0.56224  0.86989  1.0000
  C   C1070     1.0  0.36190  0.63879  0.87225  1.0000
  C   C1071     1.0  0.21361  0.60888  0.78063  1.0000
  C   C1072     1.0  0.34273  0.58365  0.87500  1.0000
  C   C1073     1.0  0.35114  0.61119  0.86569  1.0000
  C   C1074     1.0  0.02887  0.37127  0.80866  1.0000
  C   C1075     1.0  0.24799  0.65753  0.76599  1.0000
  C   C1076     1.0  0.33357  0.51559  0.94182  1.0000
  P   P39       1.0  0.07390  0.38900  0.73946  1.0000
  H   H859      1.0  0.41835  0.63456  0.89884  1.0000
  C   C1077     1.0  0.40324  0.65281  0.93464  1.0000
  C   C1078     1.0  0.05673  0.41613  0.73997  1.0000
  H   H860      1.0  0.33407  0.35574  0.97127  1.0000
  H   H861      1.0  0.13271  0.54467  0.74454  1.0000
  H   H862      1.0  0.03913  0.36853  0.94015  1.0000
  C   C1079     1.0  0.09620  0.34513  0.97194  1.0000
  C   C1080     1.0  0.01156  0.42769  0.73873  1.0000
  H   H863      1.0  0.34969  0.61137  0.85338  1.0000
  C   C1081     1.0  0.11116  0.35872  0.94449  1.0000
  H   H864      1.0  0.38471  0.64805  0.94383  1.0000
  H   H865      1.0  0.07876  0.35565  0.81014  1.0000
  H   H866      1.0  0.29701  0.41206  0.96377  1.0000
  H   H867      1.0  0.32169  0.33884  0.83453  1.0000
  H   H868      1.0  0.18496  0.54423  0.74301  1.0000
  C   C1082     1.0  0.04325  0.35057  0.74396  1.0000
  C   C1083     1.0  0.43366  0.64652  0.81815  1.0000
  H   H869      1.0  0.27884  0.40045  0.93837  1.0000
  C   C1084     1.0  0.01058  0.37150  0.92277  1.0000
  C   C1085     1.0  0.25159  0.64165  0.75363  1.0000
  H   H870      1.0  0.14650  0.35878  0.76637  1.0000
  C   C1086     1.0  0.08472  0.35395  0.82176  1.0000
  C   C1087     1.0  0.30421  0.62933  0.95194  1.0000
  C   C1088     1.0  0.32069  0.61595  0.94361  1.0000
  H   H871      1.0  0.19936  0.59611  0.79118  1.0000
  H   H872      1.0  0.29695  0.62214  0.96416  1.0000
  C   C1089     1.0  0.26217  0.33391  0.97019  1.0000
  H   H873      1.0  0.33356  0.33747  0.90143  1.0000
  C   C1090     1.0  0.23665  0.60964  0.75488  1.0000
  C   C1091     1.0  0.32679  0.65065  0.92098  1.0000
  H   H874      1.0  0.24061  0.59745  0.74558  1.0000
  H   H875      1.0  0.25236  0.35512  0.86206  1.0000
  H   H876      1.0  0.33632  0.66043  0.90930  1.0000
  H   H877      1.0  0.47237  0.61056  0.74142  1.0000
  H   H878      1.0  0.35359  0.66056  0.79766  1.0000
  H   H879      1.0  0.10131  0.45568  0.73714  1.0000
  H   H880      1.0  0.00860  0.38213  0.74114  1.0000
  C   C1092     1.0  0.14785  0.55246  0.73376  1.0000
  H   H881      1.0  0.07870  0.49331  0.73451  1.0000
  H   H882      1.0  0.02118  0.47555  0.73531  1.0000
  C   C1093     1.0  0.03110  0.45905  0.73675  1.0000
  H   H883      1.0  0.24916  0.34670  0.93316  1.0000
  H   H884      1.0  0.07469  0.34024  0.92998  1.0000
  S   S158      1.0  0.17244  0.48106  0.73384  1.0000
  C   C1094     1.0  0.08036  0.34117  0.94176  1.0000
  H   H885      1.0  0.36899  0.66027  0.86507  1.0000
  C   C1095     1.0  0.26440  0.34080  0.85962  1.0000
  H   H886      1.0  0.35221  0.33875  0.86204  1.0000
  H   H887      1.0  0.31645  0.33142  0.94729  1.0000
  C   C1096     1.0  0.98569  0.35544  0.91453  1.0000
  C   C1097     1.0  0.30337  0.33133  0.84408  1.0000
  H   H888      1.0  0.19028  0.37260  0.98197  1.0000
  C   C1098     1.0  0.44317  0.84467  0.02671  1.0000
  S   S159      1.0  0.38502  0.71533  0.99928  1.0000
  H   H889      1.0  0.19968  0.81499  0.22040  1.0000
  H   H890      1.0  0.23908  0.95707  0.14935  1.0000
  H   H891      1.0  0.02346  0.67223  0.21383  1.0000
  H   H892      1.0  0.28484  0.75952  0.98549  1.0000
  H   H893      1.0  0.18774  0.86010  0.21571  1.0000
  Fe  Fe79      1.0  0.07455  0.69902  0.14384  1.0000
  S   S160      1.0  0.12329  0.71946  0.13062  1.0000
  S   S161      1.0  0.04674  0.72558  0.14979  1.0000
  Fe  Fe80      1.0  0.21000  0.84620  0.05734  1.0000
  S   S162      1.0  0.25821  0.86544  0.06522  1.0000
  S   S163      1.0  0.16251  0.81436  0.07016  1.0000
  Fe  Fe81      1.0  0.23133  0.88872  0.02685  1.0000
  S   S164      1.0  0.28055  0.91137  0.03249  1.0000
  S   S165      1.0  0.21414  0.90638  0.00639  1.0000
  Fe  Fe82      1.0  0.27447  0.86373  0.04046  1.0000
  S   S166      1.0  0.31808  0.85700  0.03351  1.0000
  Fe  Fe83      1.0  0.26103  0.91158  0.05663  1.0000
  S   S167      1.0  0.28146  0.95631  0.06756  1.0000
  S   S168      1.0  0.22608  0.84071  0.03314  1.0000
  S   S169      1.0  0.21202  0.89283  0.05039  1.0000
  C   C1099     1.0  0.13417  0.74652  0.11407  1.0000
  C   C1100     1.0  0.11310  0.75685  0.10829  1.0000
  C   C1101     1.0  0.12249  0.77819  0.09504  1.0000
  C   C1102     1.0  0.15300  0.78954  0.08748  1.0000
  C   C1103     1.0  0.17427  0.77971  0.09345  1.0000
  C   C1104     1.0  0.16486  0.75827  0.10669  1.0000
  H   H894      1.0  0.08952  0.74819  0.11395  1.0000
  H   H895      1.0  0.10593  0.78574  0.09048  1.0000
  H   H896      1.0  0.19769  0.78806  0.08765  1.0000
  H   H897      1.0  0.18136  0.75054  0.11116  1.0000
  C   C1105     1.0  0.32316  0.96507  0.11379  1.0000
  C   C1106     1.0  0.05992  0.71696  0.06554  1.0000
  C   C1107     1.0  0.00503  0.73151  0.01880  1.0000
  C   C1108     1.0  0.29749  0.95903  0.08535  1.0000
  C   C1109     1.0  0.29543  0.93306  0.09438  1.0000
  C   C1110     1.0  0.30801  0.93608  0.10859  1.0000
  C   C1111     1.0  0.47542  0.76709  0.01115  1.0000
  H   H898      1.0  0.28379  0.91063  0.09052  1.0000
  H   H899      1.0  0.30592  0.91585  0.11563  1.0000
  C   C1112     1.0  0.31334  0.76811  0.01558  1.0000
  C   C1113     1.0  0.28586  0.77002  0.02143  1.0000
  C   C1114     1.0  0.28691  0.79731  0.02673  1.0000
  C   C1115     1.0  0.31561  0.82257  0.02661  1.0000
  C   C1116     1.0  0.34313  0.82050  0.02095  1.0000
  C   C1117     1.0  0.34194  0.79361  0.01510  1.0000
  H   H900      1.0  0.26366  0.75029  0.02189  1.0000
  H   H901      1.0  0.26560  0.79860  0.03115  1.0000
  H   H902      1.0  0.36542  0.83988  0.02091  1.0000
  H   H903      1.0  0.36316  0.79229  0.01058  1.0000
  C   C1118     1.0  0.36094  0.85841  0.98752  1.0000
  H   H904      1.0  0.44160  0.92742  0.06888  1.0000
  C   C1119     1.0  0.01769  0.75100  0.10401  1.0000
  C   C1120     1.0  0.12898  0.75896  0.20179  1.0000
  C   C1121     1.0  0.23902  0.88315  0.98354  1.0000
  C   C1122     1.0  0.02595  0.69007  0.22120  1.0000
  C   C1123     1.0  0.03389  0.71995  0.21456  1.0000
  C   C1124     1.0  0.40009  0.94297  0.20902  1.0000
  H   H905      1.0  0.04239  0.76575  0.21945  1.0000
  P   P40       1.0  0.43187  0.82632  0.04631  1.0000
  H   H906      1.0  0.23325  0.90862  0.10959  1.0000
  C   C1125     1.0  0.43276  0.82798  0.01410  1.0000
  C   C1126     1.0  0.32554  0.99107  0.10469  1.0000
  C   C1127     1.0  0.13499  0.82462  0.16888  1.0000
  H   H907      1.0  0.37845  0.69800  0.04120  1.0000
  C   C1128     1.0  0.46679  0.83975  0.05604  1.0000
  C   C1129     1.0  0.37462  0.86822  0.05771  1.0000
  C   C1130     1.0  0.35677  0.85029  0.07112  1.0000
  C   C1131     1.0  0.36204  0.82547  0.07711  1.0000
  C   C1132     1.0  0.38495  0.81842  0.06957  1.0000
  C   C1133     1.0  0.40267  0.83611  0.05593  1.0000
  C   C1134     1.0  0.39748  0.86123  0.05010  1.0000
  C   C1135     1.0  0.14927  0.79400  0.22115  1.0000
  C   C1136     1.0  0.41475  0.78524  0.04583  1.0000
  C   C1137     1.0  0.02666  0.74188  0.02953  1.0000
  H   H908      1.0  0.45643  0.77912  0.05019  1.0000
  C   C1138     1.0  0.46293  0.87345  0.99638  1.0000
  H   H909      1.0  0.45364  0.74727  0.01079  1.0000
  C   C1139     1.0  0.09816  0.82374  0.22372  1.0000
  H   H910      1.0  0.20836  0.79176  0.19717  1.0000
  C   C1140     1.0  0.43233  0.76820  0.04787  1.0000
  C   C1141     1.0  0.41908  0.73671  0.04643  1.0000
  C   C1142     1.0  0.38841  0.72217  0.04280  1.0000
  C   C1143     1.0  0.37071  0.73895  0.04089  1.0000
  C   C1144     1.0  0.38370  0.77027  0.04255  1.0000
  H   H911      1.0  0.41782  0.80368  0.01568  1.0000
  H   H912      1.0  0.47105  0.88424  0.98465  1.0000
  H   H913      1.0  0.05292  0.74066  0.09240  1.0000
  H   H914      1.0  0.35005  0.88352  0.11605  1.0000
  H   H915      1.0  0.36973  0.88676  0.05283  1.0000
  H   H916      1.0  0.33837  0.85526  0.07663  1.0000
  H   H917      1.0  0.34794  0.81131  0.08741  1.0000
  H   H918      1.0  0.38853  0.79888  0.07423  1.0000
  C   C1145     1.0  0.08096  0.67513  0.07867  1.0000
  H   H919      1.0  0.44616  0.85049  0.07651  1.0000
  C   C1146     1.0  0.36875  0.90634  0.11529  1.0000
  H   H920      1.0  0.16529  0.89422  0.07769  1.0000
  H   H921      1.0  0.36702  0.90769  0.13995  1.0000
  C   C1147     1.0  0.99228  0.75823  0.10256  1.0000
  H   H922      1.0  0.37538  0.91147  0.09058  1.0000
  H   H923      1.0  0.12783  0.83446  0.17836  1.0000
  H   H924      1.0  0.01546  0.67738  0.06655  1.0000
  H   H925      1.0  0.34710  0.72785  0.03777  1.0000
  H   H926      1.0  0.36974  0.78296  0.04080  1.0000
  H   H927      1.0  0.26829  0.70364  0.98871  1.0000
  Fe  Fe84      1.0  0.00569  0.68453  0.14376  1.0000
  H   H928      1.0  0.20283  0.91276  0.13750  1.0000
  S   S170      1.0  0.31124  0.73297  0.00985  1.0000
  C   C1148     1.0  0.15183  0.85986  0.09716  1.0000
  C   C1149     1.0  0.16083  0.84999  0.11060  1.0000
  C   C1150     1.0  0.18995  0.86772  0.11545  1.0000
  H   H929      1.0  0.40991  0.95987  0.13827  1.0000
  P   P41       1.0  0.20307  0.85364  0.13188  1.0000
  C   C1151     1.0  0.16989  0.83032  0.14581  1.0000
  C   C1152     1.0  0.22309  0.83111  0.12526  1.0000
  C   C1153     1.0  0.22489  0.80816  0.13538  1.0000
  C   C1154     1.0  0.23951  0.79008  0.13015  1.0000
  C   C1155     1.0  0.25284  0.79507  0.11484  1.0000
  C   C1156     1.0  0.25174  0.81827  0.10478  1.0000
  C   C1157     1.0  0.23691  0.83622  0.10994  1.0000
  C   C1158     1.0  0.16069  0.84298  0.15821  1.0000
  H   H930      1.0  0.02419  0.74741  0.11536  1.0000
  C   C1159     1.0  0.15287  0.79909  0.14429  1.0000
  C   C1160     1.0  0.22924  0.88577  0.14084  1.0000
  C   C1161     1.0  0.22313  0.91174  0.14200  1.0000
  H   H931      1.0  0.10917  0.74266  0.19683  1.0000
  C   C1162     1.0  0.26984  0.93602  0.15457  1.0000
  C   C1163     1.0  0.27600  0.91023  0.15353  1.0000
  C   C1164     1.0  0.25582  0.88517  0.14669  1.0000
  C   C1165     1.0  0.41542  0.96116  0.05100  1.0000
  H   H932      1.0  0.12974  0.84564  0.09320  1.0000
  H   H933      1.0  0.14534  0.82814  0.11688  1.0000
  H   H934      1.0  0.43494  0.98845  0.11294  1.0000
  H   H935      1.0  0.21455  0.80388  0.14726  1.0000
  H   H936      1.0  0.24003  0.77184  0.13790  1.0000
  H   H937      1.0  0.26365  0.78068  0.11072  1.0000
  H   H938      1.0  0.26167  0.82188  0.09285  1.0000
  H   H939      1.0  0.23584  0.85363  0.10183  1.0000
  H   H940      1.0  0.17308  0.86696  0.15968  1.0000
  C   C1166     1.0  0.43421  0.99687  0.20270  1.0000
  H   H941      1.0  0.15918  0.78879  0.13477  1.0000
  H   H942      1.0  0.19854  0.79579  0.00012  1.0000
  Fe  Fe85      1.0  0.34872  0.73140  0.99273  1.0000
  H   H943      1.0  0.28619  0.95583  0.15938  1.0000
  H   H944      1.0  0.29714  0.91030  0.15753  1.0000
  H   H945      1.0  0.26136  0.86570  0.14579  1.0000
  C   C1167     1.0  0.17978  0.80004  0.21506  1.0000
  C   C1168     1.0  0.26170  0.99586  0.98857  1.0000
  C   C1169     1.0  0.24343  0.93678  0.14881  1.0000
  H   H946      1.0  0.40634  0.96812  0.18676  1.0000
  H   H947      1.0  0.24946  0.87539  0.99250  1.0000
  C   C1170     1.0  0.10120  0.70620  0.07576  1.0000
  C   C1171     1.0  0.33313  0.86205  0.98871  1.0000
  H   H948      1.0  0.01151  0.74105  0.00681  1.0000
  H   H949      1.0  0.16314  0.75592  0.18517  1.0000
  C   C1172     1.0  0.40248  0.94929  0.12782  1.0000
  H   H950      1.0  0.10024  0.76600  0.21976  1.0000
  C   C1173     1.0  0.09075  0.72702  0.06926  1.0000
  H   H951      1.0  0.43288  0.72374  0.04769  1.0000
  C   C1174     1.0  0.20116  0.90478  0.09298  1.0000
  H   H952      1.0  0.11097  0.82408  0.21289  1.0000
  H   H953      1.0  0.04964  0.75950  0.02553  1.0000
  H   H954      1.0  0.10667  0.75108  0.06759  1.0000
  C   C1175     1.0  0.38288  0.92247  0.10085  1.0000
  C   C1176     1.0  0.18479  0.78664  0.20201  1.0000
  C   C1177     1.0  0.41644  0.96556  0.11342  1.0000
  C   C1178     1.0  0.44247  0.84243  0.99903  1.0000
  C   C1179     1.0  0.25937  0.98875  0.00453  1.0000
  C   C1180     1.0  0.15938  0.76633  0.19529  1.0000
  C   C1181     1.0  0.37840  0.91983  0.12876  1.0000
  C   C1182     1.0  0.07225  0.83061  0.22350  1.0000
  C   C1183     1.0  0.02490  0.75064  0.07624  1.0000
  C   C1184     1.0  0.39712  0.95094  0.03892  1.0000
  C   C1185     1.0  0.22096  0.89899  0.98722  1.0000
  H   H955      1.0  0.12486  0.71442  0.07886  1.0000
  C   C1186     1.0  0.35061  0.94028  0.05614  1.0000
  H   H956      1.0  0.38335  0.92162  0.20564  1.0000
  H   H957      1.0  0.33050  0.87834  0.99599  1.0000
  C   C1187     1.0  0.40124  0.96002  0.06587  1.0000
  C   C1188     1.0  0.36883  0.95069  0.06819  1.0000
  H   H958      1.0  0.32549  0.93223  0.05812  1.0000
  H   H959      1.0  0.06489  0.83545  0.21258  1.0000
  H   H960      1.0  0.24099  0.98542  0.98278  1.0000
  S   S171      1.0  0.33803  0.96746  0.13186  1.0000
  C   C1189     1.0  0.11831  0.79355  0.16727  1.0000
  C   C1190     1.0  0.21018  0.89508  0.10645  1.0000
  C   C1191     1.0  0.07745  0.78024  0.05135  1.0000
  C   C1192     1.0  0.07948  0.80844  0.05575  1.0000
  C   C1193     1.0  0.10460  0.83583  0.04951  1.0000
  C   C1194     1.0  0.12779  0.83530  0.03883  1.0000
  C   C1195     1.0  0.12592  0.80736  0.03438  1.0000
  C   C1196     1.0  0.10088  0.77994  0.04059  1.0000
  C   C1197     1.0  0.01818  0.73004  0.04516  1.0000
  C   C1198     1.0  0.17197  0.88717  0.08835  1.0000
  C   C1199     1.0  0.03962  0.68570  0.06870  1.0000
  H   H961      1.0  0.06193  0.80941  0.06407  1.0000
  H   H962      1.0  0.10636  0.85750  0.05308  1.0000
  H   H963      1.0  0.14751  0.85648  0.03416  1.0000
  H   H964      1.0  0.14427  0.80703  0.02633  1.0000
  H   H965      1.0  0.09993  0.75845  0.03713  1.0000
  C   C1200     1.0  0.12742  0.78079  0.15504  1.0000
  C   C1201     1.0  0.36469  0.94021  0.04154  1.0000
  P   P42       1.0  0.04522  0.74459  0.05939  1.0000
  H   H966      1.0  0.35041  0.93162  0.03229  1.0000
  C   C1202     1.0  0.41276  0.96919  0.19842  1.0000
  C   C1203     1.0  0.40626  0.95256  0.09983  1.0000
  S   S172      1.0  0.04158  0.73045  0.19417  1.0000
  H   H967      1.0  0.21714  0.92559  0.08593  1.0000
  C   C1204     1.0  0.43126  0.97178  0.22811  1.0000
  C   C1205     1.0  0.12396  0.77248  0.21474  1.0000
  H   H968      1.0  0.09820  0.77931  0.17543  1.0000
  S   S173      1.0  0.06817  0.67741  0.16833  1.0000
  C   C1206     1.0  0.03383  0.74702  0.09093  1.0000
  C   C1207     1.0  0.46715  0.85092  0.07051  1.0000
  H   H969      1.0  0.35758  0.95135  0.07932  1.0000
  C   C1208     1.0  0.40938  0.94424  0.22386  1.0000
  C   C1209     1.0  0.46371  0.87592  0.02393  1.0000
  H   H970      1.0  0.24811  0.79357  0.99114  1.0000
  C   C1210     1.0  0.03664  0.74268  0.22442  1.0000
  Fe  Fe86      1.0  0.03713  0.70109  0.17393  1.0000
  H   H971      1.0  0.22669  0.91220  0.21861  1.0000
  S   S174      1.0  0.46562  0.78929  0.98288  1.0000
  H   H972      1.0  0.11461  0.75667  0.15380  1.0000
  H   H973      1.0  0.41021  0.87494  0.03947  1.0000
  H   H974      1.0  0.44054  0.96994  0.04868  1.0000
  H   H975      1.0  0.40799  0.95113  0.02755  1.0000
  H   H976      1.0  0.45762  0.74481  0.08030  1.0000
  C   C1211     1.0  0.19049  0.86756  0.22712  1.0000
  C   C1212     1.0  0.48178  0.75067  0.08198  1.0000
  H   H977      1.0  0.37992  0.87196  0.99382  1.0000
  H   H978      1.0  0.39981  0.92379  0.23201  1.0000
  H   H979      1.0  0.43492  0.82920  0.98938  1.0000
  C   C1213     1.0  0.21229  0.89731  0.22868  1.0000
  C   C1214     1.0  0.47353  0.89022  0.00882  1.0000
  C   C1215     1.0  0.20553  0.79777  0.98786  1.0000
  H   H980      1.0  0.23708  0.97316  0.01076  1.0000
  H   H981      1.0  0.98762  0.95654  0.23213  1.0000
  P   P43       1.0  0.42469  0.97413  0.08138  1.0000
  H   H982      1.0  0.47718  0.70467  0.08107  1.0000
  C   C1216     1.0  0.46237  0.94497  0.07249  1.0000
  C   C1217     1.0  0.46119  0.97057  0.07879  1.0000
  H   H983      1.0  0.47250  0.88911  0.03345  1.0000
  C   C1218     1.0  0.31262  0.98802  0.09056  1.0000
  C   C1219     1.0  0.05016  0.66488  0.07518  1.0000
  H   H984      1.0  0.98546  0.95504  0.20391  1.0000
  C   C1220     1.0  0.99985  0.75873  0.07482  1.0000
  H   H985      1.0  0.28401  0.99410  0.02463  1.0000
  H   H986      1.0  0.99267  0.76191  0.06360  1.0000
  C   C1221     1.0  0.98766  0.70768  0.04980  1.0000
  C   C1222     1.0  0.23378  0.79688  0.98272  1.0000
  Fe  Fe87      1.0  0.26555  0.98244  0.30513  1.0000
  S   S175      1.0  0.30359  0.96654  0.30155  1.0000
  S   S176      1.0  0.21265  0.95265  0.30716  1.0000
  Fe  Fe88      1.0  0.07550  0.78031  0.30239  1.0000
  S   S177      1.0  0.06577  0.73030  0.30293  1.0000
  S   S178      1.0  0.12803  0.81252  0.29743  1.0000
  Fe  Fe89      1.0  0.03064  0.72095  0.32367  1.0000
  Fe  Fe90      1.0  0.02775  0.72567  0.28793  1.0000
  S   S179      1.0  0.02000  0.69622  0.26765  1.0000
  S   S180      1.0  0.04242  0.77141  0.32391  1.0000
  S   S181      1.0  0.03907  0.77590  0.28620  1.0000
  C   C1223     1.0  0.47283  0.80113  0.47052  1.0000
  S   S182      1.0  0.15447  0.80007  0.45292  1.0000
  Fe  Fe91      1.0  0.32916  0.69059  0.45317  1.0000
  S   S183      1.0  0.29260  0.68175  0.43672  1.0000
  S   S184      1.0  0.35486  0.74135  0.46037  1.0000
  H   H987      1.0  0.23687  0.66989  0.45810  1.0000
  H   H988      1.0  0.19570  0.73009  0.35399  1.0000
  C   C1224     1.0  0.17197  0.84812  0.24017  1.0000
  Fe  Fe92      1.0  0.44108  0.82030  0.35621  1.0000
  S   S185      1.0  0.45223  0.85802  0.37201  1.0000
  S   S186      1.0  0.38759  0.79603  0.35111  1.0000
  Fe  Fe93      1.0  0.47409  0.94019  0.42809  1.0000
  C   C1225     1.0  0.42992  0.72024  0.36118  1.0000
  S   S187      1.0  0.45919  0.80912  0.40881  1.0000
  H   H989      1.0  0.41383  0.85064  0.46938  1.0000
  S   S188      1.0  0.46332  0.79499  0.36965  1.0000
  H   H990      1.0  0.40728  0.80437  0.31529  1.0000
  S   S189      1.0  0.46130  0.98108  0.42837  1.0000
  H   H991      1.0  0.47024  0.96693  0.37186  1.0000
  S   S190      1.0  0.44155  0.88950  0.44034  1.0000
  C   C1226     1.0  0.13825  0.77206  0.35645  1.0000
  H   H992      1.0  0.08190  0.82899  0.43959  1.0000
  C   C1227     1.0  0.40800  0.69692  0.37176  1.0000
  C   C1228     1.0  0.13797  0.78278  0.25427  1.0000
  H   H993      1.0  0.34412  0.94082  0.43676  1.0000
  S   S191      1.0  0.23720  0.70221  0.36324  1.0000
  C   C1229     1.0  0.05594  0.83137  0.23733  1.0000
  C   C1230     1.0  0.34639  0.76754  0.35445  1.0000
  C   C1231     1.0  0.32358  0.77411  0.34752  1.0000
  C   C1232     1.0  0.29119  0.75393  0.35004  1.0000
  C   C1233     1.0  0.27977  0.72597  0.35963  1.0000
  C   C1234     1.0  0.30257  0.71873  0.36632  1.0000
  C   C1235     1.0  0.33530  0.73902  0.36364  1.0000
  H   H994      1.0  0.33106  0.79548  0.34027  1.0000
  H   H995      1.0  0.27470  0.76029  0.34462  1.0000
  H   H996      1.0  0.29509  0.69743  0.37370  1.0000
  H   H997      1.0  0.35197  0.73229  0.36868  1.0000
  C   C1236     1.0  0.37483  0.72150  0.40175  1.0000
  C   C1237     1.0  0.37579  0.75028  0.39717  1.0000
  C   C1238     1.0  0.40170  0.77714  0.39934  1.0000
  C   C1239     1.0  0.42630  0.77538  0.40665  1.0000
  C   C1240     1.0  0.42545  0.74664  0.41120  1.0000
  C   C1241     1.0  0.39991  0.71980  0.40865  1.0000
  H   H998      1.0  0.35640  0.75197  0.39211  1.0000
  H   H999      1.0  0.40241  0.79928  0.39558  1.0000
  H   H1000     1.0  0.44485  0.74503  0.41626  1.0000
  H   H1001     1.0  0.39988  0.69776  0.41183  1.0000
  C   C1242     1.0  0.37842  0.78236  0.45367  1.0000
  C   C1243     1.0  0.38820  0.80357  0.46471  1.0000
  C   C1244     1.0  0.40669  0.83549  0.46045  1.0000
  C   C1245     1.0  0.41658  0.84801  0.44491  1.0000
  C   C1246     1.0  0.40640  0.82698  0.43374  1.0000
  C   C1247     1.0  0.38751  0.79477  0.43806  1.0000
  H   H1002     1.0  0.41362  0.83536  0.42166  1.0000
  H   H1003     1.0  0.38041  0.77940  0.42924  1.0000
  C   C1248     1.0  0.14297  0.76676  0.44280  1.0000
  C   C1249     1.0  0.11463  0.74103  0.44689  1.0000
  C   C1250     1.0  0.10663  0.71526  0.43851  1.0000
  C   C1251     1.0  0.12695  0.71457  0.42607  1.0000
  C   C1252     1.0  0.15538  0.74027  0.42201  1.0000
  C   C1253     1.0  0.16316  0.76624  0.43024  1.0000
  H   H1004     1.0  0.09891  0.74089  0.45656  1.0000
  H   H1005     1.0  0.08471  0.69543  0.44183  1.0000
  H   H1006     1.0  0.17132  0.74007  0.41255  1.0000
  H   H1007     1.0  0.18503  0.78603  0.42687  1.0000
  C   C1254     1.0  0.02004  0.70270  0.44904  1.0000
  C   C1255     1.0  0.19593  0.88939  0.25610  1.0000
  H   H1008     1.0  0.30075  0.79356  0.29888  1.0000
  S   S192      1.0  0.03498  0.69215  0.34491  1.0000
  C   C1256     1.0  0.21783  0.88340  0.45379  1.0000
  C   C1257     1.0  0.02489  0.70617  0.24727  1.0000
  C   C1258     1.0  0.11631  0.74192  0.36082  1.0000
  C   C1259     1.0  0.11466  0.67841  0.24754  1.0000
  H   H1009     1.0  0.19735  0.79002  0.38838  1.0000
  C   C1260     1.0  0.18983  0.91334  0.30471  1.0000
  C   C1261     1.0  0.15708  0.90129  0.30782  1.0000
  C   C1262     1.0  0.13784  0.87047  0.30593  1.0000
  C   C1263     1.0  0.15108  0.85122  0.30078  1.0000
  C   C1264     1.0  0.18386  0.86315  0.29779  1.0000
  C   C1265     1.0  0.20315  0.89393  0.29980  1.0000
  H   H1010     1.0  0.14646  0.91600  0.31164  1.0000
  H   H1011     1.0  0.11273  0.86175  0.30826  1.0000
  H   H1012     1.0  0.19435  0.84851  0.29375  1.0000
  H   H1013     1.0  0.22825  0.90273  0.29742  1.0000
  C   C1266     1.0  0.48016  0.71412  0.42948  1.0000
  C   C1267     1.0  0.03926  0.78601  0.41306  1.0000
  H   H1014     1.0  0.44065  0.91279  0.36787  1.0000
  H   H1015     1.0  0.99078  0.79961  0.26379  1.0000
  H   H1016     1.0  0.12067  0.81213  0.42793  1.0000
  C   C1268     1.0  0.35639  0.88676  0.34432  1.0000
  C   C1269     1.0  0.36057  0.86841  0.35619  1.0000
  C   C1270     1.0  0.33542  0.84161  0.36283  1.0000
  C   C1271     1.0  0.30588  0.83352  0.35788  1.0000
  C   C1272     1.0  0.30114  0.85228  0.34627  1.0000
  C   C1273     1.0  0.32700  0.87837  0.33911  1.0000
  P   P44       1.0  0.26315  0.84073  0.33931  1.0000
  C   C1274     1.0  0.26686  0.83101  0.31991  1.0000
  C   C1275     1.0  0.23529  0.80783  0.35183  1.0000
  H   H1017     1.0  0.07750  0.71140  0.40378  1.0000
  C   C1276     1.0  0.22537  0.81196  0.36670  1.0000
  C   C1277     1.0  0.25263  0.83996  0.30818  1.0000
  C   C1278     1.0  0.25570  0.83215  0.29323  1.0000
  C   C1279     1.0  0.27301  0.81543  0.28986  1.0000
  C   C1280     1.0  0.28738  0.80659  0.30144  1.0000
  C   C1281     1.0  0.28441  0.81443  0.31639  1.0000
  C   C1282     1.0  0.24751  0.86920  0.33960  1.0000
  C   C1283     1.0  0.26662  0.90034  0.34029  1.0000
  C   C1284     1.0  0.25381  0.92173  0.34032  1.0000
  C   C1285     1.0  0.22186  0.91232  0.33959  1.0000
  C   C1286     1.0  0.20264  0.88144  0.33878  1.0000
  C   C1287     1.0  0.21536  0.85996  0.33880  1.0000
  H   H1018     1.0  0.37602  0.90747  0.33908  1.0000
  H   H1019     1.0  0.38341  0.87444  0.36006  1.0000
  H   H1020     1.0  0.33906  0.82656  0.37150  1.0000
  H   H1021     1.0  0.28722  0.81198  0.36279  1.0000
  H   H1022     1.0  0.32468  0.89216  0.32940  1.0000
  H   H1023     1.0  0.40082  0.94677  0.37856  1.0000
  H   H1024     1.0  0.23386  0.83464  0.37044  1.0000
  H   H1025     1.0  0.23925  0.85306  0.31044  1.0000
  H   H1026     1.0  0.24464  0.83915  0.28426  1.0000
  H   H1027     1.0  0.27532  0.80934  0.27828  1.0000
  C   C1288     1.0  0.00940  0.79511  0.36480  1.0000
  H   H1028     1.0  0.29559  0.80735  0.32525  1.0000
  H   H1029     1.0  0.29137  0.90856  0.34078  1.0000
  H   H1030     1.0  0.26884  0.94575  0.34068  1.0000
  H   H1031     1.0  0.21212  0.92910  0.33916  1.0000
  H   H1032     1.0  0.17805  0.87438  0.33759  1.0000
  H   H1033     1.0  0.20020  0.83625  0.33775  1.0000
  H   H1034     1.0  0.23122  0.77412  0.33587  1.0000
  C   C1289     1.0  0.13415  0.67945  0.25894  1.0000
  C   C1290     1.0  0.48149  0.78474  0.44109  1.0000
  C   C1291     1.0  0.45214  0.77073  0.44972  1.0000
  C   C1292     1.0  0.44785  0.77877  0.46446  1.0000
  C   C1293     1.0  0.46146  0.72600  0.36053  1.0000
  C   C1294     1.0  0.39931  0.96511  0.37141  1.0000
  H   H1035     1.0  0.21378  0.79526  0.45208  1.0000
  C   C1295     1.0  0.29166  0.76185  0.45169  1.0000
  H   H1036     1.0  0.09452  0.69913  0.33400  1.0000
  Fe  Fe94      1.0  0.13152  0.81096  0.47449  1.0000
  C   C1296     1.0  0.07623  0.81463  0.43021  1.0000
  H   H1037     1.0  0.45414  0.70581  0.45189  1.0000
  H   H1038     1.0  0.26754  0.94483  0.46987  1.0000
  H   H1039     1.0  0.38374  0.69330  0.37262  1.0000
  C   C1297     1.0  0.39393  0.98051  0.46164  1.0000
  C   C1298     1.0  0.99164  0.77204  0.35610  1.0000
  C   C1299     1.0  0.44414  0.92184  0.34312  1.0000
  C   C1300     1.0  0.38135  0.95979  0.45087  1.0000
  C   C1301     1.0  0.42374  0.94479  0.30240  1.0000
  C   C1302     1.0  0.33818  0.97457  0.45004  1.0000
  C   C1303     1.0  0.37587  0.95837  0.36135  1.0000
  H   H1040     1.0  0.48394  0.89326  0.30754  1.0000
  C   C1304     1.0  0.41351  0.93401  0.28837  1.0000
  C   C1305     1.0  0.39044  0.94049  0.28197  1.0000
  C   C1306     1.0  0.10266  0.68439  0.32808  1.0000
  H   H1041     1.0  0.15908  0.69323  0.25655  1.0000
  C   C1307     1.0  0.41026  0.96184  0.31003  1.0000
  C   C1308     1.0  0.43811  0.89322  0.31121  1.0000
  C   C1309     1.0  0.40592  0.87443  0.31414  1.0000
  C   C1310     1.0  0.39489  0.84254  0.31544  1.0000
  C   C1311     1.0  0.41582  0.82912  0.31366  1.0000
  H   H1042     1.0  0.30980  0.76035  0.44394  1.0000
  H   H1043     1.0  0.26858  0.97211  0.41481  1.0000
  C   C1312     1.0  0.03830  0.66855  0.41117  1.0000
  C   C1313     1.0  0.45570  0.94447  0.33042  1.0000
  C   C1314     1.0  0.13454  0.79623  0.36292  1.0000
  H   H1044     1.0  0.43269  0.89777  0.34160  1.0000
  C   C1315     1.0  0.00941  0.73716  0.36895  1.0000
  H   H1045     1.0  0.28839  0.72969  0.39686  1.0000
  H   H1046     1.0  0.42313  0.92026  0.28248  1.0000
  H   H1047     1.0  0.38257  0.93223  0.27114  1.0000
  H   H1048     1.0  0.07288  0.71258  0.37400  1.0000
  C   C1316     1.0  0.08682  0.75993  0.37823  1.0000
  C   C1317     1.0  0.47129  0.97542  0.33294  1.0000
  H   H1049     1.0  0.38935  0.88434  0.31585  1.0000
  H   H1050     1.0  0.37021  0.82810  0.31837  1.0000
  C   C1318     1.0  0.02714  0.78920  0.37563  1.0000
  C   C1319     1.0  0.23669  0.81403  0.44922  1.0000
  C   C1320     1.0  0.24874  0.83560  0.45961  1.0000
  C   C1321     1.0  0.27808  0.86001  0.45587  1.0000
  C   C1322     1.0  0.29527  0.86308  0.44165  1.0000
  C   C1323     1.0  0.28303  0.84176  0.43099  1.0000
  C   C1324     1.0  0.25393  0.81675  0.43509  1.0000
  P   P45       1.0  0.30214  0.84777  0.41156  1.0000
  C   C1325     1.0  0.29831  0.81065  0.40661  1.0000
  C   C1326     1.0  0.28320  0.86405  0.39876  1.0000
  C   C1327     1.0  0.25190  0.85899  0.40233  1.0000
  C   C1328     1.0  0.23877  0.87467  0.39335  1.0000
  C   C1329     1.0  0.25671  0.89540  0.38069  1.0000
  C   C1330     1.0  0.28756  0.89994  0.37680  1.0000
  C   C1331     1.0  0.30059  0.88395  0.38560  1.0000
  C   C1332     1.0  0.31342  0.79530  0.41445  1.0000
  C   C1333     1.0  0.31015  0.76640  0.41077  1.0000
  C   C1334     1.0  0.29085  0.75211  0.39968  1.0000
  C   C1335     1.0  0.27483  0.76672  0.39222  1.0000
  C   C1336     1.0  0.27851  0.79587  0.39568  1.0000
  C   C1337     1.0  0.34230  0.87597  0.41040  1.0000
  C   C1338     1.0  0.34817  0.90688  0.41134  1.0000
  C   C1339     1.0  0.37872  0.92950  0.40997  1.0000
  C   C1340     1.0  0.40365  0.92154  0.40753  1.0000
  C   C1341     1.0  0.39827  0.89108  0.40636  1.0000
  C   C1342     1.0  0.36770  0.86834  0.40759  1.0000
  H   H1051     1.0  0.41693  0.96985  0.32106  1.0000
  C   C1343     1.0  0.09113  0.81785  0.25168  1.0000
  C   C1344     1.0  0.43231  0.66908  0.43799  1.0000
  H   H1052     1.0  0.31785  0.88221  0.43910  1.0000
  H   H1053     1.0  0.24406  0.79977  0.42717  1.0000
  H   H1054     1.0  0.23757  0.84332  0.41211  1.0000
  H   H1055     1.0  0.21471  0.87090  0.39626  1.0000
  H   H1056     1.0  0.24666  0.90783  0.37385  1.0000
  H   H1057     1.0  0.30164  0.91621  0.36707  1.0000
  H   H1058     1.0  0.32460  0.88791  0.38235  1.0000
  H   H1059     1.0  0.32796  0.80569  0.42334  1.0000
  H   H1060     1.0  0.32272  0.75502  0.41644  1.0000
  H   H1061     1.0  0.47553  0.96721  0.27941  1.0000
  H   H1062     1.0  0.25969  0.75537  0.38370  1.0000
  H   H1063     1.0  0.26580  0.80667  0.38983  1.0000
  H   H1064     1.0  0.32906  0.91359  0.41292  1.0000
  H   H1065     1.0  0.38337  0.95339  0.41039  1.0000
  H   H1066     1.0  0.42712  0.93929  0.40616  1.0000
  H   H1067     1.0  0.41789  0.88510  0.40446  1.0000
  H   H1068     1.0  0.36452  0.84524  0.40610  1.0000
  H   H1069     1.0  0.12766  0.72203  0.28838  1.0000
  S   S193      1.0  0.11768  0.85030  0.47232  1.0000
  P   P46       1.0  0.30545  0.97427  0.44048  1.0000
  C   C1345     1.0  0.37357  0.98162  0.35159  1.0000
  C   C1346     1.0  0.44900  0.68422  0.38074  1.0000
  H   H1070     1.0  0.09175  0.75122  0.24996  1.0000
  H   H1071     1.0  0.37870  0.99392  0.23376  1.0000
  H   H1072     1.0  0.18473  0.68745  0.42354  1.0000
  C   C1347     1.0  0.19426  0.75731  0.37231  1.0000
  H   H1073     1.0  0.15907  0.84568  0.26474  1.0000
  C   C1348     1.0  0.45901  0.87955  0.30938  1.0000
  Fe  Fe95      1.0  0.47474  0.83242  0.38492  1.0000
  C   C1349     1.0  0.09072  0.78635  0.41166  1.0000
  H   H1074     1.0  0.37673  0.98127  0.30953  1.0000
  H   H1075     1.0  0.24742  0.97828  0.45372  1.0000
  C   C1350     1.0  0.05227  0.69937  0.40508  1.0000
  C   C1351     1.0  0.23719  0.74882  0.45923  1.0000
  C   C1352     1.0  0.38716  0.96820  0.30359  1.0000
  C   C1353     1.0  0.10742  0.81673  0.23783  1.0000
  H   H1076     1.0  0.35912  0.96222  0.28472  1.0000
  H   H1077     1.0  0.15781  0.77666  0.34789  1.0000
  C   C1354     1.0  0.17430  0.85958  0.25462  1.0000
  C   C1355     1.0  0.06557  0.82529  0.25139  1.0000
  C   C1356     1.0  0.27629  0.77723  0.47566  1.0000
  H   H1078     1.0  0.23496  0.83379  0.47038  1.0000
  H   H1079     1.0  0.21893  0.89728  0.47658  1.0000
  C   C1357     1.0  0.23078  0.90278  0.46498  1.0000
  C   C1358     1.0  0.37717  0.95743  0.28963  1.0000
  C   C1359     1.0  0.20487  0.78680  0.37689  1.0000
  C   C1360     1.0  0.06147  0.77721  0.40606  1.0000
  H   H1080     1.0  0.47864  0.74484  0.35271  1.0000
  C   C1361     1.0  0.22404  0.77818  0.34721  1.0000
  C   C1362     1.0  0.25825  0.92960  0.46111  1.0000
  H   H1081     1.0  0.17873  0.73771  0.38027  1.0000
  P   P47       1.0  0.45201  0.93431  0.31094  1.0000
  H   H1082     1.0  0.22313  0.87448  0.43031  1.0000
  S   S194      1.0  0.99154  0.71236  0.30878  1.0000
  H   H1083     1.0  0.41614  0.98382  0.46564  1.0000
  H   H1084     1.0  0.15121  0.81963  0.35934  1.0000
  H   H1085     1.0  0.10569  0.80923  0.37825  1.0000
  H   H1086     1.0  0.38164  0.79519  0.47680  1.0000
  H   H1087     1.0  0.15446  0.71685  0.46419  1.0000
  H   H1088     1.0  0.32358  0.78546  0.46731  1.0000
  C   C1363     1.0  0.03380  0.71385  0.40002  1.0000
  S   S195      1.0  0.34219  0.97138  0.33971  1.0000
  C   C1364     1.0  0.27263  0.93745  0.44584  1.0000
  C   C1365     1.0  0.10881  0.79023  0.37370  1.0000
  H   H1089     1.0  0.03498  0.75383  0.24800  1.0000
  H   H1090     1.0  0.04588  0.77549  0.45902  1.0000
  C   C1366     1.0  0.46512  0.96079  0.36039  1.0000
  C   C1367     1.0  0.29248  0.97853  0.41000  1.0000
  C   C1368     1.0  0.15849  0.76552  0.27580  1.0000
  C   C1369     1.0  0.20369  0.75305  0.35746  1.0000
  C   C1370     1.0  0.13047  0.68296  0.33133  1.0000
  C   C1371     1.0  0.26054  0.91675  0.43486  1.0000
  C   C1372     1.0  0.21513  0.90815  0.24317  1.0000
  P   P48       1.0  0.05190  0.75272  0.39072  1.0000
  C   C1373     1.0  0.09812  0.80522  0.42360  1.0000
  H   H1091     1.0  0.04166  0.80766  0.38183  1.0000
  C   C1374     1.0  0.21577  0.67109  0.45487  1.0000
  C   C1375     1.0  0.16225  0.78734  0.26351  1.0000
  H   H1092     1.0  0.02956  0.81162  0.43044  1.0000
  C   C1376     1.0  0.09041  0.73592  0.37143  1.0000
  C   C1377     1.0  0.04673  0.80483  0.42503  1.0000
  H   H1093     1.0  0.11881  0.72308  0.35578  1.0000
  H   H1094     1.0  0.05369  0.74621  0.43794  1.0000
  H   H1095     1.0  0.10768  0.77855  0.40700  1.0000
  C   C1378     1.0  0.02683  0.75997  0.37797  1.0000
  H   H1096     1.0  0.35935  0.93488  0.36119  1.0000
  C   C1379     1.0  0.33096  0.84984  0.47661  1.0000
  H   H1097     1.0  0.23283  0.68374  0.43068  1.0000
  H   H1098     1.0  0.18391  0.80782  0.26141  1.0000
  Fe  Fe96      1.0  0.00507  0.76314  0.30774  1.0000
  C   C1380     1.0  0.23298  0.89007  0.43881  1.0000
  C   C1381     1.0  0.47108  0.70837  0.37039  1.0000
  H   H1099     1.0  0.19621  0.86299  0.45679  1.0000
  C   C1382     1.0  0.26068  0.74888  0.44856  1.0000
  C   C1383     1.0  0.13088  0.73867  0.27867  1.0000
  C   C1384     1.0  0.03268  0.75083  0.45978  1.0000
  H   H1100     1.0  0.42256  0.73458  0.35392  1.0000
  C   C1385     1.0  0.10712  0.73353  0.26918  1.0000
  C   C1386     1.0  0.03696  0.73445  0.44791  1.0000
  H   H1101     1.0  0.21305  0.73796  0.45691  1.0000
  C   C1387     1.0  0.35329  0.95644  0.44530  1.0000
  H   H1102     1.0  0.27196  0.92109  0.42323  1.0000
  H   H1103     1.0  0.43235  0.75455  0.44471  1.0000
  H   H1104     1.0  0.39374  0.94680  0.44663  1.0000
  H   H1105     1.0  0.25499  0.73858  0.43792  1.0000
  C   C1388     1.0  0.44781  0.84760  0.31049  1.0000
  P   P49       1.0  0.14231  0.81038  0.23825  1.0000
  C   C1389     1.0  0.29945  0.77617  0.46506  1.0000
  H   H1106     1.0  0.01615  0.77819  0.40934  1.0000
  C   C1390     1.0  0.14749  0.71460  0.47645  1.0000
  C   C1391     1.0  0.21360  0.67901  0.43947  1.0000
  C   C1392     1.0  0.11056  0.75551  0.25707  1.0000
  H   H1107     1.0  0.08571  0.71269  0.27136  1.0000
  C   C1393     1.0  0.99910  0.68724  0.46213  1.0000
  H   H1108     1.0  0.17668  0.76971  0.28332  1.0000
  H   H1109     1.0  0.48070  0.99323  0.32334  1.0000
  C   C1394     1.0  0.45552  0.69710  0.44089  1.0000
  C   C1395     1.0  0.02123  0.68324  0.23742  1.0000
  H   H1110     1.0  0.14016  0.67416  0.44315  1.0000
  C   C1396     1.0  0.03239  0.73596  0.24065  1.0000
  C   C1397     1.0  0.98728  0.66681  0.40825  1.0000
  H   H1111     1.0  0.06278  0.66710  0.31572  1.0000
  H   H1112     1.0  0.46917  0.80803  0.48175  1.0000
  C   C1398     1.0  0.44865  0.93012  0.35807  1.0000
  H   H1113     1.0  0.02363  0.69010  0.43984  1.0000
  C   C1399     1.0  0.00110  0.69765  0.40218  1.0000
  S   S196      1.0  0.34199  0.68768  0.39934  1.0000
  H   H1114     1.0  0.28716  0.87701  0.46386  1.0000
  H   H1115     1.0  0.42486  0.76827  0.47094  1.0000
  H   H1116     1.0  0.16280  0.76324  0.47685  1.0000
  H   H1117     1.0  0.43877  0.97204  0.23951  1.0000
  H   H1118     1.0  0.05339  0.82662  0.26211  1.0000
  H   H1119     1.0  0.09850  0.81352  0.26270  1.0000
  H   H1120     1.0  0.19744  0.89814  0.26726  1.0000
  H   H1121     1.0  0.46402  0.83709  0.30947  1.0000
  H   H1122     1.0  0.14392  0.69661  0.33977  1.0000
  C   C1400     1.0  0.47586  0.98351  0.34791  1.0000
  C   C1401     1.0  0.99499  0.70340  0.47421  1.0000
  C   C1402     1.0  0.18646  0.68074  0.43538  1.0000
  H   H1123     1.0  0.03606  0.83698  0.23715  1.0000
  H   H1124     1.0  0.01015  0.71496  0.36993  1.0000
  H   H1125     1.0  0.00919  0.74830  0.48212  1.0000
  S   S197      1.0  0.11580  0.68066  0.41646  1.0000
  S   S198      1.0  0.14184  0.67306  0.37314  1.0000
  C   C1403     1.0  0.31568  0.98180  0.41977  1.0000
  C   C1404     1.0  0.34673  0.99178  0.41323  1.0000
  H   H1126     1.0  0.12438  0.69142  0.23634  1.0000
  S   S199      1.0  0.35788  0.67191  0.43933  1.0000
  H   H1127     1.0  0.01003  0.81779  0.36285  1.0000
  C   C1405     1.0  0.41751  0.67921  0.38164  1.0000
  C   C1406     1.0  0.16099  0.67289  0.44650  1.0000
  H   H1128     1.0  0.23180  0.93130  0.24437  1.0000
  C   C1407     1.0  0.99166  0.74307  0.35819  1.0000
  H   H1129     1.0  0.98625  0.70842  0.39871  1.0000
  C   C1408     1.0  0.01174  0.73537  0.47287  1.0000
  C   C1409     1.0  0.45866  0.67485  0.41226  1.0000
  Fe  Fe97      1.0  0.47578  0.98895  0.40263  1.0000
  H   H1130     1.0  0.13700  0.66422  0.28210  1.0000
  H   H1131     1.0  0.33773  0.83583  0.46937  1.0000
  H   H1132     1.0  0.36620  0.89158  0.46436  1.0000
  C   C1410     1.0  0.24488  0.76289  0.47278  1.0000
  C   C1411     1.0  0.48141  0.70331  0.41513  1.0000
  C   C1412     1.0  0.29987  0.98297  0.39396  1.0000
  H   H1133     1.0  0.28178  0.97974  0.38646  1.0000
  Fe  Fe98      1.0  0.32619  0.99515  0.32046  1.0000
  C   C1413     1.0  0.08468  0.66613  0.31754  1.0000
  C   C1414     1.0  0.34737  0.88171  0.47372  1.0000
  C   C1415     1.0  0.42056  0.99545  0.37224  1.0000
  C   C1416     1.0  0.33062  0.99156  0.38757  1.0000
  C   C1417     1.0  0.37785  0.99701  0.46725  1.0000
  C   C1418     1.0  0.34987  0.99381  0.46164  1.0000
  H   H1134     1.0  0.35253  0.92540  0.48081  1.0000
  H   H1135     1.0  0.22627  0.76251  0.48085  1.0000
  H   H1136     1.0  0.48399  0.77913  0.42949  1.0000
  C   C1419     1.0  0.35408  0.99644  0.39722  1.0000
  H   H1137     1.0  0.33633  0.99464  0.37515  1.0000
  H   H1138     1.0  0.36547  0.99617  0.42036  1.0000
  Fe  Fe99      1.0  0.18583  0.66405  0.37276  1.0000
  Fe  Fe100     1.0  0.11531  0.80186  0.50994  1.0000
  S   S200      1.0  0.09982  0.84017  0.51002  1.0000
  S   S201      1.0  0.11268  0.76803  0.53030  1.0000
  H   H1139     1.0  0.28313  0.84678  0.50846  1.0000
  Fe  Fe101     1.0  0.14320  0.86638  0.49312  1.0000
  H   H1140     1.0  0.01385  0.74771  0.51345  1.0000
  S   S202      1.0  0.28211  0.85982  0.73169  1.0000
  H   H1141     1.0  0.44495  0.97599  0.69936  1.0000
  S   S203      1.0  0.15999  0.82903  0.49421  1.0000
  S   S204      1.0  0.08820  0.78114  0.49025  1.0000
  Fe  Fe102     1.0  0.10537  0.69346  0.64189  1.0000
  S   S205      1.0  0.06840  0.70415  0.63113  1.0000
  Fe  Fe103     1.0  0.13354  0.75455  0.65558  1.0000
  S   S206      1.0  0.09927  0.77005  0.64593  1.0000
  S   S207      1.0  0.17713  0.78410  0.66636  1.0000
  Fe  Fe104     1.0  0.06300  0.72228  0.65385  1.0000
  S   S208      1.0  0.01665  0.72152  0.66361  1.0000
  Fe  Fe105     1.0  0.10665  0.75138  0.62380  1.0000
  S   S209      1.0  0.11277  0.78444  0.60234  1.0000
  S   S210      1.0  0.09693  0.70800  0.66521  1.0000
  S   S211      1.0  0.14385  0.73959  0.63287  1.0000
  C   C1420     1.0  0.02959  0.77269  0.60611  1.0000
  H   H1142     1.0  0.07992  0.93382  0.56113  1.0000
  H   H1143     1.0  0.19868  0.70440  0.72675  1.0000
  C   C1421     1.0  0.17994  0.79027  0.68603  1.0000
  C   C1422     1.0  0.15352  0.78046  0.69682  1.0000
  C   C1423     1.0  0.15681  0.78728  0.71219  1.0000
  C   C1424     1.0  0.18637  0.80423  0.71687  1.0000
  C   C1425     1.0  0.21282  0.81350  0.70614  1.0000
  C   C1426     1.0  0.20960  0.80640  0.69083  1.0000
  H   H1144     1.0  0.13060  0.76823  0.69323  1.0000
  H   H1145     1.0  0.13632  0.78001  0.72041  1.0000
  H   H1146     1.0  0.23572  0.82648  0.70957  1.0000
  H   H1147     1.0  0.23022  0.81383  0.68263  1.0000
  H   H1148     1.0  0.33936  0.72579  0.50011  1.0000
  C   C1427     1.0  0.38800  0.97177  0.53279  1.0000
  C   C1428     1.0  0.14236  0.73870  0.49920  1.0000
  H   H1149     1.0  0.99598  0.85892  0.54181  1.0000
  C   C1429     1.0  0.35771  0.94836  0.70256  1.0000
  H   H1150     1.0  0.35048  0.92541  0.70815  1.0000
  H   H1151     1.0  0.39454  0.94670  0.68708  1.0000
  H   H1152     1.0  0.20504  0.87081  0.58075  1.0000
  H   H1153     1.0  0.33834  0.82462  0.51195  1.0000
  C   C1430     1.0  0.11195  0.77293  0.55030  1.0000
  C   C1431     1.0  0.11548  0.80070  0.55572  1.0000
  C   C1432     1.0  0.11527  0.80363  0.57168  1.0000
  C   C1433     1.0  0.11167  0.77894  0.58242  1.0000
  C   C1434     1.0  0.10787  0.75109  0.57700  1.0000
  C   C1435     1.0  0.10803  0.74816  0.56103  1.0000
  H   H1154     1.0  0.11879  0.82002  0.54761  1.0000
  H   H1155     1.0  0.11822  0.82527  0.57573  1.0000
  H   H1156     1.0  0.10513  0.73194  0.58510  1.0000
  H   H1157     1.0  0.10531  0.72657  0.55699  1.0000
  C   C1436     1.0  0.12337  0.68348  0.50080  1.0000
  Fe  Fe106     1.0  0.07560  0.82157  0.48928  1.0000
  H   H1158     1.0  0.04681  0.78063  0.55596  1.0000
  C   C1437     1.0  0.21197  0.94088  0.49617  1.0000
  C   C1438     1.0  0.23111  0.92811  0.50211  1.0000
  C   C1439     1.0  0.26237  0.94711  0.50406  1.0000
  C   C1440     1.0  0.33861  0.74699  0.50304  1.0000
  C   C1441     1.0  0.00113  0.84301  0.50188  1.0000
  C   C1442     1.0  0.34204  0.96597  0.70711  1.0000
  H   H1159     1.0  0.31087  0.90270  0.50264  1.0000
  C   C1443     1.0  0.30020  0.85598  0.49841  1.0000
  C   C1444     1.0  0.22068  0.75197  0.53019  1.0000
  H   H1160     1.0  0.03353  0.88517  0.56900  1.0000
  C   C1445     1.0  0.23508  0.89835  0.62463  1.0000
  C   C1446     1.0  0.22142  0.86654  0.62443  1.0000
  C   C1447     1.0  0.22362  0.84764  0.63667  1.0000
  C   C1448     1.0  0.23941  0.86048  0.64912  1.0000
  C   C1449     1.0  0.25283  0.89239  0.64956  1.0000
  C   C1450     1.0  0.25062  0.91128  0.63717  1.0000
  P   P50       1.0  0.27212  0.90843  0.66610  1.0000
  C   C1451     1.0  0.29748  0.89027  0.67068  1.0000
  C   C1452     1.0  0.29496  0.94930  0.66176  1.0000
  C   C1453     1.0  0.27987  0.96898  0.66168  1.0000
  C   C1454     1.0  0.22424  0.92017  0.57910  1.0000
  C   C1455     1.0  0.07728  0.85828  0.54706  1.0000
  H   H1161     1.0  0.98778  0.70153  0.62957  1.0000
  C   C1456     1.0  0.32761  0.96184  0.65848  1.0000
  C   C1457     1.0  0.31367  0.88273  0.65875  1.0000
  C   C1458     1.0  0.33353  0.86886  0.66217  1.0000
  C   C1459     1.0  0.33736  0.86244  0.67750  1.0000
  C   C1460     1.0  0.32140  0.86994  0.68943  1.0000
  C   C1461     1.0  0.30159  0.88388  0.68606  1.0000
  C   C1462     1.0  0.24409  0.90207  0.68264  1.0000
  C   C1463     1.0  0.25299  0.92039  0.69481  1.0000
  C   C1464     1.0  0.23261  0.91403  0.70829  1.0000
  C   C1465     1.0  0.99681  0.82346  0.49027  1.0000
  C   C1466     1.0  0.10446  0.91315  0.54773  1.0000
  C   C1467     1.0  0.21413  0.87785  0.68402  1.0000
  H   H1162     1.0  0.23334  0.91296  0.61512  1.0000
  H   H1163     1.0  0.20885  0.85640  0.61489  1.0000
  H   H1164     1.0  0.21263  0.82290  0.63668  1.0000
  H   H1165     1.0  0.24061  0.84535  0.65853  1.0000
  H   H1166     1.0  0.26076  0.93590  0.63709  1.0000
  H   H1167     1.0  0.12045  0.70848  0.52002  1.0000
  H   H1168     1.0  0.12316  0.88636  0.53527  1.0000
  C   C1468     1.0  0.14819  0.68046  0.69197  1.0000
  C   C1469     1.0  0.15206  0.74099  0.48354  1.0000
  H   H1169     1.0  0.34012  0.94749  0.65882  1.0000
  H   H1170     1.0  0.31110  0.88772  0.64680  1.0000
  H   H1171     1.0  0.34599  0.86314  0.65291  1.0000
  H   H1172     1.0  0.35273  0.85171  0.68015  1.0000
  H   H1173     1.0  0.32441  0.86507  0.70133  1.0000
  H   H1174     1.0  0.28975  0.88967  0.69553  1.0000
  H   H1175     1.0  0.27615  0.93892  0.69415  1.0000
  H   H1176     1.0  0.27534  0.98285  0.54246  1.0000
  H   H1177     1.0  0.20655  0.86299  0.67500  1.0000
  H   H1178     1.0  0.07031  0.71461  0.51516  1.0000
  H   H1179     1.0  0.06323  0.77184  0.67590  1.0000
  P   P51       1.0  0.05288  0.73942  0.73164  1.0000
  H   H1180     1.0  0.27701  0.93696  0.50855  1.0000
  H   H1181     1.0  0.37861  0.80975  0.52108  1.0000
  H   H1182     1.0  0.98973  0.73347  0.60092  1.0000
  H   H1183     1.0  0.04254  0.73466  0.69913  1.0000
  H   H1184     1.0  0.21625  0.73453  0.53969  1.0000
  C   C1470     1.0  0.00504  0.75737  0.59751  1.0000
  H   H1185     1.0  0.07718  0.83757  0.54302  1.0000
  C   C1471     1.0  0.99539  0.79506  0.53503  1.0000
  C   C1472     1.0  0.04579  0.69888  0.51633  1.0000
  C   C1473     1.0  0.33800  0.80280  0.50945  1.0000
  C   C1474     1.0  0.36198  0.96445  0.55865  1.0000
  H   H1186     1.0  0.23540  0.81377  0.49611  1.0000
  C   C1475     1.0  0.46958  0.98151  0.69940  1.0000
  H   H1187     1.0  0.47942  0.88511  0.73057  1.0000
  H   H1188     1.0  0.04580  0.74896  0.53493  1.0000
  H   H1189     1.0  0.26281  0.74995  0.52077  1.0000
  H   H1190     1.0  0.12472  0.93459  0.54417  1.0000
  C   C1476     1.0  0.07184  0.70106  0.71533  1.0000
  H   H1191     1.0  0.22186  0.90361  0.50514  1.0000
  C   C1477     1.0  0.20562  0.78810  0.51654  1.0000
  H   H1192     1.0  0.15005  0.70362  0.69233  1.0000
  C   C1478     1.0  0.31548  0.75509  0.49795  1.0000
  C   C1479     1.0  0.20002  0.76569  0.52879  1.0000
  C   C1480     1.0  0.00095  0.77265  0.58426  1.0000
  H   H1193     1.0  0.39892  0.95072  0.55262  1.0000
  H   H1194     1.0  0.04684  0.67762  0.53860  1.0000
  H   H1195     1.0  0.14554  0.75918  0.50456  1.0000
  H   H1196     1.0  0.09026  0.72176  0.70931  1.0000
  C   C1481     1.0  0.22594  0.89211  0.57806  1.0000
  H   H1197     1.0  0.01877  0.67155  0.68343  1.0000
  H   H1198     1.0  0.25475  0.95980  0.66436  1.0000
  H   H1199     1.0  0.25585  0.86969  0.57274  1.0000
  C   C1482     1.0  0.09067  0.80946  0.68810  1.0000
  C   C1483     1.0  0.34733  0.98919  0.53763  1.0000
  C   C1484     1.0  0.27994  0.94725  0.57071  1.0000
  C   C1485     1.0  0.03186  0.77953  0.54699  1.0000
  C   C1486     1.0  0.08762  0.79791  0.71574  1.0000
  C   C1487     1.0  0.05285  0.88506  0.56160  1.0000
  H   H1200     1.0  0.17961  0.75902  0.53717  1.0000
  C   C1488     1.0  0.27485  0.97910  0.50029  1.0000
  C   C1489     1.0  0.99484  0.74056  0.72916  1.0000
  C   C1490     1.0  0.38272  0.96053  0.69069  1.0000
  C   C1491     1.0  0.23171  0.79667  0.50563  1.0000
  H   H1201     1.0  0.10001  0.82556  0.67778  1.0000
  C   C1492     1.0  0.05842  0.75808  0.70023  1.0000
  C   C1493     1.0  0.19381  0.87159  0.69753  1.0000
  H   H1202     1.0  0.18960  0.79878  0.51558  1.0000
  C   C1494     1.0  0.06736  0.76717  0.71470  1.0000
  C   C1495     1.0  0.07918  0.91269  0.55724  1.0000
  C   C1496     1.0  0.33985  0.90071  0.48299  1.0000
  C   C1497     1.0  0.02742  0.69995  0.50472  1.0000
  C   C1498     1.0  0.07009  0.77913  0.68702  1.0000
  H   H1203     1.0  0.03848  0.71626  0.49465  1.0000
  C   C1499     1.0  0.12810  0.71002  0.50786  1.0000
  C   C1500     1.0  0.04976  0.80338  0.60159  1.0000
  H   H1204     1.0  0.20202  0.92064  0.58260  1.0000
  C   C1501     1.0  0.31629  0.88786  0.49532  1.0000
  H   H1205     1.0  0.29834  0.73956  0.49138  1.0000
  C   C1502     1.0  0.02146  0.80339  0.57952  1.0000
  C   C1503     1.0  0.04578  0.81874  0.58836  1.0000
  P   P52       1.0  0.01716  0.82210  0.56180  1.0000
  C   C1504     1.0  0.99514  0.70103  0.68129  1.0000
  C   C1505     1.0  0.10356  0.88594  0.54271  1.0000
  H   H1206     1.0  0.11514  0.84245  0.70334  1.0000
  S   S212      1.0  0.02602  0.81153  0.48332  1.0000
  P   P53       1.0  0.31476  0.98289  0.56674  1.0000
  H   H1207     1.0  0.37948  0.76049  0.51512  1.0000
  C   C1506     1.0  0.20316  0.88940  0.70974  1.0000
  H   H1208     1.0  0.24016  0.92771  0.71780  1.0000
  H   H1209     1.0  0.20977  0.98308  0.48807  1.0000
  H   H1210     1.0  0.18790  0.88366  0.72045  1.0000
  H   H1211     1.0  0.02324  0.85219  0.50664  1.0000
  H   H1212     1.0  0.35956  0.95633  0.57074  1.0000
  C   C1507     1.0  0.05152  0.85766  0.55636  1.0000
  S   S213      1.0  0.17262  0.91812  0.49291  1.0000
  C   C1508     1.0  0.09924  0.81891  0.70248  1.0000
  P   P54       1.0  0.28716  0.79518  0.49316  1.0000
  C   C1509     1.0  0.24712  0.76086  0.51944  1.0000
  C   C1510     1.0  0.34320  0.97840  0.55333  1.0000
  H   H1213     1.0  0.06925  0.81491  0.60808  1.0000
  C   C1511     1.0  0.48412  0.98986  0.71276  1.0000
  H   H1214     1.0  0.28927  0.96752  0.59966  1.0000
  H   H1215     1.0  0.40542  0.96952  0.52486  1.0000
  H   H1216     1.0  0.06226  0.84225  0.58491  1.0000
  C   C1512     1.0  0.36134  0.76666  0.51137  1.0000
  C   C1513     1.0  0.25311  0.78365  0.50718  1.0000
  C   C1514     1.0  0.03143  0.76154  0.53505  1.0000
  H   H1217     1.0  0.17134  0.85200  0.69877  1.0000
  C   C1515     1.0  0.36089  0.79444  0.51468  1.0000
  H   H1218     1.0  0.24941  0.96918  0.57652  1.0000
  C   C1516     1.0  0.31537  0.78337  0.50085  1.0000
  C   C1517     1.0  0.35145  0.99567  0.69971  1.0000
  H   H1219     1.0  0.03359  0.76072  0.61610  1.0000
  C   C1518     1.0  0.33189  0.99384  0.58443  1.0000
  H   H1220     1.0  0.14895  0.68246  0.66726  1.0000
  C   C1519     1.0  0.06957  0.67262  0.71141  1.0000
  C   C1520     1.0  0.01417  0.79685  0.54697  1.0000
  C   C1521     1.0  0.32745  0.99144  0.61244  1.0000
  C   C1522     1.0  0.25113  0.94764  0.57553  1.0000
  C   C1523     1.0  0.25457  0.89149  0.57351  1.0000
  H   H1221     1.0  0.37235  0.99415  0.51533  1.0000
  C   C1524     1.0  0.28150  0.91892  0.56989  1.0000
  S   S214      1.0  0.31079  0.95223  0.72202  1.0000
  C   C1525     1.0  0.38429  0.96119  0.54842  1.0000
  H   H1222     1.0  0.00189  0.74639  0.71689  1.0000
  C   C1526     1.0  0.22440  0.97291  0.49255  1.0000
  C   C1527     1.0  0.30684  0.83658  0.48886  1.0000
  C   C1528     1.0  0.01334  0.76061  0.52303  1.0000
  H   H1223     1.0  0.30336  0.91784  0.56641  1.0000
  C   C1529     1.0  0.31383  0.98271  0.59885  1.0000
  C   C1530     1.0  0.34474  0.99350  0.65496  1.0000
  H   H1224     1.0  0.31350  0.98316  0.62355  1.0000
  C   C1531     1.0  0.99529  0.68071  0.50640  1.0000
  H   H1225     1.0  0.09508  0.80577  0.72666  1.0000
  H   H1226     1.0  0.47578  0.97572  0.67539  1.0000
  H   H1227     1.0  0.36728  0.76659  0.73205  1.0000
  C   C1532     1.0  0.39265  0.99057  0.68357  1.0000
  C   C1533     1.0  0.05020  0.70266  0.72674  1.0000
  H   H1228     1.0  0.38286  0.85607  0.73158  1.0000
  C   C1534     1.0  0.25562  0.99194  0.49460  1.0000
  H   H1229     1.0  0.08557  0.67155  0.70220  1.0000
  H   H1230     1.0  0.14641  0.67161  0.71654  1.0000
  C   C1535     1.0  0.03250  0.67814  0.52956  1.0000
  C   C1536     1.0  0.00092  0.67758  0.68862  1.0000
  H   H1231     1.0  0.21112  0.75919  0.72908  1.0000
  H   H1232     1.0  0.47061  0.99064  0.72315  1.0000
  C   C1537     1.0  0.14757  0.66857  0.67783  1.0000
  C   C1538     1.0  0.36946  0.98569  0.52742  1.0000
  C   C1539     1.0  0.13361  0.68567  0.48508  1.0000
  C   C1540     1.0  0.99506  0.77701  0.52314  1.0000
  S   S215      1.0  0.00353  0.79497  0.90637  1.0000
  H   H1233     1.0  0.00937  0.67580  0.74302  1.0000
  H   H1234     1.0  0.98633  0.72978  0.89718  1.0000
  C   C1541     1.0  0.00297  0.73163  0.85613  1.0000
  H   H1235     1.0  0.99664  0.70930  0.85214  1.0000
  C   C1542     1.0  0.99152  0.76644  0.87140  1.0000
  C   C1543     1.0  0.01473  0.73578  0.73911  1.0000
  C   C1544     1.0  0.00400  0.72656  0.75485  1.0000
  H   H1236     1.0  0.98472  0.70951  0.92374  1.0000
  C   C1545     1.0  0.45234  0.66630  0.91144  1.0000
  C   C1546     1.0  0.29274  0.98613  0.85408  1.0000
  C   C1547     1.0  0.02125  0.78952  0.86647  1.0000
  H   H1237     1.0  0.01880  0.85889  0.89520  1.0000
  H   H1238     1.0  0.43772  0.68453  0.94720  1.0000
  H   H1239     1.0  0.39181  0.73027  0.73521  1.0000
  H   H1240     1.0  0.01839  0.72153  0.76265  1.0000
  H   H1241     1.0  0.30792  0.68380  0.92417  1.0000
  C   C1548     1.0  0.30967  0.99206  0.77231  1.0000
  H   H1242     1.0  0.22323  0.67776  0.74224  1.0000
  H   H1243     1.0  0.48351  0.73612  0.84956  1.0000
  C   C1549     1.0  0.35477  0.74478  0.73904  1.0000
  H   H1244     1.0  0.28779  0.66477  0.95149  1.0000
  C   C1550     1.0  0.46887  0.79827  0.76164  1.0000
  C   C1551     1.0  0.30173  0.98927  0.95230  1.0000
  C   C1552     1.0  0.39677  0.86586  0.74077  1.0000
  C   C1553     1.0  0.28491  0.75320  0.89530  1.0000
  H   H1245     1.0  0.31475  0.75352  0.74474  1.0000
  C   C1554     1.0  0.41971  0.85642  0.74478  1.0000
  C   C1555     1.0  0.29954  0.98444  0.93670  1.0000
  C   C1556     1.0  0.34432  0.82259  0.87585  1.0000
  C   C1557     1.0  0.47288  0.84839  0.85192  1.0000
  C   C1558     1.0  0.36393  0.83665  0.97857  1.0000
  C   C1559     1.0  0.26619  0.79377  0.85446  1.0000
  C   C1560     1.0  0.30848  0.84430  0.98073  1.0000
  H   H1246     1.0  0.47133  0.67183  0.90239  1.0000
  H   H1247     1.0  0.29511  0.68759  0.89384  1.0000
  C   C1561     1.0  0.20732  0.98721  0.94544  1.0000
  H   H1248     1.0  0.17790  0.95821  0.85262  1.0000
  C   C1562     1.0  0.35271  0.69660  0.75019  1.0000
  H   H1249     1.0  0.44989  0.83536  0.84847  1.0000
  C   C1563     1.0  0.27225  0.70992  0.78420  1.0000
  C   C1564     1.0  0.23428  0.98946  0.95184  1.0000
  H   H1250     1.0  0.30835  0.69484  0.78881  1.0000
  H   H1251     1.0  0.37205  0.89325  0.74629  1.0000
  C   C1565     1.0  0.10007  0.78685  0.76577  1.0000
  H   H1252     1.0  0.36344  0.68078  0.75172  1.0000
  C   C1566     1.0  0.19528  0.98061  0.85448  1.0000
  H   H1253     1.0  0.16592  0.98645  0.87280  1.0000
  C   C1567     1.0  0.30330  0.95958  0.93115  1.0000
  C   C1568     1.0  0.45621  0.76622  0.76345  1.0000
  C   C1569     1.0  0.26616  0.71462  0.97790  1.0000
  Fe  Fe107     1.0  0.41698  0.75293  0.98116  1.0000
  C   C1570     1.0  0.30732  0.85962  0.92072  1.0000
  C   C1571     1.0  0.31468  0.96858  0.82756  1.0000
  H   H1254     1.0  0.30167  0.95628  0.91908  1.0000
  C   C1572     1.0  0.30700  0.96826  0.96234  1.0000
  C   C1573     1.0  0.39061  0.88683  0.74910  1.0000
  C   C1574     1.0  0.20767  0.90905  0.97542  1.0000
  Fe  Fe108     1.0  0.29263  0.90748  0.73763  1.0000
  H   H1255     1.0  0.24629  0.67247  0.96760  1.0000
  C   C1575     1.0  0.43345  0.67360  0.93663  1.0000
  C   C1576     1.0  0.25740  0.74855  0.75467  1.0000
  C   C1577     1.0  0.30534  0.98893  0.75678  1.0000
  S   S216      1.0  0.38132  0.77071  0.97589  1.0000
  Fe  Fe109     1.0  0.23032  0.89777  0.88106  1.0000
  H   H1256     1.0  0.27404  0.76142  0.76225  1.0000
  Fe  Fe110     1.0  0.22135  0.89690  0.91662  1.0000
  C   C1578     1.0  0.31831  0.82649  0.87117  1.0000
  C   C1579     1.0  0.04022  0.85690  0.89711  1.0000
  S   S217      1.0  0.13301  0.91423  0.89328  1.0000
  C   C1580     1.0  0.46047  0.85295  0.80972  1.0000
  H   H1257     1.0  0.47149  0.75463  0.76260  1.0000
  H   H1258     1.0  0.20064  0.90974  0.95123  1.0000
  H   H1259     1.0  0.10573  0.72655  0.74001  1.0000
  C   C1581     1.0  0.02678  0.67537  0.73441  1.0000
  C   C1582     1.0  0.03915  0.82850  0.90258  1.0000
  H   H1260     1.0  0.18844  0.96485  0.94492  1.0000
  H   H1261     1.0  0.24904  0.78747  0.74672  1.0000
  C   C1583     1.0  0.47432  0.86409  0.78195  1.0000
  C   C1584     1.0  0.09719  0.88081  0.89683  1.0000
  H   H1262     1.0  0.09920  0.80432  0.77272  1.0000
  H   H1263     1.0  0.22420  0.92532  0.81772  1.0000
  Fe  Fe111     1.0  0.36862  0.73771  0.95786  1.0000
  C   C1585     1.0  0.06912  0.88292  0.89428  1.0000
  C   C1586     1.0  0.28595  0.79573  0.84120  1.0000
  C   C1587     1.0  0.23468  0.90385  0.83762  1.0000
  H   H1264     1.0  0.06664  0.80448  0.90921  1.0000
  H   H1265     1.0  0.32202  0.96100  0.81722  1.0000
  Fe  Fe112     1.0  0.42271  0.72851  0.81590  1.0000
  S   S218      1.0  0.31078  0.90175  0.76017  1.0000
  S   S219      1.0  0.23257  0.87505  0.93778  1.0000
  S   S220      1.0  0.26249  0.91900  0.89864  1.0000
  S   S221      1.0  0.37888  0.72704  0.80705  1.0000
  C   C1588     1.0  0.21490  0.71659  0.73465  1.0000
  H   H1266     1.0  0.28000  0.84860  0.88797  1.0000
  H   H1267     1.0  0.29532  0.97341  0.78106  1.0000
  H   H1268     1.0  0.23016  0.97927  0.83782  1.0000
  S   S222      1.0  0.41269  0.71926  0.87335  1.0000
  P   P55       1.0  0.46547  0.85477  0.76267  1.0000
  H   H1269     1.0  0.31408  0.93093  0.84256  1.0000
  H   H1270     1.0  0.11744  0.85035  0.90420  1.0000
  C   C1589     1.0  0.21167  0.90261  0.96013  1.0000
  C   C1590     1.0  0.28302  0.75972  0.87959  1.0000
  S   S223      1.0  0.24755  0.90715  0.79091  1.0000
  S   S224      1.0  0.18967  0.87170  0.89925  1.0000
  Fe  Fe113     1.0  0.18009  0.91371  0.89649  1.0000
  Fe  Fe114     1.0  0.35371  0.69041  0.82667  1.0000
  C   C1591     1.0  0.41698  0.79603  0.76683  1.0000
  C   C1592     1.0  0.06722  0.82635  0.90501  1.0000
  S   S225      1.0  0.37127  0.80185  0.82072  1.0000
  S   S226      1.0  0.35512  0.74967  0.93463  1.0000
  H   H1271     1.0  0.29476  0.94658  0.86604  1.0000
  S   S227      1.0  0.40692  0.72306  0.96170  1.0000
  Fe  Fe115     1.0  0.38084  0.75977  0.82454  1.0000
  H   H1272     1.0  0.33529  0.85833  0.78390  1.0000
  C   C1593     1.0  0.22898  0.70159  0.74346  1.0000
  C   C1594     1.0  0.29921  0.96034  0.85506  1.0000
  H   H1273     1.0  0.33423  0.77386  0.77063  1.0000
  H   H1274     1.0  0.30917  0.79700  0.84213  1.0000
  C   C1595     1.0  0.32479  0.73719  0.74630  1.0000
  Fe  Fe116     1.0  0.37171  0.68671  0.97936  1.0000
  S   S228      1.0  0.32132  0.82252  0.75756  1.0000
  H   H1275     1.0  0.06972  0.90484  0.89018  1.0000
  H   H1276     1.0  0.35574  0.85014  0.80842  1.0000
  C   C1596     1.0  0.25376  0.69705  0.96596  1.0000
  S   S229      1.0  0.21920  0.93838  0.87726  1.0000
  C   C1597     1.0  0.40745  0.89850  0.76143  1.0000
  Fe  Fe117     1.0  0.39812  0.72470  0.84964  1.0000
  C   C1598     1.0  0.22729  0.79488  0.83805  1.0000
  C   C1599     1.0  0.35640  0.80723  0.80339  1.0000
  H   H1277     1.0  0.31297  0.92628  0.96466  1.0000
  S   S230      1.0  0.20891  0.93705  0.91530  1.0000
  Fe  Fe118     1.0  0.26114  0.88558  0.77089  1.0000
  C   C1600     1.0  0.23480  0.91052  0.82167  1.0000
  H   H1278     1.0  0.22409  0.91351  0.84582  1.0000
  S   S231      1.0  0.42702  0.76428  0.83191  1.0000
  C   C1601     1.0  0.27575  0.74637  0.97599  1.0000
  H   H1279     1.0  0.40202  0.91414  0.76810  1.0000
  C   C1602     1.0  0.32287  0.68907  0.75757  1.0000
  C   C1603     1.0  0.39016  0.72536  0.91828  1.0000
  H   H1280     1.0  0.35365  0.76540  0.79511  1.0000
  C   C1604     1.0  0.36546  0.75092  0.90317  1.0000
  H   H1281     1.0  0.06024  0.78325  0.75441  1.0000
  S   S232      1.0  0.24382  0.89428  0.74861  1.0000
  C   C1605     1.0  0.35095  0.83342  0.80019  1.0000
  H   H1282     1.0  0.41751  0.70693  0.90525  1.0000
  C   C1606     1.0  0.07963  0.75283  0.74603  1.0000
  C   C1607     1.0  0.24818  0.89794  0.81083  1.0000
  C   C1608     1.0  0.09609  0.85233  0.90216  1.0000
  C   C1609     1.0  0.28939  0.71368  0.87427  1.0000
  S   S233      1.0  0.24896  0.87600  0.86284  1.0000
  C   C1610     1.0  0.33924  0.83802  0.78635  1.0000
  H   H1283     1.0  0.39493  0.71782  0.92931  1.0000
  C   C1611     1.0  0.24833  0.88478  0.84288  1.0000
  H   H1284     1.0  0.23595  0.96866  0.95613  1.0000
  S   S234      1.0  0.33282  0.69966  0.97434  1.0000
  C   C1612     1.0  0.26235  0.87275  0.83203  1.0000
  H   H1285     1.0  0.45924  0.87992  0.86328  1.0000
  H   H1286     1.0  0.37252  0.75120  0.87840  1.0000
  C   C1613     1.0  0.31018  0.95157  0.84182  1.0000
  C   C1614     1.0  0.26207  0.87905  0.81607  1.0000
  H   H1287     1.0  0.25695  0.86455  0.96552  1.0000
  C   C1615     1.0  0.25034  0.71747  0.75361  1.0000
  H   H1288     1.0  0.23062  0.80592  0.94393  1.0000
  C   C1616     1.0  0.19567  0.80438  0.96140  1.0000
  C   C1617     1.0  0.27300  0.76074  0.96206  1.0000
  H   H1289     1.0  0.04883  0.75028  0.84337  1.0000
  H   H1290     1.0  0.40149  0.80714  0.76862  1.0000
  Fe  Fe119     1.0  0.23457  0.84616  0.74426  1.0000
  S   S235      1.0  0.35221  0.72292  0.84368  1.0000
  H   H1291     1.0  0.23466  0.72460  0.78430  1.0000
  P   P56       1.0  0.26945  0.69874  0.76483  1.0000
  H   H1292     1.0  0.31109  0.70873  0.81538  1.0000
  H   H1293     1.0  0.24092  0.69753  0.94287  1.0000
  H   H1294     1.0  0.23998  0.79863  0.81356  1.0000
  H   H1295     1.0  0.30772  0.97052  0.97454  1.0000
  C   C1618     1.0  0.25077  0.71117  0.95207  1.0000
  S   S236      1.0  0.39729  0.68906  0.83415  1.0000
  C   C1619     1.0  0.33352  0.81669  0.77556  1.0000
  C   C1620     1.0  0.43678  0.86806  0.75716  1.0000
  H   H1296     1.0  0.18433  0.75757  0.91003  1.0000
  H   H1297     1.0  0.14175  0.78736  0.77438  1.0000
  H   H1298     1.0  0.27277  0.86950  0.80785  1.0000
  C   C1621     1.0  0.28875  0.72704  0.90044  1.0000
  H   H1299     1.0  0.47261  0.78844  0.80529  1.0000
  H   H1300     1.0  0.25649  0.75340  0.93959  1.0000
  H   H1301     1.0  0.19639  0.80847  0.91931  1.0000
  C   C1622     1.0  0.37157  0.74149  0.91764  1.0000
  C   C1623     1.0  0.25210  0.72175  0.79073  1.0000
  S   S237      1.0  0.24723  0.83588  0.76765  1.0000
  C   C1624     1.0  0.45423  0.84539  0.79480  1.0000
  C   C1625     1.0  0.37745  0.74391  0.88947  1.0000
  H   H1302     1.0  0.29099  0.72269  0.91253  1.0000
  C   C1626     1.0  0.24375  0.80096  0.96685  1.0000
  H   H1303     1.0  0.35163  0.76392  0.90258  1.0000
  H   H1304     1.0  0.23891  0.73949  0.81066  1.0000
  H   H1305     1.0  0.44288  0.89821  0.77520  1.0000
  H   H1306     1.0  0.27355  0.85854  0.83599  1.0000
  Fe  Fe120     1.0  0.24849  0.95793  0.89629  1.0000
  C   C1627     1.0  0.36860  0.72437  0.74086  1.0000
  C   C1628     1.0  0.25414  0.72991  0.80580  1.0000
  Fe  Fe121     1.0  0.29560  0.85259  0.75533  1.0000
  S   S238      1.0  0.46146  0.72640  0.80002  1.0000
  C   C1629     1.0  0.33873  0.79049  0.77886  1.0000
  C   C1630     1.0  0.44931  0.81346  0.76332  1.0000
  C   C1631     1.0  0.25994  0.74287  0.95020  1.0000
  C   C1632     1.0  0.39637  0.72808  0.89016  1.0000
  C   C1633     1.0  0.27572  0.72562  0.81460  1.0000
  C   C1634     1.0  0.30823  0.93866  0.94120  1.0000
  C   C1635     1.0  0.43051  0.88924  0.76544  1.0000
  P   P57       1.0  0.28073  0.80071  0.96041  1.0000
  H   H1307     1.0  0.34181  0.80177  0.96383  1.0000
  C   C1636     1.0  0.29120  0.70737  0.88992  1.0000
  C   C1637     1.0  0.31112  0.82204  0.97187  1.0000
  C   C1638     1.0  0.33910  0.81845  0.97080  1.0000
  H   H1308     1.0  0.39379  0.84403  0.87747  1.0000
  C   C1639     1.0  0.20550  0.77723  0.90528  1.0000
  H   H1309     1.0  0.28786  0.96782  0.75351  1.0000
  C   C1640     1.0  0.34990  0.78570  0.79274  1.0000
  H   H1310     1.0  0.24418  0.85335  0.90825  1.0000
  C   C1641     1.0  0.29492  0.71272  0.80842  1.0000
  C   C1642     1.0  0.03272  0.75481  0.85114  1.0000
  C   C1643     1.0  0.27624  0.79690  0.82654  1.0000
  C   C1644     1.0  0.24314  0.87691  0.96824  1.0000
  H   H1311     1.0  0.18130  0.80810  0.95313  1.0000
  C   C1645     1.0  0.29333  0.70497  0.79328  1.0000
  C   C1646     1.0  0.10340  0.74285  0.74733  1.0000
  H   H1312     1.0  0.14465  0.74842  0.75810  1.0000
  C   C1647     1.0  0.07801  0.77479  0.75541  1.0000
  C   C1648     1.0  0.42409  0.74912  0.76716  1.0000
  C   C1649     1.0  0.22909  0.88611  0.95652  1.0000
  H   H1313     1.0  0.29159  0.69857  0.86609  1.0000
  C   C1650     1.0  0.40447  0.76403  0.76876  1.0000
  C   C1651     1.0  0.32544  0.84882  0.91172  1.0000
  C   C1652     1.0  0.32956  0.82310  0.91739  1.0000
  C   C1653     1.0  0.31532  0.80801  0.93200  1.0000
  C   C1654     1.0  0.29326  0.84469  0.93537  1.0000
  H   H1314     1.0  0.30974  0.91867  0.93697  1.0000
  C   C1655     1.0  0.30836  0.70903  0.75546  1.0000
  H   H1315     1.0  0.34210  0.80059  0.88093  1.0000
  H   H1316     1.0  0.06504  0.80163  0.85269  1.0000
  H   H1317     1.0  0.41455  0.72434  0.76917  1.0000
  C   C1656     1.0  0.31008  0.94300  0.95678  1.0000
  H   H1318     1.0  0.44468  0.83832  0.81951  1.0000
  C   C1657     1.0  0.12393  0.77716  0.76680  1.0000
  C   C1658     1.0  0.22398  0.80361  0.95622  1.0000
  C   C1659     1.0  0.40276  0.71901  0.90460  1.0000
  H   H1319     1.0  0.43357  0.82502  0.79342  1.0000
  C   C1660     1.0  0.04186  0.78375  0.85633  1.0000
  H   H1320     1.0  0.20513  0.79589  0.83679  1.0000
  H   H1321     1.0  0.30413  0.87962  0.91640  1.0000
  H   H1322     1.0  0.33651  0.86061  0.90043  1.0000
  C   C1661     1.0  0.29656  0.81837  0.94099  1.0000
  H   H1323     1.0  0.28013  0.85392  0.94236  1.0000
  H   H1324     1.0  0.22170  0.79370  0.86262  1.0000
  C   C1662     1.0  0.25334  0.79966  0.88754  1.0000
  P   P58       1.0  0.28011  0.79481  0.87322  1.0000
  H   H1325     1.0  0.37958  0.75080  0.77182  1.0000
  H   H1326     1.0  0.34425  0.81507  0.91066  1.0000
  H   H1327     1.0  0.31965  0.78873  0.93639  1.0000
  C   C1663     1.0  0.12548  0.75506  0.75766  1.0000
  H   H1328     1.0  0.27750  0.73211  0.82623  1.0000
  H   H1329     1.0  0.29172  0.79875  0.81638  1.0000
  C   C1664     1.0  0.28544  0.73981  0.86908  1.0000
  C   C1665     1.0  0.23921  0.83122  0.90425  1.0000
  C   C1666     1.0  0.35199  0.87981  0.86221  1.0000
  C   C1667     1.0  0.22595  0.77414  0.89383  1.0000
  C   C1668     1.0  0.24699  0.79659  0.82495  1.0000
  C   C1669     1.0  0.23684  0.79359  0.85275  1.0000
  H   H1330     1.0  0.28396  0.76865  0.90357  1.0000
  C   C1670     1.0  0.37385  0.84725  0.87385  1.0000
  C   C1671     1.0  0.25962  0.82831  0.89275  1.0000
  H   H1331     1.0  0.22038  0.75188  0.88983  1.0000
  C   C1672     1.0  0.37768  0.87588  0.86707  1.0000
  H   H1332     1.0  0.28464  0.74445  0.85690  1.0000
  C   C1673     1.0  0.32247  0.85518  0.86415  1.0000
  H   H1333     1.0  0.40056  0.89495  0.86547  1.0000
  C   C1674     1.0  0.21220  0.80579  0.91052  1.0000
  H   H1334     1.0  0.35487  0.90187  0.85683  1.0000
  H   H1335     1.0  0.30282  0.85851  0.86017  1.0000
  H   H1336     1.0  0.02850  0.81171  0.87084  1.0000
  H   H1337     1.0  0.19367  0.92133  0.97818  1.0000
  S   S239      1.0  0.18914  0.81355  0.73612  1.0000
  C   C1675     1.0  0.18663  0.80185  0.97720  1.0000
  H   H1338     1.0  0.45025  0.66936  0.81992  1.0000
  C   C1676     1.0  0.24326  0.76342  0.74588  1.0000
  C   C1677     1.0  0.45795  0.68053  0.92501  1.0000
  H   H1339     1.0  0.48124  0.69704  0.92652  1.0000
  H   H1340     1.0  0.16519  0.80344  0.98116  1.0000
  H   H1341     1.0  0.42371  0.83962  0.73844  1.0000
  C   C1678     1.0  0.47814  0.87348  0.86025  1.0000
  H   H1342     1.0  0.38541  0.83370  0.97777  1.0000
  H   H1343     1.0  0.28331  0.99205  0.86436  1.0000
  C   C1679     1.0  0.22491  0.99269  0.84611  1.0000
  H   H1344     1.0  0.28758  0.84822  0.98150  1.0000
  C   C1680     1.0  0.22196  0.74747  0.73590  1.0000
  C   C1681     1.0  0.30857  0.99462  0.82657  1.0000
  H   H1345     1.0  0.31101  0.66746  0.76480  1.0000
  C   C1682     1.0  0.18852  0.99654  0.86590  1.0000
  C   C1683     1.0  0.31040  0.66404  0.92938  1.0000
  Fe  Fe122     1.0  0.84486  0.29662  0.03217  1.0000
  S   S240      1.0  0.81478  0.24935  0.02632  1.0000
  C   C1684     1.0  0.63534  0.33058  0.05477  1.0000
  Fe  Fe123     1.0  0.88243  0.27422  0.05238  1.0000
  S   S241      1.0  0.85581  0.22528  0.04772  1.0000
  H   H1346     1.0  0.64572  0.08383  0.10072  1.0000
  Fe  Fe124     1.0  0.85985  0.24414  0.02286  1.0000
  S   S242      1.0  0.87193  0.21874  0.00400  1.0000
  Fe  Fe125     1.0  0.81332  0.23456  0.05151  1.0000
  S   S243      1.0  0.76703  0.20303  0.06530  1.0000
  S   S244      1.0  0.89024  0.29247  0.02727  1.0000
  S   S245      1.0  0.83966  0.28236  0.05762  1.0000
  Fe  Fe126     1.0  0.69233  0.04624  0.17159  1.0000
  Fe  Fe127     1.0  0.71350  0.08499  0.13963  1.0000
  S   S246      1.0  0.66683  0.06101  0.13084  1.0000
  S   S247      1.0  0.75901  0.12129  0.12712  1.0000
  Fe  Fe128     1.0  0.64698  0.06408  0.15468  1.0000
  H   H1347     1.0  0.49440  0.07336  0.19309  1.0000
  S   S248      1.0  0.69400  0.09165  0.16259  1.0000
  S   S249      1.0  0.71511  0.04129  0.14904  1.0000
  H   H1348     1.0  0.71770  0.00486  0.11133  1.0000
  C   C1685     1.0  0.73096  0.03909  0.22244  1.0000
  H   H1349     1.0  0.81332  0.05759  0.21388  1.0000
  C   C1686     1.0  0.78711  0.15115  0.04217  1.0000
  H   H1350     1.0  0.50811  0.19668  0.01319  1.0000
  C   C1687     1.0  0.57063  0.06209  0.15893  1.0000
  C   C1688     1.0  0.55088  0.07723  0.15971  1.0000
  C   C1689     1.0  0.67826  0.07681  0.08465  1.0000
  C   C1690     1.0  0.55755  0.03028  0.15869  1.0000
  H   H1351     1.0  0.53976  0.32880  0.01843  1.0000
  C   C1691     1.0  0.68703  0.10281  0.05887  1.0000
  C   C1692     1.0  0.56643  0.30329  0.01285  1.0000
  C   C1693     1.0  0.48913  0.18154  0.03690  1.0000
  C   C1694     1.0  0.51831  0.06077  0.16013  1.0000
  H   H1352     1.0  0.79406  0.17521  0.04343  1.0000
  C   C1695     1.0  0.83214  0.21172  0.20482  1.0000
  C   C1696     1.0  0.76310  0.12890  0.05241  1.0000
  H   H1353     1.0  0.77491  0.10594  0.08034  1.0000
  C   C1697     1.0  0.59510  0.30527  0.00599  1.0000
  C   C1698     1.0  0.53632  0.06763  0.21303  1.0000
  Fe  Fe129     1.0  0.66705  0.01748  0.14180  1.0000
  C   C1699     1.0  0.71413  0.14359  0.20346  1.0000
  C   C1700     1.0  0.52493  0.01374  0.15942  1.0000
  S   S250      1.0  0.64389  0.01876  0.16520  1.0000
  C   C1701     1.0  0.87903  0.23028  0.98376  1.0000
  H   H1354     1.0  0.68276  0.06230  0.09319  1.0000
  C   C1702     1.0  0.79293  0.11138  0.02869  1.0000
  H   H1355     1.0  0.49880  0.28893  0.08793  1.0000
  H   H1356     1.0  0.74881  0.03256  0.21776  1.0000
  C   C1703     1.0  0.76532  0.17996  0.08227  1.0000
  C   C1704     1.0  0.73600  0.16001  0.09000  1.0000
  C   C1705     1.0  0.73367  0.14151  0.10362  1.0000
  C   C1706     1.0  0.76071  0.14295  0.10966  1.0000
  C   C1707     1.0  0.79003  0.16254  0.10180  1.0000
  C   C1708     1.0  0.79237  0.18092  0.08813  1.0000
  H   H1357     1.0  0.71498  0.15893  0.08546  1.0000
  H   H1358     1.0  0.71099  0.12642  0.10954  1.0000
  H   H1359     1.0  0.81100  0.16371  0.10641  1.0000
  H   H1360     1.0  0.81505  0.19616  0.08226  1.0000
  C   C1709     1.0  0.96854  0.26396  0.99279  1.0000
  H   H1361     1.0  0.89156  0.32484  0.07636  1.0000
  C   C1710     1.0  0.78088  0.31247  0.99208  1.0000
  H   H1362     1.0  0.81497  0.20125  0.19701  1.0000
  C   C1711     1.0  0.72648  0.12238  0.20082  1.0000
  H   H1363     1.0  0.70033  0.01458  0.08645  1.0000
  H   H1364     1.0  0.80611  0.29338  0.00560  1.0000
  H   H1365     1.0  0.76257  0.10806  0.20474  1.0000
  H   H1366     1.0  0.59902  0.28475  0.00569  1.0000
  C   C1712     1.0  0.91236  0.30662  0.16651  1.0000
  H   H1367     1.0  0.80467  0.10470  0.01952  1.0000
  H   H1368     1.0  0.66158  0.13028  0.05508  1.0000
  H   H1369     1.0  0.63505  0.11801  0.08185  1.0000
  H   H1370     1.0  0.97101  0.25125  0.11650  1.0000
  H   H1371     1.0  0.86551  0.13339  0.17939  1.0000
  C   C1713     1.0  0.68755  0.05192  0.21893  1.0000
  C   C1714     1.0  0.71054  0.04348  0.21265  1.0000
  H   H1372     1.0  0.67163  0.05539  0.21160  1.0000
  H   H1373     1.0  0.75205  0.13620  0.06159  1.0000
  H   H1374     1.0  0.78228  0.25265  0.09448  1.0000
  C   C1715     1.0  0.50392  0.23365  0.16076  1.0000
  C   C1716     1.0  0.68833  0.30656  0.00701  1.0000
  C   C1717     1.0  0.70600  0.28967  0.00859  1.0000
  H   H1375     1.0  0.67712  0.26253  0.08568  1.0000
  C   C1718     1.0  0.92497  0.30814  0.08309  1.0000
  H   H1376     1.0  0.67760  0.30691  0.99654  1.0000
  H   H1377     1.0  0.70881  0.27680  0.99936  1.0000
  H   H1378     1.0  0.93244  0.27265  0.00508  1.0000
  C   C1719     1.0  0.65107  0.10823  0.07836  1.0000
  H   H1379     1.0  0.59545  0.23552  0.98570  1.0000
  P   P59       1.0  0.80612  0.15465  0.22251  1.0000
  S   S251      1.0  0.71490  0.03794  0.19280  1.0000
  C   C1720     1.0  0.75329  0.09764  0.05071  1.0000
  C   C1721     1.0  0.76868  0.08902  0.03884  1.0000
  C   C1722     1.0  0.75691  0.17071  0.21814  1.0000
  H   H1380     1.0  0.85206  0.25552  0.19093  1.0000
  S   S252      1.0  0.61131  0.08364  0.15897  1.0000
  C   C1723     1.0  0.70091  0.32519  0.03184  1.0000
  C   C1724     1.0  0.76968  0.14969  0.21534  1.0000
  H   H1381     1.0  0.82079  0.15988  0.02244  1.0000
  H   H1382     1.0  0.92070  0.27155  0.17920  1.0000
  S   S253      1.0  0.92102  0.28443  0.06802  1.0000
  P   P60       1.0  0.72193  0.06912  0.06401  1.0000
  C   C1725     1.0  0.90965  0.27680  0.16969  1.0000
  C   C1726     1.0  0.67545  0.02845  0.04818  1.0000
  H   H1383     1.0  0.73643  0.27883  0.02254  1.0000
  C   C1727     1.0  0.51425  0.01530  0.20652  1.0000
  H   H1384     1.0  0.71463  0.10348  0.19420  1.0000
  H   H1385     1.0  0.79569  0.09051  0.22845  1.0000
  C   C1728     1.0  0.89904  0.31383  0.15399  1.0000
  C   C1729     1.0  0.83336  0.19468  0.21826  1.0000
  H   H1386     1.0  0.79227  0.09542  0.10498  1.0000
  H   H1387     1.0  0.50954  0.19814  0.04130  1.0000
  H   H1388     1.0  0.58556  0.31458  0.06027  1.0000
  H   H1389     1.0  0.96714  0.32986  0.11377  1.0000
  H   H1390     1.0  0.57253  0.01839  0.15814  1.0000
  C   C1730     1.0  0.56848  0.04883  0.19805  1.0000
  C   C1731     1.0  0.51060  0.03900  0.21371  1.0000
  H   H1391     1.0  0.94974  0.31684  0.22357  1.0000
  C   C1732     1.0  0.94907  0.27893  0.99483  1.0000
  H   H1392     1.0  0.52262  0.19975  0.16124  1.0000
  H   H1393     1.0  0.64040  0.00428  0.10589  1.0000
  H   H1394     1.0  0.69276  0.14119  0.19878  1.0000
  H   H1395     1.0  0.93457  0.31228  0.98494  1.0000
  C   C1733     1.0  0.73698  0.06063  0.08121  1.0000
  C   C1734     1.0  0.82129  0.13137  0.21244  1.0000
  C   C1735     1.0  0.71736  0.01412  0.05360  1.0000
  H   H1396     1.0  0.96009  0.29686  0.09244  1.0000
  C   C1736     1.0  0.50521  0.02892  0.16006  1.0000
  C   C1737     1.0  0.48562  0.18910  0.14666  1.0000
  H   H1397     1.0  0.67429  0.28593  0.06023  1.0000
  H   H1398     1.0  0.73250  0.31032  0.04293  1.0000
  H   H1399     1.0  0.76205  0.06519  0.03729  1.0000
  C   C1738     1.0  0.85323  0.24249  0.20127  1.0000
  C   C1739     1.0  0.75391  0.12515  0.20685  1.0000
  C   C1740     1.0  0.69362  0.08383  0.06957  1.0000
  C   C1741     1.0  0.72168  0.29095  0.02163  1.0000
  C   C1742     1.0  0.65711  0.08899  0.08900  1.0000
  H   H1400     1.0  0.56085  0.10182  0.15995  1.0000
  C   C1743     1.0  0.90791  0.32575  0.08453  1.0000
  S   S254      1.0  0.53689  0.26730  0.02076  1.0000
  H   H1401     1.0  0.51972  0.24760  0.16839  1.0000
  H   H1402     1.0  0.59788  0.00244  0.20714  1.0000
  H   H1403     1.0  0.76845  0.18952  0.22486  1.0000
  C   C1744     1.0  0.66598  0.11508  0.06329  1.0000
  C   C1745     1.0  0.94654  0.31005  0.09360  1.0000
  C   C1746     1.0  0.75671  0.04915  0.10949  1.0000
  H   H1404     1.0  0.69849  0.10850  0.04717  1.0000
  H   H1405     1.0  0.73883  0.01839  0.05861  1.0000
  C   C1747     1.0  0.85063  0.12425  0.19022  1.0000
  H   H1406     1.0  0.70465  0.29531  0.10537  1.0000
  C   C1748     1.0  0.95077  0.32893  0.10561  1.0000
  C   C1749     1.0  0.95032  0.30131  0.98346  1.0000
  C   C1750     1.0  0.72102  0.03210  0.09012  1.0000
  C   C1751     1.0  0.80207  0.14246  0.03032  1.0000
  H   H1407     1.0  0.58467  0.09482  0.20429  1.0000
  C   C1752     1.0  0.82130  0.08156  0.20964  1.0000
  H   H1408     1.0  0.86163  0.21217  0.10394  1.0000
  C   C1753     1.0  0.56512  0.07248  0.20522  1.0000
  C   C1754     1.0  0.70339  0.03467  0.05470  1.0000
  H   H1409     1.0  0.89505  0.25079  0.23197  1.0000
  C   C1755     1.0  0.76292  0.08334  0.08661  1.0000
  C   C1756     1.0  0.68576  0.32426  0.01856  1.0000
  H   H1410     1.0  0.66391  0.04357  0.04901  1.0000
  C   C1757     1.0  0.68810  0.28727  0.08308  1.0000
  C   C1758     1.0  0.77287  0.07746  0.10063  1.0000
  C   C1759     1.0  0.68667  0.30064  0.06863  1.0000
  H   H1411     1.0  0.90312  0.21374  0.08480  1.0000
  C   C1760     1.0  0.71943  0.30889  0.03315  1.0000
  H   H1412     1.0  0.53384  0.08643  0.21817  1.0000
  H   H1413     1.0  0.50334  0.07266  0.16066  1.0000
  C   C1761     1.0  0.88320  0.29136  0.14454  1.0000
  C   C1762     1.0  0.88008  0.26121  0.14771  1.0000
  C   C1763     1.0  0.89344  0.25412  0.16040  1.0000
  P   P61       1.0  0.86238  0.23238  0.13486  1.0000
  C   C1764     1.0  0.84068  0.19580  0.14624  1.0000
  C   C1765     1.0  0.83601  0.24082  0.12342  1.0000
  C   C1766     1.0  0.80388  0.22141  0.12502  1.0000
  C   C1767     1.0  0.78455  0.22609  0.11478  1.0000
  C   C1768     1.0  0.79705  0.24998  0.10282  1.0000
  C   C1769     1.0  0.82884  0.26958  0.10126  1.0000
  C   C1770     1.0  0.84827  0.26492  0.11143  1.0000
  C   C1771     1.0  0.83978  0.16867  0.14090  1.0000
  C   C1772     1.0  0.82084  0.14026  0.14920  1.0000
  C   C1773     1.0  0.80245  0.13867  0.16277  1.0000
  C   C1774     1.0  0.80324  0.16557  0.16817  1.0000
  C   C1775     1.0  0.82235  0.19406  0.15998  1.0000
  C   C1776     1.0  0.89258  0.23109  0.12138  1.0000
  C   C1777     1.0  0.92366  0.24201  0.12477  1.0000
  C   C1778     1.0  0.94701  0.24220  0.11393  1.0000
  C   C1779     1.0  0.93957  0.23177  0.09958  1.0000
  C   C1780     1.0  0.90874  0.22085  0.09612  1.0000
  C   C1781     1.0  0.88529  0.22030  0.10699  1.0000
  H   H1414     1.0  0.87407  0.29797  0.13466  1.0000
  H   H1415     1.0  0.89213  0.23128  0.16285  1.0000
  H   H1416     1.0  0.79369  0.20175  0.13365  1.0000
  H   H1417     1.0  0.76010  0.21021  0.11566  1.0000
  C   C1782     1.0  0.87736  0.23984  0.22441  1.0000
  H   H1418     1.0  0.83869  0.28779  0.09185  1.0000
  H   H1419     1.0  0.87313  0.27940  0.10958  1.0000
  H   H1420     1.0  0.85277  0.16923  0.13008  1.0000
  H   H1421     1.0  0.81916  0.11931  0.14468  1.0000
  H   H1422     1.0  0.78686  0.11652  0.16883  1.0000
  H   H1423     1.0  0.78819  0.16417  0.17840  1.0000
  H   H1424     1.0  0.82195  0.21465  0.16403  1.0000
  H   H1425     1.0  0.93022  0.25102  0.13559  1.0000
  H   H1426     1.0  0.59051  0.05297  0.19152  1.0000
  H   H1427     1.0  0.71955  0.18400  0.21431  1.0000
  C   C1783     1.0  0.72926  0.16767  0.21219  1.0000
  H   H1428     1.0  0.63598  0.31170  0.06189  1.0000
  C   C1784     1.0  0.87594  0.25652  0.21103  1.0000
  C   C1785     1.0  0.66187  0.00221  0.04058  1.0000
  C   C1786     1.0  0.81151  0.10038  0.21794  1.0000
  C   C1787     1.0  0.73080  0.02648  0.10423  1.0000
  H   H1429     1.0  0.53651  0.00477  0.08720  1.0000
  H   H1430     1.0  0.89252  0.28034  0.20822  1.0000
  H   H1431     1.0  0.95777  0.23287  0.09097  1.0000
  C   C1788     1.0  0.54309  0.02027  0.19873  1.0000
  C   C1789     1.0  0.48934  0.29204  0.09902  1.0000
  C   C1790     1.0  0.70364  0.30574  0.09416  1.0000
  H   H1432     1.0  0.48727  0.01098  0.08990  1.0000
  H   H1433     1.0  0.96697  0.24619  0.00153  1.0000
  C   C1791     1.0  0.84084  0.09346  0.19579  1.0000
  H   H1434     1.0  0.84836  0.16677  0.19383  1.0000
  H   H1435     1.0  0.84815  0.07874  0.18930  1.0000
  C   C1792     1.0  0.84089  0.14317  0.19850  1.0000
  C   C1793     1.0  0.80133  0.31311  0.00306  1.0000
  H   H1436     1.0  0.76376  0.04515  0.12063  1.0000
  H   H1437     1.0  0.51391  0.29739  0.99201  1.0000
  H   H1438     1.0  0.92537  0.32433  0.17355  1.0000
  H   H1439     1.0  0.76983  0.29210  0.98633  1.0000
  C   C1794     1.0  0.50562  0.20677  0.15672  1.0000
  C   C1795     1.0  0.85614  0.20912  0.22807  1.0000
  H   H1440     1.0  0.54548  0.00234  0.19266  1.0000
  C   C1796     1.0  0.56159  0.32994  0.01315  1.0000
  Fe  Fe130     1.0  0.49083  0.26538  0.03144  1.0000
  C   C1797     1.0  0.49523  0.32154  0.10269  1.0000
  H   H1441     1.0  0.77526  0.33059  0.07811  1.0000
  C   C1798     1.0  0.48828  0.18068  0.02101  1.0000
  H   H1442     1.0  0.48708  0.16841  0.14332  1.0000
  H   H1443     1.0  0.86811  0.26923  0.98485  1.0000
  Fe  Fe131     1.0  0.96207  0.27452  0.30451  1.0000
  C   C1799     1.0  0.82019  0.12952  0.26603  1.0000
  S   S255      1.0  0.90956  0.24150  0.30778  1.0000
  Fe  Fe132     1.0  0.77938  0.06159  0.30401  1.0000
  S   S256      1.0  0.73201  0.06299  0.30566  1.0000
  S   S257      1.0  0.82848  0.09647  0.30830  1.0000
  Fe  Fe133     1.0  0.71273  0.01428  0.31712  1.0000
  H   H1444     1.0  0.85691  0.04989  0.41886  1.0000
  Fe  Fe134     1.0  0.72628  0.04213  0.28301  1.0000
  S   S258      1.0  0.70094  0.05556  0.26453  1.0000
  S   S259      1.0  0.76049  0.01378  0.31688  1.0000
  S   S260      1.0  0.77461  0.04427  0.28058  1.0000
  H   H1445     1.0  0.85320  0.00853  0.43838  1.0000
  S   S261      1.0  0.78339  0.11743  0.45160  1.0000
  C   C1800     1.0  0.61034  0.04704  0.42349  1.0000
  Fe  Fe135     1.0  0.63227  0.25694  0.44813  1.0000
  S   S262      1.0  0.60114  0.20304  0.45400  1.0000
  S   S263      1.0  0.60964  0.28321  0.43508  1.0000
  S   S264      1.0  0.68022  0.28383  0.43436  1.0000
  Fe  Fe136     1.0  0.61615  0.12725  0.37536  1.0000
  S   S265      1.0  0.60152  0.12159  0.40089  1.0000
  S   S266      1.0  0.59664  0.08506  0.36034  1.0000
  Fe  Fe137     1.0  0.65751  0.20015  0.37589  1.0000
  S   S267      1.0  0.64318  0.19575  0.40141  1.0000
  S   S268      1.0  0.69538  0.24780  0.36271  1.0000
  Fe  Fe138     1.0  0.65176  0.15305  0.40360  1.0000
  S   S269      1.0  0.67563  0.14866  0.42530  1.0000
  Fe  Fe139     1.0  0.59418  0.16451  0.39722  1.0000
  S   S270      1.0  0.55329  0.17335  0.40824  1.0000
  S   S271      1.0  0.66736  0.15738  0.37810  1.0000
  S   S272      1.0  0.60734  0.17032  0.37137  1.0000
  H   H1446     1.0  0.62368  0.01358  0.31414  1.0000
  S   S273      1.0  0.52738  0.05517  0.44635  1.0000
  S   S274      1.0  0.52515  0.02224  0.40545  1.0000
  C   C1801     1.0  0.57448  0.04400  0.35840  1.0000
  C   C1802     1.0  0.56839  0.03401  0.34368  1.0000
  H   H1447     1.0  0.57645  0.05094  0.33371  1.0000
  C   C1803     1.0  0.58272  0.16190  0.45123  1.0000
  C   C1804     1.0  0.59461  0.14755  0.44052  1.0000
  C   C1805     1.0  0.57868  0.11527  0.43909  1.0000
  C   C1806     1.0  0.54994  0.09645  0.44788  1.0000
  C   C1807     1.0  0.53898  0.11073  0.45895  1.0000
  C   C1808     1.0  0.55495  0.14255  0.46059  1.0000
  H   H1448     1.0  0.61635  0.16119  0.43342  1.0000
  H   H1449     1.0  0.58912  0.10458  0.43151  1.0000
  H   H1450     1.0  0.51719  0.09717  0.46602  1.0000
  C   C1809     1.0  0.84885  0.32548  0.34013  1.0000
  C   C1810     1.0  0.49860  0.04102  0.26664  1.0000
  C   C1811     1.0  0.74146  0.30283  0.34727  1.0000
  C   C1812     1.0  0.71652  0.28991  0.35920  1.0000
  C   C1813     1.0  0.70977  0.31092  0.36762  1.0000
  C   C1814     1.0  0.92400  0.10349  0.39852  1.0000
  C   C1815     1.0  0.93471  0.19704  0.43596  1.0000
  H   H1451     1.0  0.74732  0.28773  0.34045  1.0000
  H   H1452     1.0  0.69079  0.30214  0.37685  1.0000
  C   C1816     1.0  0.75346  0.12670  0.44460  1.0000
  C   C1817     1.0  0.75017  0.12694  0.42871  1.0000
  C   C1818     1.0  0.72693  0.13401  0.42255  1.0000
  C   C1819     1.0  0.70637  0.14082  0.43222  1.0000
  C   C1820     1.0  0.70994  0.14109  0.44809  1.0000
  C   C1821     1.0  0.73316  0.13393  0.45428  1.0000
  H   H1453     1.0  0.76554  0.12147  0.42106  1.0000
  H   H1454     1.0  0.72467  0.13396  0.41034  1.0000
  H   H1455     1.0  0.69429  0.14656  0.45566  1.0000
  H   H1456     1.0  0.73532  0.13399  0.46651  1.0000
  C   C1822     1.0  0.78312  0.07973  0.40423  1.0000
  H   H1457     1.0  0.95923  0.29022  0.37729  1.0000
  C   C1823     1.0  0.76711  0.12458  0.26744  1.0000
  H   H1458     1.0  0.67582  0.07289  0.46993  1.0000
  C   C1824     1.0  0.50969  0.11884  0.42496  1.0000
  C   C1825     1.0  0.52310  0.15092  0.42338  1.0000
  C   C1826     1.0  0.51036  0.16573  0.43329  1.0000
  H   H1459     1.0  0.94684  0.17737  0.37053  1.0000
  C   C1827     1.0  0.62929  0.08458  0.45918  1.0000
  H   H1460     1.0  0.51923  0.10691  0.41761  1.0000
  H   H1461     1.0  0.52053  0.19051  0.43225  1.0000
  C   C1828     1.0  0.58782  0.08557  0.47666  1.0000
  C   C1829     1.0  0.57329  0.05356  0.47831  1.0000
  H   H1462     1.0  0.84646  0.14352  0.24365  1.0000
  H   H1463     1.0  0.68155  0.02953  0.36051  1.0000
  H   H1464     1.0  0.64900  0.02656  0.38483  1.0000
  C   C1830     1.0  0.70530  0.05102  0.24457  1.0000
  C   C1831     1.0  0.95325  0.13607  0.37523  1.0000
  C   C1832     1.0  0.56323  0.02092  0.37089  1.0000
  C   C1833     1.0  0.88794  0.20123  0.30697  1.0000
  C   C1834     1.0  0.85511  0.18910  0.30796  1.0000
  C   C1835     1.0  0.83672  0.15733  0.30792  1.0000
  C   C1836     1.0  0.85082  0.13710  0.30688  1.0000
  C   C1837     1.0  0.88367  0.14919  0.30581  1.0000
  C   C1838     1.0  0.90214  0.18101  0.30578  1.0000
  H   H1465     1.0  0.84388  0.20446  0.30883  1.0000
  H   H1466     1.0  0.81162  0.14821  0.30914  1.0000
  H   H1467     1.0  0.89495  0.13379  0.30515  1.0000
  H   H1468     1.0  0.92731  0.18981  0.30505  1.0000
  Fe  Fe140     1.0  0.62317  0.31786  0.45225  1.0000
  C   C1839     1.0  0.66622  0.06230  0.42133  1.0000
  C   C1840     1.0  0.49897  0.10764  0.38067  1.0000
  C   C1841     1.0  0.80732  0.20128  0.45870  1.0000
  H   H1469     1.0  0.60442  0.17312  0.48237  1.0000
  H   H1470     1.0  0.50312  0.31642  0.40627  1.0000
  C   C1842     1.0  0.63831  0.04664  0.33042  1.0000
  C   C1843     1.0  0.63746  0.03738  0.31563  1.0000
  C   C1844     1.0  0.65481  0.05863  0.30303  1.0000
  C   C1845     1.0  0.67326  0.08908  0.30526  1.0000
  C   C1846     1.0  0.67435  0.09845  0.32017  1.0000
  C   C1847     1.0  0.65644  0.07702  0.33271  1.0000
  P   P62       1.0  0.69950  0.13700  0.32367  1.0000
  C   C1848     1.0  0.72026  0.13337  0.33971  1.0000
  C   C1849     1.0  0.72598  0.15740  0.30665  1.0000
  C   C1850     1.0  0.75779  0.16377  0.30583  1.0000
  C   C1851     1.0  0.77787  0.18001  0.29255  1.0000
  C   C1852     1.0  0.76635  0.18991  0.28006  1.0000
  C   C1853     1.0  0.73472  0.18371  0.28083  1.0000
  C   C1854     1.0  0.71462  0.16763  0.29409  1.0000
  C   C1855     1.0  0.72518  0.15278  0.35146  1.0000
  C   C1856     1.0  0.73800  0.14730  0.36463  1.0000
  C   C1857     1.0  0.74609  0.12258  0.36616  1.0000
  C   C1858     1.0  0.74208  0.10368  0.35433  1.0000
  C   C1859     1.0  0.72934  0.10910  0.34115  1.0000
  C   C1860     1.0  0.67701  0.15850  0.32795  1.0000
  C   C1861     1.0  0.64440  0.14383  0.33126  1.0000
  C   C1862     1.0  0.62736  0.16092  0.33435  1.0000
  C   C1863     1.0  0.64271  0.19277  0.33409  1.0000
  C   C1864     1.0  0.67510  0.20757  0.33061  1.0000
  C   C1865     1.0  0.69221  0.19055  0.32751  1.0000
  H   H1471     1.0  0.62497  0.03015  0.34021  1.0000
  C   C1866     1.0  0.88166  0.32009  0.31897  1.0000
  H   H1472     1.0  0.65468  0.05150  0.29154  1.0000
  H   H1473     1.0  0.68713  0.10474  0.29537  1.0000
  H   H1474     1.0  0.65660  0.08361  0.34434  1.0000
  H   H1475     1.0  0.76705  0.15627  0.31541  1.0000
  H   H1476     1.0  0.80238  0.18475  0.29177  1.0000
  H   H1477     1.0  0.78197  0.20220  0.26977  1.0000
  H   H1478     1.0  0.72573  0.19135  0.27116  1.0000
  H   H1479     1.0  0.69011  0.16299  0.29454  1.0000
  H   H1480     1.0  0.71812  0.17144  0.35082  1.0000
  H   H1481     1.0  0.74063  0.16161  0.37389  1.0000
  H   H1482     1.0  0.75516  0.11792  0.37657  1.0000
  H   H1483     1.0  0.74795  0.08422  0.35549  1.0000
  H   H1484     1.0  0.72543  0.09356  0.33235  1.0000
  H   H1485     1.0  0.63191  0.11922  0.33165  1.0000
  H   H1486     1.0  0.60229  0.14926  0.33740  1.0000
  H   H1487     1.0  0.62961  0.20594  0.33694  1.0000
  H   H1488     1.0  0.68695  0.23223  0.33070  1.0000
  H   H1489     1.0  0.71732  0.20237  0.32493  1.0000
  C   C1867     1.0  0.78792  0.07684  0.41972  1.0000
  H   H1490     1.0  0.85839  0.11681  0.38822  1.0000
  H   H1491     1.0  0.75954  0.07074  0.40099  1.0000
  C   C1868     1.0  0.83910  0.10600  0.39721  1.0000
  C   C1869     1.0  0.84413  0.10319  0.41279  1.0000
  C   C1870     1.0  0.81823  0.08848  0.42399  1.0000
  P   P63       1.0  0.88320  0.11669  0.41853  1.0000
  H   H1492     1.0  0.83440  0.28929  0.42402  1.0000
  C   C1871     1.0  0.91090  0.12409  0.40170  1.0000
  C   C1872     1.0  0.66992  0.03651  0.45544  1.0000
  H   H1493     1.0  0.75062  0.04485  0.46702  1.0000
  H   H1494     1.0  0.58052  0.28881  0.47828  1.0000
  C   C1873     1.0  0.63956  0.00984  0.37684  1.0000
  C   C1874     1.0  0.91934  0.15082  0.39153  1.0000
  H   H1495     1.0  0.51998  0.04764  0.27206  1.0000
  C   C1875     1.0  0.50234  0.09845  0.34949  1.0000
  H   H1496     1.0  0.52153  0.21423  0.39693  1.0000
  H   H1497     1.0  0.83221  0.29233  0.32380  1.0000
  C   C1876     1.0  0.61583  0.10110  0.46709  1.0000
  C   C1877     1.0  0.89408  0.15155  0.42780  1.0000
  C   C1878     1.0  0.87157  0.15735  0.43664  1.0000
  C   C1879     1.0  0.88062  0.18264  0.44514  1.0000
  H   H1498     1.0  0.76813  0.06613  0.42854  1.0000
  H   H1499     1.0  0.62601  0.12590  0.46495  1.0000
  H   H1500     1.0  0.91814  0.08285  0.40618  1.0000
  C   C1880     1.0  0.49865  0.20311  0.39295  1.0000
  H   H1501     1.0  0.82139  0.08601  0.43609  1.0000
  H   H1502     1.0  0.78415  0.27999  0.38980  1.0000
  H   H1503     1.0  0.95517  0.09357  0.38291  1.0000
  C   C1881     1.0  0.91213  0.20244  0.44483  1.0000
  H   H1504     1.0  0.82571  0.31858  0.34607  1.0000
  H   H1505     1.0  0.90947  0.16700  0.39378  1.0000
  H   H1506     1.0  0.90841  0.11702  0.44858  1.0000
  H   H1507     1.0  0.70558  0.20398  0.44131  1.0000
  P   P64       1.0  0.63245  0.03197  0.44984  1.0000
  H   H1508     1.0  0.84714  0.14182  0.43753  1.0000
  H   H1509     1.0  0.86328  0.18624  0.45249  1.0000
  C   C1882     1.0  0.77367  0.31930  0.38817  1.0000
  H   H1510     1.0  0.93573  0.30915  0.33263  1.0000
  H   H1511     1.0  0.97097  0.31737  0.24882  1.0000
  H   H1512     1.0  0.95921  0.21209  0.43600  1.0000
  H   H1513     1.0  0.64980  0.09683  0.45101  1.0000
  C   C1883     1.0  0.53163  0.32609  0.45008  1.0000
  C   C1884     1.0  0.80020  0.14206  0.24295  1.0000
  H   H1514     1.0  0.96963  0.14070  0.36501  1.0000
  H   H1515     1.0  0.66696  0.06192  0.23952  1.0000
  C   C1885     1.0  0.64221  0.07271  0.39944  1.0000
  C   C1886     1.0  0.73664  0.26678  0.46094  1.0000
  H   H1516     1.0  0.68718  0.06441  0.42626  1.0000
  C   C1887     1.0  0.57545  0.31818  0.41221  1.0000
  H   H1517     1.0  0.88447  0.30859  0.30910  1.0000
  Fe  Fe141     1.0  0.80180  0.11655  0.47530  1.0000
  C   C1888     1.0  0.68494  0.05561  0.23479  1.0000
  S   S275      1.0  0.97096  0.32343  0.29682  1.0000
  C   C1889     1.0  0.77532  0.31195  0.42808  1.0000
  C   C1890     1.0  0.79075  0.29289  0.42959  1.0000
  C   C1891     1.0  0.82234  0.30402  0.42362  1.0000
  P   P65       1.0  0.76928  0.25317  0.43688  1.0000
  C   C1892     1.0  0.75589  0.23500  0.41985  1.0000
  C   C1893     1.0  0.73407  0.24199  0.41236  1.0000
  C   C1894     1.0  0.72497  0.23052  0.39846  1.0000
  C   C1895     1.0  0.73714  0.21160  0.39199  1.0000
  C   C1896     1.0  0.75864  0.20422  0.39944  1.0000
  C   C1897     1.0  0.76812  0.21605  0.41329  1.0000
  C   C1898     1.0  0.86557  0.03233  0.44036  1.0000
  C   C1899     1.0  0.78905  0.21050  0.44960  1.0000
  H   H1518     1.0  0.58747  0.03679  0.43010  1.0000
  H   H1519     1.0  0.75073  0.30376  0.43202  1.0000
  H   H1520     1.0  0.72419  0.25659  0.41717  1.0000
  H   H1521     1.0  0.70847  0.23651  0.39271  1.0000
  H   H1522     1.0  0.72984  0.20295  0.38119  1.0000
  H   H1523     1.0  0.76791  0.18928  0.39457  1.0000
  H   H1524     1.0  0.78476  0.21029  0.41878  1.0000
  H   H1525     1.0  0.75795  0.28712  0.46149  1.0000
  H   H1526     1.0  0.77047  0.19351  0.44437  1.0000
  H   H1527     1.0  0.50357  0.09453  0.33746  1.0000
  C   C1900     1.0  0.61306  0.05888  0.40817  1.0000
  C   C1901     1.0  0.68192  0.23615  0.46996  1.0000
  H   H1528     1.0  0.57945  0.28389  0.39876  1.0000
  C   C1902     1.0  0.72857  0.04312  0.23824  1.0000
  H   H1529     1.0  0.72672  0.07770  0.47718  1.0000
  H   H1530     1.0  0.82040  0.28634  0.45494  1.0000
  C   C1903     1.0  0.70993  0.26176  0.47080  1.0000
  Fe  Fe142     1.0  0.51197  0.01325  0.43104  1.0000
  C   C1904     1.0  0.48856  0.17316  0.38901  1.0000
  H   H1531     1.0  0.84516  0.21561  0.47288  1.0000
  H   H1532     1.0  0.52197  0.04894  0.24381  1.0000
  C   C1905     1.0  0.79404  0.24129  0.44775  1.0000
  Fe  Fe143     1.0  0.69247  0.31966  0.45139  1.0000
  H   H1533     1.0  0.50393  0.16188  0.39004  1.0000
  H   H1534     1.0  0.56351  0.30215  0.42234  1.0000
  C   C1906     1.0  0.61540  0.05242  0.46108  1.0000
  C   C1907     1.0  0.73535  0.24635  0.45005  1.0000
  H   H1535     1.0  0.53153  0.30383  0.44904  1.0000
  H   H1536     1.0  0.90424  0.07542  0.46772  1.0000
  H   H1537     1.0  0.83890  0.12720  0.27165  1.0000
  H   H1538     1.0  0.80312  0.17739  0.46023  1.0000
  C   C1908     1.0  0.83565  0.25343  0.46440  1.0000
  C   C1909     1.0  0.77129  0.13429  0.25166  1.0000
  C   C1910     1.0  0.88322  0.08667  0.43211  1.0000
  H   H1539     1.0  0.65888  0.19583  0.45840  1.0000
  H   H1540     1.0  0.58553  0.23990  0.47611  1.0000
  C   C1911     1.0  0.94509  0.10951  0.38532  1.0000
  C   C1912     1.0  0.52201  0.09946  0.37429  1.0000
  C   C1913     1.0  0.52354  0.09467  0.35874  1.0000
  H   H1541     1.0  0.54098  0.08772  0.35391  1.0000
  H   H1542     1.0  0.64391  0.08171  0.38754  1.0000
  C   C1914     1.0  0.86776  0.05581  0.42936  1.0000
  H   H1543     1.0  0.49783  0.11056  0.39284  1.0000
  C   C1915     1.0  0.71438  0.06067  0.46970  1.0000
  C   C1916     1.0  0.94040  0.15673  0.37834  1.0000
  C   C1917     1.0  0.70731  0.22028  0.44953  1.0000
  C   C1918     1.0  0.81701  0.26262  0.45554  1.0000
  C   C1919     1.0  0.58690  0.03699  0.47049  1.0000
  C   C1920     1.0  0.55322  0.00228  0.34154  1.0000
  C   C1921     1.0  0.82437  0.13887  0.25021  1.0000
  C   C1922     1.0  0.65828  0.01138  0.36305  1.0000
  C   C1923     1.0  0.79256  0.30388  0.38554  1.0000
  C   C1924     1.0  0.72794  0.04218  0.46392  1.0000
  H   H1544     1.0  0.69138  0.08544  0.39926  1.0000
  H   H1545     1.0  0.53841  0.09630  0.38148  1.0000
  H   H1546     1.0  0.59248  0.05727  0.40299  1.0000
  C   C1925     1.0  0.80870  0.09428  0.39298  1.0000
  H   H1547     1.0  0.94379  0.16716  0.42127  1.0000
  C   C1926     1.0  0.68368  0.01795  0.44968  1.0000
  H   H1548     1.0  0.87644  0.02131  0.46289  1.0000
  C   C1927     1.0  0.79166  0.12259  0.27464  1.0000
  H   H1549     1.0  0.78844  0.11503  0.28685  1.0000
  H   H1550     1.0  0.74460  0.11804  0.27404  1.0000
  C   C1928     1.0  0.83273  0.13792  0.34763  1.0000
  C   C1929     1.0  0.86192  0.13772  0.34427  1.0000
  C   C1930     1.0  0.88894  0.16261  0.34711  1.0000
  C   C1931     1.0  0.88681  0.18769  0.35340  1.0000
  C   C1932     1.0  0.85753  0.18810  0.35679  1.0000
  C   C1933     1.0  0.83050  0.16291  0.35394  1.0000
  P   P66       1.0  0.85429  0.22003  0.36527  1.0000
  C   C1934     1.0  0.84457  0.21085  0.38594  1.0000
  C   C1935     1.0  0.89155  0.25295  0.36129  1.0000
  C   C1936     1.0  0.91351  0.25967  0.37208  1.0000
  C   C1937     1.0  0.94242  0.28498  0.36895  1.0000
  C   C1938     1.0  0.95003  0.30319  0.35486  1.0000
  C   C1939     1.0  0.92893  0.29592  0.34384  1.0000
  C   C1940     1.0  0.89972  0.27100  0.34702  1.0000
  C   C1941     1.0  0.85060  0.23443  0.39557  1.0000
  C   C1942     1.0  0.84654  0.22770  0.41161  1.0000
  C   C1943     1.0  0.83541  0.19733  0.41814  1.0000
  C   C1944     1.0  0.82836  0.17371  0.40868  1.0000
  C   C1945     1.0  0.83300  0.18036  0.39265  1.0000
  C   C1946     1.0  0.82488  0.22861  0.35656  1.0000
  C   C1947     1.0  0.81947  0.22282  0.34125  1.0000
  C   C1948     1.0  0.79567  0.22773  0.33468  1.0000
  C   C1949     1.0  0.77758  0.23924  0.34319  1.0000
  C   C1950     1.0  0.78347  0.24609  0.35821  1.0000
  C   C1951     1.0  0.80693  0.24069  0.36493  1.0000
  H   H1551     1.0  0.81201  0.11903  0.34483  1.0000
  H   H1552     1.0  0.86365  0.11874  0.33891  1.0000
  H   H1553     1.0  0.91161  0.16287  0.34394  1.0000
  H   H1554     1.0  0.90812  0.20692  0.35522  1.0000
  H   H1555     1.0  0.80777  0.16291  0.35631  1.0000
  H   H1556     1.0  0.90870  0.24520  0.38283  1.0000
  H   H1557     1.0  0.75166  0.13499  0.24634  1.0000
  C   C1952     1.0  0.68071  0.21533  0.45939  1.0000
  S   S276      1.0  0.85189  0.12266  0.47377  1.0000
  H   H1558     1.0  0.88408  0.26544  0.33813  1.0000
  H   H1559     1.0  0.85935  0.25814  0.39069  1.0000
  H   H1560     1.0  0.85184  0.24596  0.41902  1.0000
  H   H1561     1.0  0.83182  0.19193  0.43054  1.0000
  H   H1562     1.0  0.81959  0.15024  0.41386  1.0000
  H   H1563     1.0  0.82792  0.16167  0.38560  1.0000
  H   H1564     1.0  0.83363  0.21439  0.33441  1.0000
  H   H1565     1.0  0.79141  0.22280  0.32294  1.0000
  H   H1566     1.0  0.75908  0.24310  0.33818  1.0000
  H   H1567     1.0  0.76949  0.25540  0.36463  1.0000
  H   H1568     1.0  0.81081  0.24588  0.37663  1.0000
  H   H1569     1.0  0.74475  0.04015  0.24555  1.0000
  S   S277      1.0  0.64535  0.29158  0.46617  1.0000
  H   H1570     1.0  0.73770  0.19107  0.46993  1.0000
  C   C1953     1.0  0.66882  0.07452  0.40603  1.0000
  H   H1571     1.0  0.85785  0.19696  0.23853  1.0000
  H   H1572     1.0  0.48736  0.24165  0.39494  1.0000
  Fe  Fe144     1.0  0.65777  0.31165  0.42312  1.0000
  C   C1954     1.0  0.68554  0.05799  0.46545  1.0000
  C   C1955     1.0  0.82228  0.31938  0.37740  1.0000
  C   C1956     1.0  0.85234  0.31075  0.32734  1.0000
  H   H1573     1.0  0.83675  0.30726  0.37542  1.0000
  C   C1957     1.0  0.92580  0.17163  0.42754  1.0000
  H   H1574     1.0  0.56870  0.02756  0.38217  1.0000
  H   H1575     1.0  0.91907  0.22147  0.45183  1.0000
  H   H1576     1.0  0.54499  0.15252  0.46889  1.0000
  C   C1958     1.0  0.83086  0.22277  0.46593  1.0000
  H   H1577     1.0  0.66092  0.23280  0.47718  1.0000
  C   C1959     1.0  0.63681  0.04808  0.43010  1.0000
  H   H1578     1.0  0.67210  0.00147  0.44180  1.0000
  H   H1579     1.0  0.80501  0.09627  0.38094  1.0000
  C   C1960     1.0  0.89453  0.07005  0.45687  1.0000
  C   C1961     1.0  0.89677  0.09360  0.44593  1.0000
  C   C1962     1.0  0.71259  0.02080  0.45392  1.0000
  C   C1963     1.0  0.87879  0.03945  0.45415  1.0000
  H   H1580     1.0  0.85364  0.27002  0.47020  1.0000
  H   H1581     1.0  0.72322  0.00662  0.44938  1.0000
  H   H1582     1.0  0.75033  0.30731  0.39421  1.0000
  C   C1964     1.0  0.58416  0.30788  0.39890  1.0000
  H   H1583     1.0  0.97268  0.32241  0.35224  1.0000
  H   H1584     1.0  0.71076  0.27842  0.47869  1.0000
  H   H1585     1.0  0.57635  0.09832  0.48199  1.0000
  H   H1586     1.0  0.60883  0.32101  0.37606  1.0000
  C   C1965     1.0  0.49960  0.04185  0.25055  1.0000
  C   C1966     1.0  0.60058  0.32882  0.38606  1.0000
  H   H1587     1.0  0.57421  0.01238  0.47124  1.0000
  H   H1588     1.0  0.49187  0.27341  0.47243  1.0000
  H   H1589     1.0  0.48876  0.00724  0.34991  1.0000
  C   C1967     1.0  0.48521  0.14883  0.44482  1.0000
  H   H1590     1.0  0.51199  0.32528  0.48105  1.0000
  C   C1968     1.0  0.50414  0.33058  0.44814  1.0000
  C   C1969     1.0  0.73256  0.19179  0.48209  1.0000
  H   H1591     1.0  0.63605  0.99752  0.28941  1.0000
  C   C1970     1.0  0.48686  0.27621  0.48437  1.0000
  S   S278      1.0  0.80985  0.15205  0.49178  1.0000
  H   H1592     1.0  0.65142  0.17751  0.53621  1.0000
  Fe  Fe145     1.0  0.83649  0.08590  0.49397  1.0000
  S   S279      1.0  0.78591  0.07740  0.49439  1.0000
  H   H1593     1.0  0.93378  0.30856  0.56876  1.0000
  Fe  Fe146     1.0  0.79799  0.11395  0.51090  1.0000
  S   S280      1.0  0.76338  0.10969  0.53162  1.0000
  S   S281      1.0  0.84781  0.12084  0.51141  1.0000
  H   H1594     1.0  0.96731  0.28462  0.65710  1.0000
  Fe  Fe147     1.0  0.75404  0.14506  0.65388  1.0000
  S   S282      1.0  0.71534  0.10170  0.66574  1.0000
  S   S283      1.0  0.77258  0.18971  0.66508  1.0000
  Fe  Fe148     1.0  0.75980  0.11548  0.62434  1.0000
  S   S284      1.0  0.72239  0.06944  0.63428  1.0000
  S   S285      1.0  0.79204  0.12620  0.60173  1.0000
  Fe  Fe149     1.0  0.69604  0.09609  0.64285  1.0000
  S   S286      1.0  0.64356  0.07259  0.64226  1.0000
  Fe  Fe150     1.0  0.74399  0.07822  0.65650  1.0000
  S   S287      1.0  0.75362  0.04359  0.67157  1.0000
  S   S288      1.0  0.73210  0.14178  0.63154  1.0000
  S   S289      1.0  0.78407  0.12199  0.64601  1.0000
  S   S290      1.0  0.55201  0.13879  0.64276  1.0000
  C   C1971     1.0  0.76121  0.10049  0.71082  1.0000
  H   H1595     1.0  0.49932  0.15471  0.55482  1.0000
  Fe  Fe151     1.0  0.85947  0.15683  0.49111  1.0000
  C   C1972     1.0  0.63447  0.09922  0.67918  1.0000
  H   H1596     1.0  0.52733  0.00604  0.72278  1.0000
  C   C1973     1.0  0.58395  0.09895  0.68595  1.0000
  C   C1974     1.0  0.79443  0.19431  0.68110  1.0000
  C   C1975     1.0  0.80069  0.22009  0.68919  1.0000
  C   C1976     1.0  0.81845  0.22475  0.70183  1.0000
  C   C1977     1.0  0.83021  0.20363  0.70643  1.0000
  C   C1978     1.0  0.82426  0.17809  0.69820  1.0000
  C   C1979     1.0  0.80617  0.17323  0.68572  1.0000
  H   H1597     1.0  0.79154  0.23639  0.68573  1.0000
  H   H1598     1.0  0.82301  0.24462  0.70799  1.0000
  H   H1599     1.0  0.83339  0.16171  0.70159  1.0000
  H   H1600     1.0  0.80151  0.15326  0.67961  1.0000
  C   C1980     1.0  0.97720  0.31029  0.51892  1.0000
  C   C1981     1.0  0.61998  0.02357  0.71907  1.0000
  H   H1601     1.0  0.65807  0.11087  0.67349  1.0000
  C   C1982     1.0  0.61864  0.09156  0.64233  1.0000
  C   C1983     1.0  0.58616  0.07395  0.64388  1.0000
  C   C1984     1.0  0.56547  0.08810  0.64417  1.0000
  C   C1985     1.0  0.57716  0.12006  0.64272  1.0000
  C   C1986     1.0  0.60965  0.13772  0.64112  1.0000
  C   C1987     1.0  0.63036  0.12355  0.64097  1.0000
  H   H1602     1.0  0.57689  0.04923  0.64477  1.0000
  H   H1603     1.0  0.54052  0.07431  0.64535  1.0000
  H   H1604     1.0  0.61881  0.16246  0.63997  1.0000
  H   H1605     1.0  0.65532  0.13731  0.63975  1.0000
  C   C1988     1.0  0.84097  0.00919  0.49542  1.0000
  H   H1606     1.0  0.65010  0.18061  0.56440  1.0000
  C   C1989     1.0  0.77148  0.11264  0.55118  1.0000
  C   C1990     1.0  0.74727  0.10871  0.56266  1.0000
  C   C1991     1.0  0.75284  0.11218  0.57823  1.0000
  C   C1992     1.0  0.78284  0.11967  0.58251  1.0000
  C   C1993     1.0  0.80693  0.12323  0.57104  1.0000
  C   C1994     1.0  0.80139  0.11980  0.55548  1.0000
  H   H1607     1.0  0.72409  0.10299  0.55946  1.0000
  H   H1608     1.0  0.73403  0.10930  0.58690  1.0000
  H   H1609     1.0  0.82997  0.12844  0.57431  1.0000
  H   H1610     1.0  0.82028  0.12289  0.54682  1.0000
  H   H1611     1.0  0.75536  0.15547  0.73126  1.0000
  H   H1612     1.0  0.66964  0.02628  0.50142  1.0000
  H   H1613     1.0  0.79010  0.13037  0.72616  1.0000
  H   H1614     1.0  0.56209  0.32649  0.70508  1.0000
  H   H1615     1.0  0.94863  0.19445  0.49227  1.0000
  H   H1616     1.0  0.75774  0.23781  0.51061  1.0000
  C   C1995     1.0  0.83610  0.20770  0.63734  1.0000
  H   H1617     1.0  0.92405  0.22813  0.59798  1.0000
  C   C1996     1.0  0.53565  0.24799  0.51130  1.0000
  C   C1997     1.0  0.53809  0.22014  0.51005  1.0000
  C   C1998     1.0  0.92661  0.27040  0.67393  1.0000
  P   P67       1.0  0.51561  0.18673  0.52366  1.0000
  C   C1999     1.0  0.53908  0.18153  0.53795  1.0000
  H   H1618     1.0  0.95864  0.31508  0.71118  1.0000
  C   C2000     1.0  0.48783  0.21047  0.54533  1.0000
  H   H1619     1.0  0.71577  0.06757  0.51022  1.0000
  P   P68       1.0  0.90522  0.28514  0.66207  1.0000
  H   H1620     1.0  0.88151  0.21745  0.66656  1.0000
  C   C2001     1.0  0.89963  0.31879  0.68587  1.0000
  C   C2002     1.0  0.52455  0.16464  0.55227  1.0000
  H   H1621     1.0  0.92567  0.15412  0.51633  1.0000
  C   C2003     1.0  0.57171  0.19371  0.53488  1.0000
  C   C2004     1.0  0.50192  0.15352  0.51303  1.0000
  C   C2005     1.0  0.49744  0.12463  0.51992  1.0000
  C   C2006     1.0  0.97789  0.30680  0.57151  1.0000
  C   C2007     1.0  0.56922  0.26990  0.48728  1.0000
  H   H1622     1.0  0.63805  0.05672  0.68394  1.0000
  C   C2008     1.0  0.94737  0.30954  0.52120  1.0000
  H   H1623     1.0  0.92755  0.28469  0.62978  1.0000
  H   H1624     1.0  0.52115  0.25060  0.52069  1.0000
  C   C2009     1.0  0.59165  0.05257  0.69156  1.0000
  H   H1625     1.0  0.51119  0.22366  0.54825  1.0000
  H   H1626     1.0  0.56860  0.11049  0.68563  1.0000
  H   H1627     1.0  0.97151  0.23744  0.69966  1.0000
  C   C2010     1.0  0.49170  0.30946  0.50466  1.0000
  C   C2011     1.0  0.88433  0.30043  0.67460  1.0000
  H   H1628     1.0  0.70120  0.00437  0.65430  1.0000
  H   H1629     1.0  0.58346  0.20658  0.52390  1.0000
  C   C2012     1.0  0.75080  0.21715  0.48933  1.0000
  C   C2013     1.0  0.57511  0.14217  0.50178  1.0000
  H   H1630     1.0  0.81199  0.29826  0.68339  1.0000
  H   H1631     1.0  0.54797  0.05679  0.69654  1.0000
  H   H1632     1.0  0.71269  0.19518  0.52553  1.0000
  C   C2014     1.0  0.58954  0.18937  0.54609  1.0000
  C   C2015     1.0  0.49617  0.15648  0.49761  1.0000
  H   H1633     1.0  0.65621  0.17993  0.71491  1.0000
  C   C2016     1.0  0.57232  0.06824  0.69202  1.0000
  H   H1634     1.0  0.55391  0.14238  0.49803  1.0000
  H   H1635     1.0  0.63558  0.04250  0.71088  1.0000
  S   S291      1.0  0.89444  0.20780  0.48684  1.0000
  C   C2017     1.0  0.84228  0.23823  0.63296  1.0000
  H   H1636     1.0  0.50939  0.18643  0.71240  1.0000
  C   C2018     1.0  0.86337  0.26164  0.64042  1.0000
  C   C2019     1.0  0.70712  0.16745  0.49046  1.0000
  H   H1637     1.0  0.53096  0.14710  0.57443  1.0000
  S   S292      1.0  0.85229  0.20791  0.72237  1.0000
  C   C2020     1.0  0.72478  0.01825  0.68609  1.0000
  H   H1638     1.0  0.84488  0.17672  0.65311  1.0000
  C   C2021     1.0  0.57490  0.17256  0.56033  1.0000
  S   S293      1.0  0.85707  0.05014  0.49497  1.0000
  C   C2022     1.0  0.69925  0.16852  0.50612  1.0000
  C   C2023     1.0  0.95903  0.24659  0.69246  1.0000
  C   C2024     1.0  0.76863  0.12337  0.72078  1.0000
  C   C2025     1.0  0.95635  0.27308  0.66842  1.0000
  H   H1639     1.0  0.83019  0.24357  0.62397  1.0000
  C   C2026     1.0  0.71376  0.10600  0.70656  1.0000
  C   C2027     1.0  0.54241  0.16017  0.56340  1.0000
  C   C2028     1.0  0.73981  0.20270  0.72659  1.0000
  H   H1640     1.0  0.96797  0.28819  0.58071  1.0000
  H   H1641     1.0  0.49842  0.17816  0.49205  1.0000
  C   C2029     1.0  0.87824  0.25461  0.65244  1.0000
  H   H1642     1.0  0.91882  0.23235  0.70942  1.0000
  C   C2030     1.0  0.85058  0.20050  0.64937  1.0000
  H   H1643     1.0  0.61676  0.99996  0.64639  1.0000
  C   C2031     1.0  0.60129  0.12311  0.51967  1.0000
  C   C2032     1.0  0.50608  0.32217  0.68184  1.0000
  C   C2033     1.0  0.91032  0.23372  0.58997  1.0000
  C   C2034     1.0  0.48617  0.18343  0.71022  1.0000
  H   H1644     1.0  0.66205  0.14436  0.58129  1.0000
  H   H1645     1.0  0.79410  0.00240  0.49214  1.0000
  H   H1646     1.0  0.61888  0.08181  0.50482  1.0000
  C   C2035     1.0  0.85221  0.32299  0.69497  1.0000
  C   C2036     1.0  0.57224  0.24250  0.48611  1.0000
  H   H1647     1.0  0.48470  0.15683  0.69104  1.0000
  C   C2037     1.0  0.63001  0.13997  0.51062  1.0000
  C   C2038     1.0  0.61496  0.11438  0.67951  1.0000
  H   H1648     1.0  0.86773  0.28521  0.63700  1.0000
  H   H1649     1.0  0.61471  0.19921  0.54375  1.0000
  H   H1650     1.0  0.83965  0.27816  0.66564  1.0000
  H   H1651     1.0  0.85695  0.26381  0.58860  1.0000
  C   C2039     1.0  0.51756  0.28801  0.70569  1.0000
  H   H1652     1.0  0.88886  0.25154  0.60690  1.0000
  H   H1653     1.0  0.71392  0.11600  0.51609  1.0000
  H   H1654     1.0  0.50031  0.12127  0.53195  1.0000
  H   H1655     1.0  0.58865  0.16915  0.56903  1.0000
  H   H1656     1.0  0.69246  0.09877  0.70106  1.0000
  H   H1657     1.0  0.62147  0.03396  0.49852  1.0000
  H   H1658     1.0  0.89018  0.25291  0.69322  1.0000
  C   C2040     1.0  0.97245  0.26114  0.67767  1.0000
  C   C2041     1.0  0.91324  0.25558  0.68877  1.0000
  C   C2042     1.0  0.85255  0.29315  0.67377  1.0000
  C   C2043     1.0  0.89048  0.24690  0.59499  1.0000
  C   C2044     1.0  0.72155  0.12975  0.71612  1.0000
  H   H1659     1.0  0.81932  0.18949  0.63175  1.0000
  H   H1660     1.0  0.77680  0.08963  0.70844  1.0000
  C   C2045     1.0  0.87136  0.22379  0.65700  1.0000
  H   H1661     1.0  0.96176  0.23925  0.53565  1.0000
  H   H1662     1.0  0.67755  0.10194  0.54202  1.0000
  C   C2046     1.0  0.69442  0.01639  0.68751  1.0000
  C   C2047     1.0  0.68737  0.16442  0.70259  1.0000
  C   C2048     1.0  0.66732  0.17918  0.70375  1.0000
  C   C2049     1.0  0.66139  0.19296  0.69052  1.0000
  C   C2050     1.0  0.67571  0.19240  0.67606  1.0000
  C   C2051     1.0  0.69592  0.17805  0.67484  1.0000
  C   C2052     1.0  0.70195  0.16432  0.68806  1.0000
  C   C2053     1.0  0.49804  0.30557  0.48924  1.0000
  H   H1663     1.0  0.67574  0.10529  0.56997  1.0000
  Fe  Fe152     1.0  0.49914  0.11250  0.64623  1.0000
  C   C2054     1.0  0.95739  0.25872  0.53180  1.0000
  H   H1664     1.0  0.64569  0.20406  0.69146  1.0000
  H   H1665     1.0  0.67111  0.20295  0.66577  1.0000
  H   H1666     1.0  0.70725  0.17780  0.66364  1.0000
  H   H1667     1.0  0.71834  0.15410  0.68682  1.0000
  H   H1668     1.0  0.59505  0.02461  0.66457  1.0000
  C   C2055     1.0  0.83661  0.30443  0.68393  1.0000
  C   C2056     1.0  0.71785  0.19390  0.51342  1.0000
  C   C2057     1.0  0.95650  0.21904  0.49041  1.0000
  C   C2058     1.0  0.48787  0.09929  0.51144  1.0000
  C   C2059     1.0  0.58904  0.00582  0.71634  1.0000
  C   C2060     1.0  0.57396  0.12419  0.51523  1.0000
  C   C2061     1.0  0.92257  0.28351  0.52896  1.0000
  C   C2062     1.0  0.92726  0.25764  0.53402  1.0000
  H   H1669     1.0  0.96559  0.32509  0.61045  1.0000
  P   P69       1.0  0.89554  0.22464  0.54464  1.0000
  C   C2063     1.0  0.89344  0.23328  0.56435  1.0000
  C   C2064     1.0  0.85923  0.21621  0.53662  1.0000
  C   C2065     1.0  0.83073  0.19880  0.54574  1.0000
  C   C2066     1.0  0.80259  0.18978  0.53921  1.0000
  C   C2067     1.0  0.80272  0.19749  0.52352  1.0000
  C   C2068     1.0  0.83099  0.21472  0.51436  1.0000
  C   C2069     1.0  0.85918  0.22387  0.52085  1.0000
  C   C2070     1.0  0.91205  0.22724  0.57466  1.0000
  H   H1670     1.0  0.72822  0.07415  0.69604  1.0000
  C   C2071     1.0  0.74353  0.21815  0.50500  1.0000
  C   C2072     1.0  0.87249  0.25376  0.58468  1.0000
  C   C2073     1.0  0.87408  0.24715  0.56938  1.0000
  C   C2074     1.0  0.90122  0.19014  0.54305  1.0000
  C   C2075     1.0  0.91366  0.18529  0.52895  1.0000
  C   C2076     1.0  0.91649  0.15788  0.52734  1.0000
  C   C2077     1.0  0.90599  0.13470  0.53965  1.0000
  C   C2078     1.0  0.89279  0.13902  0.55361  1.0000
  C   C2079     1.0  0.89029  0.16659  0.55530  1.0000
  C   C2080     1.0  0.92944  0.24381  0.69799  1.0000
  H   H1671     1.0  0.89968  0.28344  0.53082  1.0000
  P   P70       1.0  0.69482  0.14711  0.71989  1.0000
  H   H1672     1.0  0.83018  0.19115  0.55774  1.0000
  H   H1673     1.0  0.78073  0.17556  0.54619  1.0000
  H   H1674     1.0  0.78099  0.18909  0.51836  1.0000
  H   H1675     1.0  0.83125  0.21995  0.50210  1.0000
  H   H1676     1.0  0.88089  0.23588  0.51340  1.0000
  H   H1677     1.0  0.92748  0.21701  0.57096  1.0000
  H   H1678     1.0  0.62976  0.11790  0.71199  1.0000
  H   H1679     1.0  0.59996  0.10879  0.53004  1.0000
  H   H1680     1.0  0.69311  0.14807  0.48460  1.0000
  H   H1681     1.0  0.85999  0.25261  0.56154  1.0000
  H   H1682     1.0  0.92037  0.20236  0.51908  1.0000
  H   H1683     1.0  0.75244  0.20302  0.71566  1.0000
  H   H1684     1.0  0.90716  0.11303  0.53819  1.0000
  H   H1685     1.0  0.88357  0.12061  0.56297  1.0000
  H   H1686     1.0  0.87892  0.16904  0.56599  1.0000
  P   P71       1.0  0.57587  0.01199  0.69803  1.0000
  C   C2081     1.0  0.67041  0.12101  0.56254  1.0000
  C   C2082     1.0  0.66268  0.14306  0.56894  1.0000
  C   C2083     1.0  0.65587  0.16340  0.55941  1.0000
  C   C2084     1.0  0.65662  0.16157  0.54349  1.0000
  C   C2085     1.0  0.66428  0.13940  0.53696  1.0000
  C   C2086     1.0  0.67137  0.11920  0.54661  1.0000
  P   P72       1.0  0.66494  0.13762  0.51633  1.0000
  C   C2087     1.0  0.66604  0.10233  0.51129  1.0000
  C   C2088     1.0  0.93507  0.23124  0.48743  1.0000
  C   C2089     1.0  0.54015  0.31726  0.70016  1.0000
  C   C2090     1.0  0.55133  0.27277  0.49997  1.0000
  C   C2091     1.0  0.98223  0.28498  0.52432  1.0000
  H   H1687     1.0  0.55181  0.11078  0.52213  1.0000
  C   C2092     1.0  0.73374  0.09175  0.70380  1.0000
  C   C2093     1.0  0.64013  0.07907  0.50613  1.0000
  C   C2094     1.0  0.55738  0.21801  0.49760  1.0000
  C   C2095     1.0  0.66861  0.04749  0.50410  1.0000
  C   C2096     1.0  0.69464  0.07075  0.50895  1.0000
  C   C2097     1.0  0.69350  0.09819  0.51234  1.0000
  H   H1688     1.0  0.97107  0.20477  0.55742  1.0000
  H   H1689     1.0  0.65258  0.17166  0.48995  1.0000
  C   C2098     1.0  0.88377  0.33025  0.69589  1.0000
  C   C2099     1.0  0.63099  0.15830  0.49721  1.0000
  H   H1690     1.0  0.52202  0.27460  0.71487  1.0000
  H   H1691     1.0  0.55998  0.19699  0.49634  1.0000
  C   C2100     1.0  0.64149  0.05178  0.50252  1.0000
  H   H1692     1.0  0.68825  0.03078  0.67968  1.0000
  H   H1693     1.0  0.54897  0.29399  0.50078  1.0000
  C   C2101     1.0  0.95852  0.31842  0.56486  1.0000
  C   C2102     1.0  0.60363  0.15937  0.49286  1.0000
  H   H1694     1.0  0.62345  0.13769  0.67416  1.0000
  C   C2103     1.0  0.62292  0.06843  0.68510  1.0000
  C   C2104     1.0  0.93288  0.31480  0.64777  1.0000
  H   H1695     1.0  0.55054  0.04169  0.48490  1.0000
  H   H1696     1.0  0.88497  0.00756  0.49869  1.0000
  C   C2105     1.0  0.93910  0.30779  0.63288  1.0000
  H   H1697     1.0  0.58244  0.07583  0.72540  1.0000
  C   C2106     1.0  0.94605  0.26335  0.48485  1.0000
  C   C2107     1.0  0.65947  0.11654  0.72951  1.0000
  C   C2108     1.0  0.74890  0.13793  0.72346  1.0000
  H   H1698     1.0  0.92378  0.32391  0.68707  1.0000
  C   C2109     1.0  0.97785  0.28301  0.48534  1.0000
  C   C2110     1.0  0.63115  0.10709  0.72297  1.0000
  C   C2111     1.0  0.59759  0.00421  0.66874  1.0000
  C   C2112     1.0  0.48907  0.27595  0.69948  1.0000
  C   C2113     1.0  0.60418  0.08300  0.73051  1.0000
  H   H1699     1.0  0.77040  0.23609  0.48276  1.0000
  H   H1700     1.0  0.92982  0.27317  0.48248  1.0000
  C   C2114     1.0  0.48751  0.13134  0.48909  1.0000
  H   H1701     1.0  0.94354  0.32915  0.51689  1.0000
  C   C2115     1.0  0.73231  0.99917  0.69625  1.0000
  H   H1702     1.0  0.75576  0.00058  0.69523  1.0000
  C   C2116     1.0  0.51619  0.99814  0.71256  1.0000
  C   C2117     1.0  0.96078  0.33056  0.62189  1.0000
  C   C2118     1.0  0.53383  0.99740  0.69905  1.0000
  C   C2119     1.0  0.63179  0.01606  0.73212  1.0000
  C   C2120     1.0  0.71094  0.17806  0.73174  1.0000
  H   H1703     1.0  0.77573  0.24517  0.73189  1.0000
  Fe  Fe153     1.0  0.90055  0.17336  0.89902  1.0000
  S   S294      1.0  0.87038  0.19912  0.89913  1.0000
  S   S295      1.0  0.88717  0.12307  0.90575  1.0000
  S   S296      1.0  0.93541  0.26150  0.88993  1.0000
  Fe  Fe154     1.0  0.90715  0.23280  0.91183  1.0000
  S   S297      1.0  0.89625  0.25790  0.93105  1.0000
  Fe  Fe155     1.0  0.90093  0.22567  0.87723  1.0000
  S   S298      1.0  0.87922  0.23880  0.85703  1.0000
  S   S299      1.0  0.93510  0.20516  0.91326  1.0000
  S   S300      1.0  0.92813  0.19720  0.87633  1.0000
  H   H1704     1.0  0.87479  0.06596  0.86783  1.0000
  H   H1705     1.0  0.88846  0.16240  0.83764  1.0000
  H   H1706     1.0  0.95076  0.31095  0.91104  1.0000
  H   H1707     1.0  0.74728  0.24511  0.75686  1.0000
  H   H1708     1.0  0.93210  0.15976  0.85037  1.0000
  Fe  Fe156     1.0  0.96060  0.23114  0.89056  1.0000
  H   H1709     1.0  0.83103  0.20162  0.79826  1.0000
  Fe  Fe157     1.0  0.89937  0.26763  0.76661  1.0000
  S   S301      1.0  0.89553  0.31262  0.76445  1.0000
  S   S302      1.0  0.92488  0.25470  0.78504  1.0000
  Fe  Fe158     1.0  0.84685  0.28488  0.75879  1.0000
  S   S303      1.0  0.80205  0.28769  0.76759  1.0000
  C   C2121     1.0  0.79454  0.09121  0.96468  1.0000
  S   S304      1.0  0.84957  0.23953  0.76261  1.0000
  S   S305      1.0  0.91726  0.27178  0.74151  1.0000
  C   C2122     1.0  0.62280  0.29565  0.75037  1.0000
  H   H1710     1.0  0.92518  0.11193  0.86588  1.0000
  C   C2123     1.0  0.84081  0.25873  0.90244  1.0000
  H   H1711     1.0  0.95424  0.29186  0.84294  1.0000
  C   C2124     1.0  0.50426  0.24732  0.87899  1.0000
  H   H1712     1.0  0.67449  0.29546  0.77652  1.0000
  H   H1713     1.0  0.73365  0.13150  0.86126  1.0000
  H   H1714     1.0  0.75157  0.29649  0.78288  1.0000
  H   H1715     1.0  0.70393  0.00504  0.90683  1.0000
  H   H1716     1.0  0.89201  0.15864  0.78723  1.0000
  H   H1717     1.0  0.58187  0.24900  0.89104  1.0000
  H   H1718     1.0  0.87170  0.19701  0.78051  1.0000
  C   C2125     1.0  0.82757  0.16496  0.81496  1.0000
  H   H1719     1.0  0.76561  0.17104  0.87729  1.0000
  C   C2126     1.0  0.86233  0.18177  0.79112  1.0000
  H   H1720     1.0  0.63875  0.28660  0.75428  1.0000
  C   C2127     1.0  0.98279  0.21328  0.94071  1.0000
  C   C2128     1.0  0.64049  0.26881  0.97522  1.0000
  C   C2129     1.0  0.83932  0.18428  0.80114  1.0000
  C   C2130     1.0  0.89176  0.24185  0.83705  1.0000
  C   C2131     1.0  0.91578  0.23399  0.83171  1.0000
  C   C2132     1.0  0.92527  0.23745  0.81574  1.0000
  C   C2133     1.0  0.91115  0.24907  0.80497  1.0000
  C   C2134     1.0  0.88703  0.25669  0.81031  1.0000
  C   C2135     1.0  0.87734  0.25294  0.82622  1.0000
  H   H1721     1.0  0.92709  0.22536  0.83987  1.0000
  H   H1722     1.0  0.94374  0.23123  0.81170  1.0000
  H   H1723     1.0  0.87591  0.26566  0.80219  1.0000
  H   H1724     1.0  0.85879  0.25911  0.83010  1.0000
  C   C2136     1.0  0.89019  0.24680  0.95130  1.0000
  C   C2137     1.0  0.88105  0.26407  0.96127  1.0000
  C   C2138     1.0  0.89410  0.22138  0.95767  1.0000
  H   H1725     1.0  0.87799  0.28380  0.95650  1.0000
  H   H1726     1.0  0.90126  0.20794  0.95019  1.0000
  C   C2139     1.0  0.80416  0.04596  0.88875  1.0000
  C   C2140     1.0  0.82574  0.03956  0.89657  1.0000
  C   C2141     1.0  0.85111  0.06355  0.90167  1.0000
  C   C2142     1.0  0.85507  0.09401  0.89899  1.0000
  C   C2143     1.0  0.83334  0.10048  0.89127  1.0000
  C   C2144     1.0  0.80793  0.07648  0.88618  1.0000
  H   H1727     1.0  0.86806  0.05863  0.90754  1.0000
  H   H1728     1.0  0.83616  0.12390  0.88921  1.0000
  H   H1729     1.0  0.79118  0.08169  0.88029  1.0000
  H   H1730     1.0  0.97475  0.26967  0.75466  1.0000
  H   H1731     1.0  0.96650  0.24028  0.95414  1.0000
  H   H1732     1.0  0.81534  0.02463  0.83559  1.0000
  H   H1733     1.0  0.56510  0.30782  0.97825  1.0000
  C   C2145     1.0  0.75296  0.22667  0.73568  1.0000
  C   C2146     1.0  0.82843  0.33028  0.78804  1.0000
  H   H1734     1.0  0.55494  0.32339  0.82774  1.0000
  C   C2147     1.0  0.86521  0.28391  0.89392  1.0000
  H   H1735     1.0  0.90344  0.05521  0.94601  1.0000
  C   C2148     1.0  0.70782  0.20263  0.75479  1.0000
  C   C2149     1.0  0.57084  0.28741  0.74474  1.0000
  C   C2150     1.0  0.63327  0.32716  0.74627  1.0000
  P   P73       1.0  0.82295  0.30138  0.85740  1.0000
  C   C2151     1.0  0.74354  0.04205  0.91400  1.0000
  C   C2152     1.0  0.55645  0.24888  0.91259  1.0000
  H   H1736     1.0  0.79578  0.13055  0.97556  1.0000
  H   H1737     1.0  0.85057  0.33021  0.78412  1.0000
  C   C2153     1.0  0.80380  0.27294  0.84470  1.0000
  C   C2154     1.0  0.52265  0.29681  0.94755  1.0000
  H   H1738     1.0  0.89148  0.19342  0.97860  1.0000
  H   H1739     1.0  0.58454  0.04901  0.75024  1.0000
  C   C2155     1.0  0.79000  0.22231  0.83631  1.0000
  H   H1740     1.0  0.69549  0.20276  0.76571  1.0000
  H   H1741     1.0  0.50729  0.23527  0.86946  1.0000
  C   C2156     1.0  0.55726  0.26313  0.92609  1.0000
  C   C2157     1.0  0.60785  0.25529  0.97727  1.0000
  H   H1742     1.0  0.63167  0.31886  0.91926  1.0000
  C   C2158     1.0  0.82315  0.15670  0.85882  1.0000
  H   H1743     1.0  0.52487  0.29746  0.93511  1.0000
  Fe  Fe159     1.0  0.49956  0.30053  0.76782  1.0000
  P   P74       1.0  0.79319  0.04050  0.95030  1.0000
  C   C2159     1.0  0.80707  0.08096  0.95238  1.0000
  H   H1744     1.0  0.81255  0.23666  0.85651  1.0000
  C   C2160     1.0  0.87582  0.01938  0.93283  1.0000
  C   C2161     1.0  0.82570  0.03271  0.94319  1.0000
  C   C2162     1.0  0.53155  0.32026  0.83189  1.0000
  C   C2163     1.0  0.80528  0.12264  0.96601  1.0000
  H   H1745     1.0  0.92190  0.30005  0.86388  1.0000
  H   H1746     1.0  0.89520  0.01442  0.92870  1.0000
  C   C2164     1.0  0.79950  0.32053  0.86410  1.0000
  C   C2165     1.0  0.76792  0.31001  0.86164  1.0000
  Fe  Fe160     1.0  0.90987  0.31478  0.73903  1.0000
  C   C2166     1.0  0.58252  0.26004  0.90150  1.0000
  H   H1747     1.0  0.78292  0.25040  0.87994  1.0000
  H   H1748     1.0  0.71460  0.28638  0.76025  1.0000
  C   C2167     1.0  0.88042  0.04230  0.94260  1.0000
  C   C2168     1.0  0.79299  0.28143  0.83145  1.0000
  C   C2169     1.0  0.63359  0.07677  0.75092  1.0000
  H   H1749     1.0  0.73035  0.01694  0.96720  1.0000
  C   C2170     1.0  0.56946  0.29872  0.78500  1.0000
  H   H1750     1.0  0.74005  0.01372  0.85157  1.0000
  H   H1751     1.0  0.59473  0.27146  0.79002  1.0000
  S   S306      1.0  0.49523  0.29927  0.74240  1.0000
  P   P75       1.0  0.58588  0.30800  0.94577  1.0000
  C   C2171     1.0  0.77896  0.23085  0.82323  1.0000
  C   C2172     1.0  0.65650  0.29434  0.96438  1.0000
  H   H1752     1.0  0.67205  0.16027  0.74985  1.0000
  C   C2173     1.0  0.80882  0.16993  0.86866  1.0000
  H   H1753     1.0  0.85835  0.15047  0.93403  1.0000
  C   C2174     1.0  0.86213  0.14074  0.80873  1.0000
  H   H1754     1.0  0.54450  0.22760  0.82467  1.0000
  C   C2175     1.0  0.77249  0.04290  0.81472  1.0000
  C   C2176     1.0  0.82827  0.14401  0.95499  1.0000
  C   C2177     1.0  0.82996  0.10262  0.94131  1.0000
  H   H1755     1.0  0.88797  0.29324  0.89808  1.0000
  C   C2178     1.0  0.79410  0.07194  0.81753  1.0000
  C   C2179     1.0  0.60536  0.06792  0.74451  1.0000
  H   H1756     1.0  0.78363  0.07400  0.92312  1.0000
  H   H1757     1.0  0.83122  0.06765  0.85497  1.0000
  C   C2180     1.0  0.76436  0.02962  0.93675  1.0000
  S   S307      1.0  0.48929  0.21792  0.73436  1.0000
  H   H1758     1.0  0.78973  0.19975  0.83799  1.0000
  C   C2181     1.0  0.83887  0.14299  0.81883  1.0000
  C   C2182     1.0  0.81124  0.24669  0.89734  1.0000
  C   C2183     1.0  0.94650  0.31532  0.86164  1.0000
  C   C2184     1.0  0.83064  0.28455  0.87480  1.0000
  C   C2185     1.0  0.58391  0.28929  0.92836  1.0000
  H   H1759     1.0  0.75867  0.10857  0.84354  1.0000
  H   H1760     1.0  0.63464  0.06471  0.76163  1.0000
  H   H1761     1.0  0.53724  0.25341  0.93476  1.0000
  H   H1762     1.0  0.81571  0.00642  0.80970  1.0000
  C   C2186     1.0  0.98062  0.30751  0.92771  1.0000
  C   C2187     1.0  0.77624  0.05910  0.84482  1.0000
  H   H1763     1.0  0.77730  0.06486  0.85657  1.0000
  H   H1764     1.0  0.82289  0.18758  0.87544  1.0000
  H   H1765     1.0  0.79475  0.30453  0.82918  1.0000
  C   C2188     1.0  0.88852  0.21319  0.97380  1.0000
  H   H1766     1.0  0.80992  0.16744  0.82257  1.0000
  H   H1767     1.0  0.77086  0.03657  0.80303  1.0000
  C   C2189     1.0  0.54526  0.30272  0.97175  1.0000
  H   H1768     1.0  0.80887  0.08769  0.80784  1.0000
  H   H1769     1.0  0.56591  0.25614  0.97005  1.0000
  C   C2190     1.0  0.88276  0.32039  0.84235  1.0000
  C   C2191     1.0  0.73698  0.22661  0.74978  1.0000
  C   C2192     1.0  0.75488  0.03005  0.84199  1.0000
  C   C2193     1.0  0.69474  0.17844  0.74579  1.0000
  H   H1770     1.0  0.87127  0.12405  0.81153  1.0000
  H   H1771     1.0  0.63133  0.27748  0.84266  1.0000
  H   H1772     1.0  0.65608  0.02906  0.73377  1.0000
  S   S308      1.0  0.64556  0.30797  0.80638  1.0000
  H   H1773     1.0  0.48796  0.28872  0.91279  1.0000
  H   H1774     1.0  0.79882  0.99743  0.92935  1.0000
  C   C2194     1.0  0.87382  0.16012  0.79494  1.0000
  H   H1775     1.0  0.84477  0.24873  0.91310  1.0000
  H   H1776     1.0  0.84822  0.16456  0.85820  1.0000
  H   H1777     1.0  0.85946  0.06667  0.95542  1.0000
  C   C2195     1.0  0.87796  0.08668  0.86084  1.0000
  C   C2196     1.0  0.90636  0.11259  0.85974  1.0000
  C   C2197     1.0  0.91016  0.13958  0.85109  1.0000
  C   C2198     1.0  0.88535  0.14091  0.84384  1.0000
  C   C2199     1.0  0.85658  0.11500  0.84498  1.0000
  C   C2200     1.0  0.85315  0.08782  0.85350  1.0000
  P   P76       1.0  0.82391  0.11779  0.83661  1.0000
  C   C2201     1.0  0.79621  0.08029  0.83266  1.0000
  C   C2202     1.0  0.80527  0.13405  0.84982  1.0000
  C   C2203     1.0  0.77292  0.12536  0.85063  1.0000
  C   C2204     1.0  0.75864  0.13851  0.86058  1.0000
  C   C2205     1.0  0.77659  0.16075  0.86961  1.0000
  C   C2206     1.0  0.58931  0.25034  0.83298  1.0000
  C   C2207     1.0  0.74124  0.99936  0.93785  1.0000
  H   H1778     1.0  0.76978  0.21483  0.81480  1.0000
  C   C2208     1.0  0.55777  0.24360  0.83237  1.0000
  H   H1779     1.0  0.53567  0.22897  0.91079  1.0000
  H   H1780     1.0  0.55295  0.28187  0.77872  1.0000
  H   H1781     1.0  0.82320  0.01621  0.89843  1.0000
  C   C2209     1.0  0.58116  0.31891  0.74073  1.0000
  H   H1782     1.0  0.97113  0.32578  0.96126  1.0000
  H   H1783     1.0  0.83647  0.16835  0.95601  1.0000
  C   C2210     1.0  0.59160  0.27580  0.74960  1.0000
  C   C2211     1.0  0.76550  0.05085  0.92464  1.0000
  H   H1784     1.0  0.68244  0.10726  0.74840  1.0000
  C   C2212     1.0  0.80608  0.25969  0.88365  1.0000
  C   C2213     1.0  0.54846  0.30162  0.95572  1.0000
  H   H1785     1.0  0.63005  0.29380  0.89549  1.0000
  C   C2214     1.0  0.51889  0.27945  0.87799  1.0000
  C   C2215     1.0  0.78046  0.26039  0.82082  1.0000
  H   H1786     1.0  0.77246  0.26722  0.81053  1.0000
  C   C2216     1.0  0.86013  0.29701  0.88020  1.0000
  C   C2217     1.0  0.79443  0.00879  0.97811  1.0000
  H   H1787     1.0  0.51934  0.25339  0.84035  1.0000
  C   C2218     1.0  0.54361  0.25836  0.84126  1.0000
  C   C2219     1.0  0.56094  0.28011  0.85080  1.0000
  H   H1788     1.0  0.54653  0.27199  0.74433  1.0000
  C   C2220     1.0  0.60960  0.28525  0.90399  1.0000
  C   C2221     1.0  0.61036  0.29964  0.91741  1.0000
  C   C2222     1.0  0.80254  0.24329  0.84697  1.0000
  C   C2223     1.0  0.66060  0.10086  0.74341  1.0000
  C   C2224     1.0  0.60711  0.29344  0.95784  1.0000
  C   C2225     1.0  0.59310  0.29288  0.79140  1.0000
  C   C2226     1.0  0.97063  0.32349  0.91707  1.0000
  C   C2227     1.0  0.85547  0.04889  0.94782  1.0000
  C   C2228     1.0  0.63989  0.30642  0.95560  1.0000
  S   S309      1.0  0.86054  0.29092  0.73315  1.0000
  H   H1789     1.0  0.79231  0.22742  0.90410  1.0000
  C   C2229     1.0  0.77636  0.01826  0.96884  1.0000
  C   C2230     1.0  0.60662  0.27157  0.84260  1.0000
  P   P77       1.0  0.54338  0.30182  0.86070  1.0000
  S   S310      1.0  0.77338  0.01671  0.88120  1.0000
  H   H1790     1.0  0.83960  0.09526  0.93161  1.0000
  H   H1791     1.0  0.74498  0.05828  0.90446  1.0000
  C   C2231     1.0  0.48896  0.30571  0.85233  1.0000
  H   H1792     1.0  0.75690  0.29048  0.85532  1.0000
  C   C2232     1.0  0.59118  0.26728  0.96848  1.0000
  C   C2233     1.0  0.51287  0.29429  0.89029  1.0000
  H   H1793     1.0  0.58332  0.25143  0.75295  1.0000
  C   C2234     1.0  0.69471  0.31462  0.77045  1.0000
  C   C2235     1.0  0.84057  0.13398  0.94263  1.0000
  C   C2236     1.0  0.61486  0.31484  0.79937  1.0000
  C   C2237     1.0  0.71732  0.30957  0.76137  1.0000
  H   H1794     1.0  0.68187  0.30482  0.96277  1.0000
  C   C2238     1.0  0.82136  0.00992  0.93328  1.0000
  C   C2239     1.0  0.77269  0.31152  0.78726  1.0000
  C   C2240     1.0  0.75291  0.02196  0.82694  1.0000
  C   C2241     1.0  0.87541  0.25585  0.97738  1.0000
  H   H1795     1.0  0.88154  0.29863  0.84718  1.0000
  C   C2242     1.0  0.59259  0.28644  0.85149  1.0000
  H   H1796     1.0  0.60065  0.23986  0.82563  1.0000
  C   C2243     1.0  0.85802  0.32853  0.84590  1.0000
  C   C2244     1.0  0.80127  0.31123  0.78205  1.0000
  Fe  Fe161     1.0  0.86680  0.24752  0.73728  1.0000
  C   C2245     1.0  0.84629  0.00318  0.92818  1.0000
  H   H1797     1.0  0.73625  0.99945  0.82479  1.0000
  C   C2246     1.0  0.96501  0.31054  0.84985  1.0000
  H   H1798     1.0  0.77658  0.07509  0.97327  1.0000
  C   C2247     1.0  0.81703  0.00318  0.83430  1.0000
  C   C2248     1.0  0.74476  0.00970  0.97402  1.0000
  H   H1799     1.0  0.96137  0.19265  0.94364  1.0000
  H   H1800     1.0  0.60695  0.30349  0.85842  1.0000
  C   C2249     1.0  0.49361  0.29104  0.95544  1.0000
  C   C2250     1.0  0.51629  0.29712  0.97959  1.0000
  H   H1801     1.0  0.65343  0.25950  0.98199  1.0000
  C   C2251     1.0  0.51291  0.32529  0.82137  1.0000
  H   H1802     1.0  0.81889  0.01538  0.97460  1.0000
  C   C2252     1.0  0.56779  0.32673  0.78640  1.0000
  H   H1803     1.0  0.87913  0.31691  0.87399  1.0000
  C   C2253     1.0  0.49301  0.27721  0.90347  1.0000
  C   C2254     1.0  0.72045  0.01203  0.91530  1.0000
  C   C2255     1.0  0.49042  0.29109  0.97146  1.0000
  H   H1804     1.0  0.56444  0.32731  0.73730  1.0000
  C   C2256     1.0  0.51972  0.31037  0.84748  1.0000
  H   H1805     1.0  0.57969  0.31398  0.88692  1.0000
  C   C2257     1.0  0.75002  0.32461  0.86754  1.0000
  H   H1806     1.0  0.96822  0.28276  0.92966  1.0000
  H   H1807     1.0  0.65269  0.32586  0.94704  1.0000
  H   H1808     1.0  0.96991  0.29935  0.81186  1.0000
  H   H1809     1.0  0.52301  0.31908  0.88957  1.0000
  C   C2258     1.0  0.97102  0.30875  0.97000  1.0000
  H   H1810     1.0  0.72563  0.31651  0.86568  1.0000
  H   H1811     1.0  0.95587  0.32195  0.78925  1.0000
  H   H1812     1.0  0.76133  0.32995  0.74726  1.0000
  C   C2259     1.0  0.95050  0.46058  0.07502  1.0000
  H   H1813     1.0  0.76133  0.64897  0.17726  1.0000
  S   S311      1.0  0.68847  0.63203  0.11835  1.0000
  Fe  Fe162     1.0  0.60385  0.63949  0.15216  1.0000
  S   S312      1.0  0.55198  0.60800  0.15756  1.0000
  S   S313      1.0  0.64611  0.63195  0.15688  1.0000
  Fe  Fe163     1.0  0.88019  0.64259  0.05723  1.0000
  H   H1814     1.0  0.55151  0.58471  0.04723  1.0000
  S   S314      1.0  0.91754  0.63444  0.06934  1.0000
  Fe  Fe164     1.0  0.82054  0.60844  0.04221  1.0000
  C   C2260     1.0  0.94794  0.36192  0.04799  1.0000
  S   S315      1.0  0.78177  0.56201  0.03966  1.0000
  H   H1815     1.0  0.49590  0.53775  0.08972  1.0000
  C   C2261     1.0  0.93371  0.34644  0.10708  1.0000
  C   C2262     1.0  0.50684  0.50381  0.15484  1.0000
  C   C2263     1.0  0.94173  0.56733  0.15355  1.0000
  S   S316      1.0  0.87141  0.62482  0.03405  1.0000
  S   S317      1.0  0.82921  0.62233  0.06610  1.0000
  C   C2264     1.0  0.97505  0.57071  0.07956  1.0000
  C   C2265     1.0  0.83798  0.59501  0.10406  1.0000
  H   H1816     1.0  0.88736  0.40495  0.06270  1.0000
  H   H1817     1.0  0.77455  0.61350  0.01097  1.0000
  H   H1818     1.0  0.97075  0.46334  0.08084  1.0000
  S   S318      1.0  0.72867  0.39964  0.99451  1.0000
  C   C2266     1.0  0.72242  0.65007  0.10501  1.0000
  S   S319      1.0  0.84072  0.34064  0.02478  1.0000
  H   H1819     1.0  0.85729  0.46678  0.99465  1.0000
  H   H1820     1.0  0.97577  0.34561  0.06072  1.0000
  H   H1821     1.0  0.52285  0.64094  0.08194  1.0000
  H   H1822     1.0  0.89887  0.35821  0.09760  1.0000
  C   C2267     1.0  0.87959  0.43662  0.99913  1.0000
  C   C2268     1.0  0.95289  0.56483  0.12621  1.0000
  P   P78       1.0  0.96792  0.54951  0.11086  1.0000
  C   C2269     1.0  0.79086  0.35345  0.07291  1.0000
  C   C2270     1.0  0.78751  0.54019  0.02533  1.0000
  C   C2271     1.0  0.81717  0.54768  0.01774  1.0000
  C   C2272     1.0  0.82123  0.52940  0.00669  1.0000
  C   C2273     1.0  0.79554  0.50414  0.00280  1.0000
  C   C2274     1.0  0.76579  0.49678  0.01026  1.0000
  C   C2275     1.0  0.76191  0.51448  0.02169  1.0000
  H   H1823     1.0  0.83703  0.56733  0.02049  1.0000
  H   H1824     1.0  0.84433  0.53498  0.00106  1.0000
  H   H1825     1.0  0.74593  0.47708  0.00745  1.0000
  H   H1826     1.0  0.73892  0.50847  0.02758  1.0000
  H   H1827     1.0  0.89242  0.61269  0.99791  1.0000
  C   C2276     1.0  0.50262  0.55149  0.15875  1.0000
  C   C2277     1.0  0.94538  0.48620  0.07032  1.0000
  C   C2278     1.0  0.74024  0.54922  0.99305  1.0000
  C   C2279     1.0  0.76203  0.64510  0.08724  1.0000
  C   C2280     1.0  0.73545  0.63185  0.09820  1.0000
  H   H1828     1.0  0.77170  0.63082  0.08198  1.0000
  H   H1829     1.0  0.72483  0.60733  0.10137  1.0000
  C   C2281     1.0  0.53530  0.56780  0.15683  1.0000
  C   C2282     1.0  0.55373  0.55188  0.15424  1.0000
  C   C2283     1.0  0.53955  0.52005  0.15323  1.0000
  C   C2284     1.0  0.50315  0.55596  0.04534  1.0000
  C   C2285     1.0  0.86149  0.53286  0.04615  1.0000
  H   H1830     1.0  0.80733  0.64610  0.16358  1.0000
  H   H1831     1.0  0.57886  0.56417  0.15298  1.0000
  H   H1832     1.0  0.55404  0.50798  0.15115  1.0000
  C   C2286     1.0  0.92940  0.43139  0.07231  1.0000
  C   C2287     1.0  0.92228  0.54981  0.09248  1.0000
  C   C2288     1.0  0.90329  0.42784  0.06475  1.0000
  H   H1833     1.0  0.72089  0.52670  0.99496  1.0000
  H   H1834     1.0  0.94208  0.55984  0.16548  1.0000
  H   H1835     1.0  0.92429  0.38400  0.03541  1.0000
  C   C2289     1.0  0.95215  0.55457  0.14172  1.0000
  C   C2290     1.0  0.88935  0.42172  0.01041  1.0000
  H   H1836     1.0  0.49283  0.44929  0.11969  1.0000
  H   H1837     1.0  0.97593  0.46148  0.13911  1.0000
  H   H1838     1.0  0.89867  0.40556  0.00722  1.0000
  H   H1839     1.0  0.49530  0.60512  0.06358  1.0000
  C   C2291     1.0  0.79148  0.60646  0.98867  1.0000
  H   H1840     1.0  0.93226  0.66049  0.98332  1.0000
  C   C2292     1.0  0.92183  0.45556  0.11446  1.0000
  H   H1841     1.0  0.82689  0.54660  0.05602  1.0000
  H   H1842     1.0  0.72941  0.56276  0.01492  1.0000
  Fe  Fe165     1.0  0.97765  0.38131  0.13740  1.0000
  H   H1843     1.0  0.58134  0.37886  0.00719  1.0000
  H   H1844     1.0  0.50889  0.34120  0.09437  1.0000
  H   H1845     1.0  0.94404  0.59703  0.11105  1.0000
  C   C2293     1.0  0.70109  0.33266  0.06507  1.0000
  H   H1846     1.0  0.89169  0.41321  0.03449  1.0000
  H   H1847     1.0  0.92648  0.61979  0.13202  1.0000
  C   C2294     1.0  0.61401  0.36044  0.00011  1.0000
  C   C2295     1.0  0.79133  0.61119  0.11636  1.0000
  C   C2296     1.0  0.79632  0.35967  0.05687  1.0000
  S   S320      1.0  0.93829  0.37039  0.12203  1.0000
  C   C2297     1.0  0.81562  0.33932  0.01060  1.0000
  H   H1848     1.0  0.93050  0.42239  0.12878  1.0000
  H   H1849     1.0  0.86542  0.60121  0.16848  1.0000
  S   S321      1.0  0.80189  0.48137  0.98925  1.0000
  H   H1850     1.0  0.72817  0.37571  0.07390  1.0000
  H   H1851     1.0  0.93000  0.33905  0.04749  1.0000
  C   C2298     1.0  0.88538  0.42618  0.02592  1.0000
  C   C2299     1.0  0.66253  0.35272  0.04614  1.0000
  C   C2300     1.0  0.71670  0.35105  0.07628  1.0000
  C   C2301     1.0  0.97358  0.33246  0.22460  1.0000
  C   C2302     1.0  0.66041  0.37622  0.03654  1.0000
  C   C2303     1.0  0.85928  0.65581  0.14373  1.0000
  C   C2304     1.0  0.91174  0.55714  0.07893  1.0000
  H   H1852     1.0  0.56021  0.64183  0.10601  1.0000
  C   C2305     1.0  0.93282  0.57140  0.06575  1.0000
  H   H1853     1.0  0.64081  0.33514  0.99430  1.0000
  C   C2306     1.0  0.52911  0.56923  0.05338  1.0000
  C   C2307     1.0  0.80709  0.57884  0.10106  1.0000
  C   C2308     1.0  0.91221  0.34475  0.09652  1.0000
  C   C2309     1.0  0.61484  0.61396  0.21047  1.0000
  C   C2310     1.0  0.94468  0.38734  0.04127  1.0000
  C   C2311     1.0  0.76645  0.65475  0.16487  1.0000
  H   H1854     1.0  0.68060  0.39277  0.02915  1.0000
  C   C2312     1.0  0.73107  0.38728  0.04155  1.0000
  C   C2313     1.0  0.73028  0.41244  0.04849  1.0000
  C   C2314     1.0  0.75406  0.44184  0.04433  1.0000
  C   C2315     1.0  0.77863  0.44633  0.03316  1.0000
  C   C2316     1.0  0.77935  0.42152  0.02605  1.0000
  C   C2317     1.0  0.75589  0.39204  0.03033  1.0000
  C   C2318     1.0  0.93089  0.48674  0.10996  1.0000
  H   H1855     1.0  0.85629  0.58945  0.09894  1.0000
  C   C2319     1.0  0.71782  0.33761  0.09078  1.0000
  C   C2320     1.0  0.82231  0.62753  0.11941  1.0000
  S   S322      1.0  0.81790  0.65191  0.03291  1.0000
  C   C2321     1.0  0.80593  0.37657  0.08218  1.0000
  H   H1856     1.0  0.77297  0.61729  0.12078  1.0000
  C   C2322     1.0  0.93781  0.44647  0.12508  1.0000
  C   C2323     1.0  0.95409  0.55681  0.09295  1.0000
  C   C2324     1.0  0.95621  0.50901  0.11602  1.0000
  P   P79       1.0  0.69929  0.34967  0.04628  1.0000
  H   H1857     1.0  0.96036  0.53737  0.14484  1.0000
  H   H1858     1.0  0.90232  0.43834  0.10980  1.0000
  H   H1859     1.0  0.71094  0.40942  0.05688  1.0000
  H   H1860     1.0  0.75308  0.46137  0.04939  1.0000
  H   H1861     1.0  0.79665  0.46922  0.02972  1.0000
  H   H1862     1.0  0.79755  0.42520  0.01685  1.0000
  H   H1863     1.0  0.83015  0.60762  0.15050  1.0000
  C   C2325     1.0  0.97418  0.36577  0.05550  1.0000
  S   S323      1.0  0.62332  0.66113  0.12796  1.0000
  H   H1864     1.0  0.88175  0.43236  0.98717  1.0000
  S   S324      1.0  0.64350  0.39703  0.99318  1.0000
  C   C2326     1.0  0.63178  0.37792  0.03590  1.0000
  S   S325      1.0  0.49018  0.46407  0.15262  1.0000
  H   H1865     1.0  0.58252  0.35664  0.04360  1.0000
  H   H1866     1.0  0.91801  0.49319  0.10184  1.0000
  H   H1867     1.0  0.72985  0.35192  0.09939  1.0000
  C   C2327     1.0  0.77436  0.33790  0.98869  1.0000
  C   C2328     1.0  0.74497  0.56952  0.00427  1.0000
  H   H1868     1.0  0.82115  0.38561  0.01228  1.0000
  H   H1869     1.0  0.80133  0.56058  0.09365  1.0000
  H   H1870     1.0  0.80191  0.37164  0.09462  1.0000
  H   H1871     1.0  0.92483  0.57836  0.05549  1.0000
  H   H1872     1.0  0.90582  0.53965  0.10275  1.0000
  C   C2329     1.0  0.96439  0.57799  0.06603  1.0000
  C   C2330     1.0  0.50800  0.46426  0.10980  1.0000
  C   C2331     1.0  0.51903  0.47896  0.08227  1.0000
  C   C2332     1.0  0.54684  0.50367  0.08452  1.0000
  C   C2333     1.0  0.55602  0.50815  0.09941  1.0000
  C   C2334     1.0  0.53570  0.48896  0.11208  1.0000
  P   P80       1.0  0.59170  0.54044  0.10231  1.0000
  C   C2335     1.0  0.60549  0.53396  0.12030  1.0000
  C   C2336     1.0  0.62425  0.54685  0.08815  1.0000
  C   C2337     1.0  0.65189  0.57389  0.08736  1.0000
  C   C2338     1.0  0.67745  0.57885  0.07669  1.0000
  C   C2339     1.0  0.67617  0.55638  0.06714  1.0000
  C   C2340     1.0  0.64931  0.52883  0.06830  1.0000
  C   C2341     1.0  0.62354  0.52393  0.07885  1.0000
  C   C2342     1.0  0.62090  0.55859  0.12875  1.0000
  C   C2343     1.0  0.63316  0.55390  0.14224  1.0000
  C   C2344     1.0  0.62990  0.52460  0.14747  1.0000
  C   C2345     1.0  0.61499  0.50003  0.13899  1.0000
  C   C2346     1.0  0.60326  0.50476  0.12532  1.0000
  C   C2347     1.0  0.58183  0.57276  0.10297  1.0000
  C   C2348     1.0  0.55876  0.57142  0.11441  1.0000
  C   C2349     1.0  0.55087  0.59617  0.11541  1.0000
  C   C2350     1.0  0.56568  0.62235  0.10486  1.0000
  C   C2351     1.0  0.58822  0.62370  0.09322  1.0000
  C   C2352     1.0  0.59622  0.59895  0.09221  1.0000
  C   C2353     1.0  0.78381  0.58693  0.10721  1.0000
  H   H1873     1.0  0.51242  0.47519  0.07073  1.0000
  C   C2354     1.0  0.58351  0.59401  0.21466  1.0000
  H   H1874     1.0  0.56128  0.51916  0.07464  1.0000
  H   H1875     1.0  0.54102  0.49291  0.12379  1.0000
  H   H1876     1.0  0.65388  0.59115  0.09509  1.0000
  H   H1877     1.0  0.69845  0.60004  0.07595  1.0000
  H   H1878     1.0  0.69624  0.56017  0.05903  1.0000
  H   H1879     1.0  0.64866  0.51112  0.06115  1.0000
  H   H1880     1.0  0.60351  0.50199  0.07993  1.0000
  H   H1881     1.0  0.62386  0.58157  0.12490  1.0000
  H   H1882     1.0  0.64533  0.57312  0.14860  1.0000
  H   H1883     1.0  0.63912  0.52104  0.15803  1.0000
  H   H1884     1.0  0.61262  0.47734  0.14300  1.0000
  H   H1885     1.0  0.59243  0.48562  0.11871  1.0000
  H   H1886     1.0  0.54718  0.55138  0.12275  1.0000
  H   H1887     1.0  0.53392  0.59538  0.12468  1.0000
  C   C2355     1.0  0.85156  0.62712  0.15199  1.0000
  H   H1888     1.0  0.60003  0.64418  0.08516  1.0000
  H   H1889     1.0  0.61353  0.60052  0.08302  1.0000
  C   C2356     1.0  0.52615  0.56256  0.06937  1.0000
  H   H1890     1.0  0.87536  0.55515  0.03978  1.0000
  H   H1891     1.0  0.62452  0.61887  0.19843  1.0000
  C   C2357     1.0  0.82699  0.40573  0.07538  1.0000
  C   C2358     1.0  0.83298  0.41198  0.05924  1.0000
  C   C2359     1.0  0.81706  0.38882  0.05008  1.0000
  P   P81       1.0  0.86332  0.44833  0.05061  1.0000
  C   C2360     1.0  0.87156  0.44561  0.03032  1.0000
  C   C2361     1.0  0.85219  0.47969  0.05288  1.0000
  C   C2362     1.0  0.82462  0.47508  0.06204  1.0000
  C   C2363     1.0  0.81572  0.49922  0.06324  1.0000
  C   C2364     1.0  0.83412  0.52806  0.05530  1.0000
  C   C2365     1.0  0.51503  0.64937  0.07208  1.0000
  C   C2366     1.0  0.87055  0.50885  0.04495  1.0000
  C   C2367     1.0  0.86578  0.45596  0.00335  1.0000
  C   C2368     1.0  0.86166  0.46037  0.01886  1.0000
  C   C2369     1.0  0.89780  0.45350  0.06000  1.0000
  P   P82       1.0  0.83316  0.65987  0.13057  1.0000
  C   C2370     1.0  0.91909  0.48274  0.06292  1.0000
  C   C2371     1.0  0.93312  0.60117  0.13470  1.0000
  H   H1892     1.0  0.63028  0.39578  0.02824  1.0000
  C   C2372     1.0  0.50102  0.64732  0.12277  1.0000
  H   H1893     1.0  0.83929  0.42315  0.08269  1.0000
  H   H1894     1.0  0.82128  0.39268  0.03766  1.0000
  H   H1895     1.0  0.80950  0.45281  0.06798  1.0000
  H   H1896     1.0  0.79419  0.49551  0.07010  1.0000
  C   C2373     1.0  0.52420  0.65852  0.13264  1.0000
  H   H1897     1.0  0.86962  0.63166  0.11535  1.0000
  H   H1898     1.0  0.89155  0.51288  0.03754  1.0000
  C   C2374     1.0  0.93256  0.59083  0.15006  1.0000
  H   H1899     1.0  0.84969  0.47445  0.02175  1.0000
  C   C2375     1.0  0.94321  0.58823  0.12283  1.0000
  H   H1900     1.0  0.91562  0.50296  0.05962  1.0000
  C   C2376     1.0  0.63377  0.62801  0.22175  1.0000
  C   C2377     1.0  0.48843  0.51963  0.15786  1.0000
  H   H1901     1.0  0.54622  0.57278  0.07562  1.0000
  C   C2378     1.0  0.84553  0.61913  0.11327  1.0000
  H   H1902     1.0  0.93335  0.41145  0.07601  1.0000
  H   H1903     1.0  0.75997  0.57484  0.10463  1.0000
  C   C2379     1.0  0.77054  0.59812  0.00207  1.0000
  H   H1904     1.0  0.88743  0.55292  0.07877  1.0000
  C   C2380     1.0  0.80975  0.36502  0.00684  1.0000
  C   C2381     1.0  0.96764  0.41682  0.04215  1.0000
  H   H1905     1.0  0.92575  0.60148  0.15927  1.0000
  H   H1906     1.0  0.96176  0.50878  0.07249  1.0000
  C   C2382     1.0  0.87141  0.62341  0.16221  1.0000
  H   H1907     1.0  0.84231  0.58439  0.98772  1.0000
  C   C2383     1.0  0.89911  0.64831  0.16427  1.0000
  C   C2384     1.0  0.61881  0.33376  0.99956  1.0000
  H   H1908     1.0  0.65800  0.64345  0.21822  1.0000
  C   C2385     1.0  0.49979  0.45902  0.09489  1.0000
  H   H1909     1.0  0.56884  0.58328  0.20586  1.0000
  C   C2386     1.0  0.58521  0.35833  0.00675  1.0000
  H   H1910     1.0  0.81149  0.62854  0.98729  1.0000
  H   H1911     1.0  0.98075  0.58962  0.05587  1.0000
  C   C2387     1.0  0.78908  0.36430  0.99600  1.0000
  H   H1912     1.0  0.78463  0.38421  0.99327  1.0000
  H   H1913     1.0  0.75685  0.37330  0.02450  1.0000
  H   H1914     1.0  0.52128  0.64668  0.14406  1.0000
  C   C2388     1.0  0.60487  0.35583  0.04453  1.0000
  C   C2389     1.0  0.49734  0.54262  0.07736  1.0000
  C   C2390     1.0  0.49981  0.62905  0.06156  1.0000
  H   H1915     1.0  0.96503  0.43659  0.03703  1.0000
  C   C2391     1.0  0.57116  0.58802  0.23018  1.0000
  H   H1916     1.0  0.48722  0.34850  0.11974  1.0000
  S   S326      1.0  0.97710  0.40675  0.15805  1.0000
  H   H1917     1.0  0.48819  0.56357  0.16098  1.0000
  H   H1918     1.0  0.78538  0.34166  0.04960  1.0000
  H   H1919     1.0  0.50544  0.56107  0.03292  1.0000
  S   S327      1.0  0.97562  0.35094  0.19375  1.0000
  H   H1920     1.0  0.91479  0.64552  0.17204  1.0000
  H   H1921     1.0  0.96858  0.63533  0.08542  1.0000
  C   C2392     1.0  0.97051  0.66139  0.10478  1.0000
  H   H1922     1.0  0.48678  0.65366  0.10056  1.0000
  C   C2393     1.0  0.93343  0.65281  0.08558  1.0000
  C   C2394     1.0  0.88833  0.62050  0.98674  1.0000
  C   C2395     1.0  0.79248  0.65309  0.15702  1.0000
  C   C2396     1.0  0.95862  0.64878  0.09129  1.0000
  C   C2397     1.0  0.79915  0.66075  0.14096  1.0000
  C   C2398     1.0  0.49058  0.63964  0.04841  1.0000
  C   C2399     1.0  0.97239  0.49953  0.12649  1.0000
  C   C2400     1.0  0.96324  0.46844  0.13098  1.0000
  C   C2401     1.0  0.50522  0.66236  0.10794  1.0000
  Fe  Fe166     1.0  0.66722  0.65690  0.13329  1.0000
  H   H1923     1.0  0.90183  0.33718  0.15133  1.0000
  H   H1924     1.0  0.67251  0.33766  0.01689  1.0000
  C   C2402     1.0  0.60663  0.33212  0.05391  1.0000
  H   H1925     1.0  0.94858  0.46433  0.26539  1.0000
  Fe  Fe167     1.0  0.86209  0.50848  0.35743  1.0000
  S   S328      1.0  0.82624  0.49707  0.33979  1.0000
  S   S329      1.0  0.91722  0.53822  0.35083  1.0000
  Fe  Fe168     1.0  0.80654  0.47931  0.38271  1.0000
  S   S330      1.0  0.76983  0.46877  0.36670  1.0000
  S   S331      1.0  0.78414  0.45944  0.40664  1.0000
  Fe  Fe169     1.0  0.79848  0.44921  0.35339  1.0000
  S   S332      1.0  0.77740  0.39755  0.34714  1.0000
  Fe  Fe170     1.0  0.79939  0.51692  0.35533  1.0000
  S   S333      1.0  0.77267  0.54827  0.35059  1.0000
  S   S334      1.0  0.83562  0.46010  0.36967  1.0000
  S   S335      1.0  0.83482  0.52808  0.37243  1.0000
  H   H1926     1.0  0.67792  0.64229  0.43361  1.0000
  C   C2403     1.0  0.58674  0.49882  0.44391  1.0000
  C   C2404     1.0  0.97136  0.61930  0.37493  1.0000
  H   H1927     1.0  0.72102  0.48600  0.42787  1.0000
  H   H1928     1.0  0.94723  0.50577  0.24781  1.0000
  S   S336      1.0  0.74414  0.34305  0.45869  1.0000
  C   C2405     1.0  0.48598  0.39760  0.48060  1.0000
  C   C2406     1.0  0.92038  0.39188  0.39802  1.0000
  C   C2407     1.0  0.97418  0.54551  0.36389  1.0000
  C   C2408     1.0  0.73772  0.65758  0.25266  1.0000
  P   P83       1.0  0.67181  0.55194  0.40752  1.0000
  C   C2409     1.0  0.72301  0.54393  0.39436  1.0000
  C   C2410     1.0  0.60823  0.36006  0.38649  1.0000
  H   H1929     1.0  0.94934  0.34302  0.38495  1.0000
  Fe  Fe171     1.0  0.98192  0.53526  0.40651  1.0000
  H   H1930     1.0  0.92284  0.40686  0.40705  1.0000
  C   C2411     1.0  0.89531  0.40373  0.30545  1.0000
  C   C2412     1.0  0.64603  0.57315  0.38440  1.0000
  Fe  Fe172     1.0  0.94361  0.47463  0.42871  1.0000
  S   S337      1.0  0.95041  0.48595  0.40283  1.0000
  S   S338      1.0  0.89261  0.43789  0.43972  1.0000
  C   C2413     1.0  0.81381  0.64717  0.30653  1.0000
  H   H1931     1.0  0.85010  0.46457  0.47192  1.0000
  C   C2414     1.0  0.90741  0.34456  0.32322  1.0000
  H   H1932     1.0  0.89363  0.60476  0.34858  1.0000
  H   H1933     1.0  0.96037  0.55609  0.30921  1.0000
  C   C2415     1.0  0.53036  0.38319  0.45299  1.0000
  C   C2416     1.0  0.55726  0.37826  0.45579  1.0000
  H   H1934     1.0  0.83578  0.37730  0.41120  1.0000
  H   H1935     1.0  0.53057  0.40549  0.45392  1.0000
  H   H1936     1.0  0.57735  0.39679  0.45921  1.0000
  C   C2417     1.0  0.78489  0.37115  0.45337  1.0000
  C   C2418     1.0  0.80887  0.36872  0.46128  1.0000
  C   C2419     1.0  0.84097  0.38920  0.45725  1.0000
  C   C2420     1.0  0.85073  0.41277  0.44493  1.0000
  C   C2421     1.0  0.82673  0.41513  0.43700  1.0000
  C   C2422     1.0  0.79440  0.39552  0.44154  1.0000
  C   C2423     1.0  0.75264  0.35625  0.35224  1.0000
  H   H1937     1.0  0.83296  0.43188  0.42716  1.0000
  H   H1938     1.0  0.77667  0.39910  0.43577  1.0000
  C   C2424     1.0  0.63871  0.53003  0.42175  1.0000
  H   H1939     1.0  0.72150  0.35889  0.37077  1.0000
  C   C2425     1.0  0.75196  0.42526  0.40430  1.0000
  C   C2426     1.0  0.75362  0.39732  0.40741  1.0000
  C   C2427     1.0  0.72794  0.36970  0.40602  1.0000
  C   C2428     1.0  0.70140  0.37016  0.40023  1.0000
  C   C2429     1.0  0.70043  0.39829  0.39612  1.0000
  C   C2430     1.0  0.72537  0.42581  0.39856  1.0000
  H   H1940     1.0  0.77516  0.39738  0.41056  1.0000
  H   H1941     1.0  0.88174  0.64736  0.33879  1.0000
  H   H1942     1.0  0.68008  0.39866  0.39144  1.0000
  H   H1943     1.0  0.72437  0.44749  0.39582  1.0000
  C   C2431     1.0  0.76769  0.58194  0.35626  1.0000
  C   C2432     1.0  0.74105  0.58639  0.35273  1.0000
  C   C2433     1.0  0.73638  0.61257  0.35667  1.0000
  C   C2434     1.0  0.75852  0.63550  0.36409  1.0000
  C   C2435     1.0  0.78495  0.63081  0.36779  1.0000
  C   C2436     1.0  0.78951  0.60456  0.36394  1.0000
  H   H1944     1.0  0.72374  0.56940  0.34686  1.0000
  H   H1945     1.0  0.71586  0.61527  0.35364  1.0000
  C   C2437     1.0  0.87497  0.34925  0.34486  1.0000
  H   H1946     1.0  0.81042  0.60224  0.36656  1.0000
  C   C2438     1.0  0.95944  0.55587  0.35278  1.0000
  H   H1947     1.0  0.79416  0.43101  0.47096  1.0000
  H   H1948     1.0  0.59504  0.45934  0.38506  1.0000
  H   H1949     1.0  0.75876  0.65574  0.40307  1.0000
  H   H1950     1.0  0.96008  0.52628  0.37226  1.0000
  C   C2439     1.0  0.82330  0.35361  0.41612  1.0000
  H   H1951     1.0  0.72366  0.55947  0.38467  1.0000
  C   C2440     1.0  0.94847  0.43176  0.29314  1.0000
  H   H1952     1.0  0.66439  0.59765  0.23758  1.0000
  H   H1953     1.0  0.86658  0.36330  0.29538  1.0000
  H   H1954     1.0  0.54440  0.37702  0.41644  1.0000
  H   H1955     1.0  0.51269  0.46375  0.41681  1.0000
  C   C2441     1.0  0.72050  0.65195  0.41929  1.0000
  H   H1956     1.0  0.97686  0.44602  0.36251  1.0000
  C   C2442     1.0  0.66288  0.64098  0.33718  1.0000
  C   C2443     1.0  0.73948  0.63337  0.24537  1.0000
  C   C2444     1.0  0.97918  0.58148  0.34245  1.0000
  C   C2445     1.0  0.51775  0.39969  0.40773  1.0000
  S   S339      1.0  0.61532  0.64065  0.35733  1.0000
  H   H1957     1.0  0.66608  0.62638  0.34618  1.0000
  C   C2446     1.0  0.62149  0.62260  0.23736  1.0000
  H   H1958     1.0  0.81431  0.66114  0.33728  1.0000
  C   C2447     1.0  0.78506  0.35052  0.38321  1.0000
  H   H1959     1.0  0.91364  0.33962  0.36531  1.0000
  C   C2448     1.0  0.59957  0.37063  0.39986  1.0000
  H   H1960     1.0  0.94630  0.60727  0.37736  1.0000
  S   S340      1.0  0.97299  0.57759  0.39819  1.0000
  C   C2449     1.0  0.88937  0.38239  0.29470  1.0000
  C   C2450     1.0  0.58363  0.34942  0.41278  1.0000
  C   C2451     1.0  0.90412  0.35895  0.33615  1.0000
  C   C2452     1.0  0.59122  0.62279  0.29280  1.0000
  H   H1961     1.0  0.57829  0.35710  0.42348  1.0000
  H   H1962     1.0  0.62199  0.37570  0.37659  1.0000
  H   H1963     1.0  0.97244  0.41998  0.33864  1.0000
  C   C2453     1.0  0.58364  0.49624  0.42825  1.0000
  H   H1964     1.0  0.98254  0.65027  0.29467  1.0000
  H   H1965     1.0  0.95413  0.37667  0.40579  1.0000
  C   C2454     1.0  0.68300  0.63957  0.24863  1.0000
  H   H1966     1.0  0.94321  0.59724  0.30324  1.0000
  H   H1967     1.0  0.98168  0.56009  0.25029  1.0000
  C   C2455     1.0  0.60943  0.51173  0.41719  1.0000
  C   C2456     1.0  0.97755  0.57905  0.30506  1.0000
  C   C2457     1.0  0.98356  0.41410  0.34789  1.0000
  H   H1968     1.0  0.72890  0.34801  0.40902  1.0000
  C   C2458     1.0  0.98169  0.49775  0.31548  1.0000
  C   C2459     1.0  0.64178  0.53206  0.43755  1.0000
  C   C2460     1.0  0.72744  0.34356  0.36414  1.0000
  C   C2461     1.0  0.63463  0.57288  0.37010  1.0000
  C   C2462     1.0  0.62878  0.62696  0.27120  1.0000
  H   H1969     1.0  0.90837  0.36894  0.27487  1.0000
  H   H1970     1.0  0.64717  0.51384  0.35677  1.0000
  C   C2463     1.0  0.51789  0.42401  0.39807  1.0000
  C   C2464     1.0  0.94221  0.41024  0.28231  1.0000
  H   H1971     1.0  0.80264  0.35056  0.47057  1.0000
  P   P84       1.0  0.85327  0.65673  0.31099  1.0000
  C   C2465     1.0  0.57360  0.44207  0.39118  1.0000
  C   C2466     1.0  0.74560  0.53239  0.39408  1.0000
  C   C2467     1.0  0.74507  0.51194  0.40626  1.0000
  H   H1972     1.0  0.92866  0.44453  0.31320  1.0000
  H   H1973     1.0  0.76355  0.53917  0.38437  1.0000
  H   H1974     1.0  0.76286  0.50341  0.40603  1.0000
  C   C2468     1.0  0.62934  0.43328  0.36981  1.0000
  C   C2469     1.0  0.88078  0.60271  0.33863  1.0000
  C   C2470     1.0  0.87176  0.57613  0.33121  1.0000
  C   C2471     1.0  0.85539  0.57323  0.31832  1.0000
  C   C2472     1.0  0.84849  0.59724  0.31265  1.0000
  C   C2473     1.0  0.85751  0.62412  0.32000  1.0000
  C   C2474     1.0  0.87377  0.62670  0.33305  1.0000
  H   H1975     1.0  0.62529  0.58915  0.36679  1.0000
  H   H1976     1.0  0.96545  0.50328  0.30925  1.0000
  C   C2475     1.0  0.77692  0.66158  0.29400  1.0000
  C   C2476     1.0  0.65773  0.53024  0.37890  1.0000
  C   C2477     1.0  0.92472  0.42833  0.30473  1.0000
  C   C2478     1.0  0.83306  0.35034  0.37165  1.0000
  H   H1977     1.0  0.80243  0.64789  0.37354  1.0000
  H   H1978     1.0  0.59769  0.60464  0.31483  1.0000
  P   P85       1.0  0.64621  0.64248  0.25161  1.0000
  C   C2479     1.0  0.75833  0.61338  0.31018  1.0000
  C   C2480     1.0  0.78891  0.61982  0.31322  1.0000
  H   H1979     1.0  0.50924  0.44582  0.47313  1.0000
  H   H1980     1.0  0.87769  0.55787  0.33544  1.0000
  H   H1981     1.0  0.84826  0.55245  0.31267  1.0000
  H   H1982     1.0  0.93008  0.35234  0.31656  1.0000
  C   C2481     1.0  0.96785  0.60228  0.30181  1.0000
  C   C2482     1.0  0.63756  0.43423  0.38496  1.0000
  C   C2483     1.0  0.54590  0.44555  0.39007  1.0000
  C   C2484     1.0  0.60583  0.61017  0.30260  1.0000
  H   H1983     1.0  0.65112  0.58962  0.42693  1.0000
  H   H1984     1.0  0.73922  0.59248  0.31559  1.0000
  H   H1985     1.0  0.79282  0.60375  0.32109  1.0000
  C   C2485     1.0  0.68210  0.46930  0.36007  1.0000
  C   C2486     1.0  0.75236  0.63412  0.30048  1.0000
  C   C2487     1.0  0.98431  0.64429  0.36315  1.0000
  H   H1986     1.0  0.97952  0.52473  0.33374  1.0000
  S   S341      1.0  0.97409  0.52445  0.43251  1.0000
  C   C2488     1.0  0.96377  0.48785  0.26671  1.0000
  C   C2489     1.0  0.96295  0.51133  0.25669  1.0000
  S   S342      1.0  0.59272  0.34438  0.45920  1.0000
  H   H1987     1.0  0.61824  0.51886  0.46071  1.0000
  H   H1988     1.0  0.77073  0.36272  0.38538  1.0000
  C   C2490     1.0  0.50299  0.35914  0.44953  1.0000
  H   H1989     1.0  0.60585  0.41861  0.36757  1.0000
  H   H1990     1.0  0.83657  0.59506  0.30239  1.0000
  C   C2491     1.0  0.68478  0.61488  0.24161  1.0000
  H   H1991     1.0  0.57992  0.59723  0.25341  1.0000
  C   C2492     1.0  0.60267  0.63125  0.27718  1.0000
  H   H1992     1.0  0.64520  0.44949  0.34576  1.0000
  H   H1993     1.0  0.76426  0.44573  0.45251  1.0000
  H   H1994     1.0  0.71427  0.48458  0.37698  1.0000
  H   H1995     1.0  0.64523  0.58968  0.39201  1.0000
  H   H1996     1.0  0.86327  0.34334  0.41308  1.0000
  H   H1997     1.0  0.49645  0.42682  0.39723  1.0000
  C   C2493     1.0  0.73579  0.64076  0.40879  1.0000
  C   C2494     1.0  0.67511  0.60311  0.42214  1.0000
  H   H1998     1.0  0.96810  0.63208  0.44405  1.0000
  H   H1999     1.0  0.96915  0.65093  0.35666  1.0000
  C   C2495     1.0  0.64313  0.61395  0.28114  1.0000
  C   C2496     1.0  0.69906  0.51418  0.41904  1.0000
  H   H2000     1.0  0.96879  0.59118  0.33434  1.0000
  H   H2001     1.0  0.66601  0.51318  0.38223  1.0000
  H   H2002     1.0  0.85848  0.38635  0.46361  1.0000
  P   P86       1.0  0.60876  0.41084  0.40083  1.0000
  C   C2497     1.0  0.62436  0.42061  0.41893  1.0000
  H   H2003     1.0  0.60619  0.50953  0.40513  1.0000
  C   C2498     1.0  0.66824  0.45334  0.38750  1.0000
  C   C2499     1.0  0.61530  0.43892  0.42810  1.0000
  C   C2500     1.0  0.62791  0.44669  0.44201  1.0000
  C   C2501     1.0  0.64974  0.43638  0.44678  1.0000
  C   C2502     1.0  0.65886  0.41817  0.43769  1.0000
  C   C2503     1.0  0.64596  0.40998  0.42392  1.0000
  C   C2504     1.0  0.57335  0.41658  0.40013  1.0000
  C   C2505     1.0  0.69076  0.59120  0.41207  1.0000
  C   C2506     1.0  0.91287  0.38554  0.28319  1.0000
  S   S343      1.0  0.67925  0.65823  0.38895  1.0000
  H   H2004     1.0  0.77795  0.34373  0.33464  1.0000
  C   C2507     1.0  0.54529  0.39592  0.40875  1.0000
  C   C2508     1.0  0.72162  0.50249  0.41864  1.0000
  H   H2005     1.0  0.67547  0.45468  0.39897  1.0000
  H   H2006     1.0  0.59810  0.44666  0.42469  1.0000
  H   H2007     1.0  0.62020  0.46004  0.44927  1.0000
  H   H2008     1.0  0.65914  0.44193  0.45766  1.0000
  H   H2009     1.0  0.67549  0.40982  0.44144  1.0000
  H   H2010     1.0  0.65265  0.39509  0.41725  1.0000
  H   H2011     1.0  0.95989  0.41258  0.27308  1.0000
  S   S344      1.0  0.67072  0.34738  0.43950  1.0000
  C   C2509     1.0  0.89478  0.60915  0.48142  1.0000
  H   H2012     1.0  0.68120  0.50649  0.42875  1.0000
  C   C2510     1.0  0.55846  0.34974  0.45431  1.0000
  H   H2013     1.0  0.92020  0.64140  0.44593  1.0000
  C   C2511     1.0  0.93780  0.37458  0.39739  1.0000
  C   C2512     1.0  0.90033  0.39038  0.38684  1.0000
  C   C2513     1.0  0.89809  0.37205  0.37475  1.0000
  C   C2514     1.0  0.49133  0.46362  0.42203  1.0000
  P   P87       1.0  0.87109  0.36971  0.36087  1.0000
  C   C2515     1.0  0.79153  0.34201  0.42129  1.0000
  C   C2516     1.0  0.87799  0.40723  0.35212  1.0000
  C   C2517     1.0  0.85650  0.41031  0.34272  1.0000
  C   C2518     1.0  0.86178  0.43902  0.33546  1.0000
  C   C2519     1.0  0.88864  0.46486  0.33750  1.0000
  C   C2520     1.0  0.91023  0.46197  0.34680  1.0000
  C   C2521     1.0  0.90517  0.43323  0.35394  1.0000
  H   H2014     1.0  0.73311  0.60300  0.39666  1.0000
  H   H2015     1.0  0.64361  0.59683  0.30448  1.0000
  C   C2522     1.0  0.65802  0.55206  0.38883  1.0000
  C   C2523     1.0  0.91526  0.35431  0.37433  1.0000
  C   C2524     1.0  0.81461  0.36605  0.37500  1.0000
  H   H2016     1.0  0.96548  0.58210  0.43733  1.0000
  H   H2017     1.0  0.77915  0.35621  0.42013  1.0000
  C   C2525     1.0  0.69973  0.53526  0.40694  1.0000
  C   C2526     1.0  0.72101  0.61060  0.40516  1.0000
  C   C2527     1.0  0.63527  0.55174  0.36007  1.0000
  H   H2018     1.0  0.66387  0.61124  0.27709  1.0000
  H   H2019     1.0  0.66415  0.54603  0.44133  1.0000
  H   H2020     1.0  0.88683  0.40382  0.38754  1.0000
  H   H2021     1.0  0.56116  0.48219  0.42467  1.0000
  H   H2022     1.0  0.83541  0.39051  0.34113  1.0000
  H   H2023     1.0  0.84451  0.44124  0.32860  1.0000
  H   H2024     1.0  0.89238  0.48724  0.33218  1.0000
  H   H2025     1.0  0.93058  0.48215  0.34877  1.0000
  H   H2026     1.0  0.92241  0.43157  0.36092  1.0000
  H   H2027     1.0  0.72863  0.62941  0.29829  1.0000
  H   H2028     1.0  0.69959  0.48251  0.35051  1.0000
  C   C2528     1.0  0.69040  0.47055  0.37507  1.0000
  H   H2029     1.0  0.87704  0.40106  0.31437  1.0000
  H   H2030     1.0  0.82257  0.39017  0.37122  1.0000
  C   C2529     1.0  0.68403  0.65166  0.32371  1.0000
  H   H2031     1.0  0.54604  0.46509  0.38309  1.0000
  H   H2032     1.0  0.92429  0.37779  0.33930  1.0000
  C   C2530     1.0  0.94453  0.58602  0.43849  1.0000
  C   C2531     1.0  0.94592  0.61416  0.44227  1.0000
  C   C2532     1.0  0.91898  0.61942  0.44313  1.0000
  C   C2533     1.0  0.89064  0.59657  0.43997  1.0000
  C   C2534     1.0  0.88929  0.56847  0.43578  1.0000
  C   C2535     1.0  0.91639  0.56326  0.43527  1.0000
  P   P88       1.0  0.85426  0.54012  0.42967  1.0000
  C   C2536     1.0  0.83443  0.50796  0.44429  1.0000
  C   C2537     1.0  0.82832  0.55737  0.42466  1.0000
  C   C2538     1.0  0.82929  0.56932  0.40944  1.0000
  C   C2539     1.0  0.80988  0.58361  0.40589  1.0000
  C   C2540     1.0  0.78911  0.58579  0.41743  1.0000
  C   C2541     1.0  0.78783  0.57379  0.43260  1.0000
  C   C2542     1.0  0.80746  0.55977  0.43623  1.0000
  C   C2543     1.0  0.80276  0.48865  0.44376  1.0000
  C   C2544     1.0  0.78818  0.46131  0.45357  1.0000
  C   C2545     1.0  0.80509  0.45295  0.46393  1.0000
  C   C2546     1.0  0.83661  0.47193  0.46449  1.0000
  C   C2547     1.0  0.85128  0.49933  0.45472  1.0000
  C   C2548     1.0  0.86754  0.52656  0.41312  1.0000
  C   C2549     1.0  0.85839  0.49512  0.41253  1.0000
  C   C2550     1.0  0.87151  0.48446  0.40080  1.0000
  C   C2551     1.0  0.89356  0.50525  0.38933  1.0000
  C   C2552     1.0  0.90257  0.53662  0.38972  1.0000
  C   C2553     1.0  0.89000  0.54736  0.40164  1.0000
  C   C2554     1.0  0.61584  0.51673  0.44857  1.0000
  H   H2033     1.0  0.62676  0.55197  0.34892  1.0000
  H   H2034     1.0  0.57157  0.62683  0.29743  1.0000
  H   H2035     1.0  0.87019  0.60128  0.44031  1.0000
  H   H2036     1.0  0.91617  0.54204  0.43171  1.0000
  H   H2037     1.0  0.84484  0.56761  0.40024  1.0000
  H   H2038     1.0  0.81067  0.59263  0.39411  1.0000
  H   H2039     1.0  0.77385  0.59654  0.41458  1.0000
  H   H2040     1.0  0.77159  0.57534  0.44152  1.0000
  H   H2041     1.0  0.80639  0.55079  0.44805  1.0000
  H   H2042     1.0  0.78983  0.49366  0.43509  1.0000
  H   H2043     1.0  0.49628  0.38388  0.41459  1.0000
  C   C2555     1.0  0.63168  0.60566  0.29676  1.0000
  H   H2044     1.0  0.56653  0.48692  0.45239  1.0000
  H   H2045     1.0  0.87606  0.51273  0.45479  1.0000
  H   H2046     1.0  0.84123  0.47876  0.42119  1.0000
  H   H2047     1.0  0.86453  0.46007  0.40065  1.0000
  H   H2048     1.0  0.90385  0.49711  0.38020  1.0000
  H   H2049     1.0  0.92026  0.55276  0.38107  1.0000
  H   H2050     1.0  0.89864  0.57185  0.40210  1.0000
  C   C2556     1.0  0.93518  0.35575  0.38560  1.0000
  C   C2557     1.0  0.69013  0.63315  0.42590  1.0000
  C   C2558     1.0  0.64673  0.53033  0.36450  1.0000
  C   C2559     1.0  0.65152  0.45075  0.35744  1.0000
  C   C2560     1.0  0.63844  0.65003  0.33926  1.0000
  H   H2051     1.0  0.70274  0.64440  0.32226  1.0000
  H   H2052     1.0  0.59187  0.64212  0.26984  1.0000
  C   C2561     1.0  0.71300  0.61200  0.23986  1.0000
  C   C2562     1.0  0.90565  0.58627  0.48129  1.0000
  C   C2563     1.0  0.70962  0.66076  0.25427  1.0000
  C   C2564     1.0  0.83872  0.33450  0.41722  1.0000
  H   H2053     1.0  0.76131  0.63107  0.24411  1.0000
  C   C2565     1.0  0.98412  0.49490  0.27821  1.0000
  H   H2054     1.0  0.96221  0.65374  0.40899  1.0000
  C   C2566     1.0  0.59002  0.60227  0.24151  1.0000
  C   C2567     1.0  0.75900  0.33507  0.34388  1.0000
  C   C2568     1.0  0.51033  0.42680  0.47995  1.0000
  H   H2055     1.0  0.49058  0.65850  0.36369  1.0000
  S   S345      1.0  0.66881  0.33554  0.39923  1.0000
  C   C2569     1.0  0.98242  0.54194  0.25805  1.0000
  H   H2056     1.0  0.87137  0.60422  0.47863  1.0000
  H   H2057     1.0  0.89075  0.56370  0.47833  1.0000
  C   C2570     1.0  0.50762  0.66275  0.37188  1.0000
  H   H2058     1.0  0.54356  0.66349  0.35492  1.0000
  H   H2059     1.0  0.54687  0.57243  0.23341  1.0000
  H   H2060     1.0  0.71427  0.59306  0.23431  1.0000
  C   C2571     1.0  0.85595  0.60274  0.70379  1.0000
  C   C2572     1.0  0.54956  0.35034  0.51382  1.0000
  C   C2573     1.0  0.67302  0.40396  0.68569  1.0000
  S   S346      1.0  0.50851  0.55482  0.63791  1.0000
  H   H2061     1.0  0.95755  0.64416  0.52108  1.0000
  C   C2574     1.0  0.53686  0.40660  0.49705  1.0000
  C   C2575     1.0  0.57598  0.38613  0.72372  1.0000
  C   C2576     1.0  0.65624  0.36982  0.70948  1.0000
  H   H2062     1.0  0.85166  0.58452  0.71283  1.0000
  C   C2577     1.0  0.97181  0.33730  0.70469  1.0000
  C   C2578     1.0  0.60212  0.63108  0.68311  1.0000
  C   C2579     1.0  0.53436  0.33441  0.68828  1.0000
  C   C2580     1.0  0.54809  0.57374  0.64172  1.0000
  C   C2581     1.0  0.56612  0.55772  0.64491  1.0000
  C   C2582     1.0  0.59770  0.57376  0.64742  1.0000
  C   C2583     1.0  0.61171  0.60598  0.64669  1.0000
  C   C2584     1.0  0.59364  0.62198  0.64355  1.0000
  C   C2585     1.0  0.56208  0.60595  0.64104  1.0000
  H   H2063     1.0  0.55581  0.53300  0.64527  1.0000
  H   H2064     1.0  0.61145  0.56114  0.64976  1.0000
  C   C2586     1.0  0.64534  0.38950  0.71643  1.0000
  H   H2065     1.0  0.54846  0.61861  0.63847  1.0000
  C   C2587     1.0  0.73636  0.66320  0.58647  1.0000
  H   H2066     1.0  0.83977  0.33131  0.70300  1.0000
  H   H2067     1.0  0.89593  0.34425  0.70457  1.0000
  H   H2068     1.0  0.80859  0.59827  0.70635  1.0000
  H   H2069     1.0  0.55460  0.45400  0.48773  1.0000
  C   C2588     1.0  0.53590  0.43129  0.48810  1.0000
  C   C2589     1.0  0.76057  0.65067  0.70728  1.0000
  H   H2070     1.0  0.90547  0.65597  0.48466  1.0000
  C   C2590     1.0  0.78766  0.65654  0.63970  1.0000
  P   P89       1.0  0.51087  0.34672  0.51128  1.0000
  H   H2071     1.0  0.65380  0.34867  0.71572  1.0000
  C   C2591     1.0  0.94958  0.34472  0.65157  1.0000
  C   C2592     1.0  0.74695  0.44802  0.72143  1.0000
  H   H2072     1.0  0.95629  0.35217  0.54809  1.0000
  C   C2593     1.0  0.83164  0.61025  0.70000  1.0000
  S   S347      1.0  0.78800  0.63331  0.73039  1.0000
  H   H2073     1.0  0.54581  0.55091  0.67521  1.0000
  H   H2074     1.0  0.54974  0.50205  0.67232  1.0000
  C   C2594     1.0  0.60107  0.35845  0.50232  1.0000
  C   C2595     1.0  0.95526  0.62179  0.48845  1.0000
  H   H2075     1.0  0.50397  0.58225  0.66646  1.0000
  H   H2076     1.0  0.50223  0.37750  0.69153  1.0000
  H   H2077     1.0  0.76677  0.65015  0.63386  1.0000
  H   H2078     1.0  0.61791  0.36422  0.49217  1.0000
  H   H2079     1.0  0.74273  0.62737  0.70935  1.0000
  C   C2596     1.0  0.57196  0.35860  0.50089  1.0000
  C   C2597     1.0  0.96927  0.36319  0.70971  1.0000
  H   H2080     1.0  0.50219  0.33589  0.67265  1.0000
  C   C2598     1.0  0.56859  0.65646  0.67818  1.0000
  H   H2081     1.0  0.53746  0.55630  0.72633  1.0000
  C   C2599     1.0  0.57611  0.60458  0.68948  1.0000
  H   H2082     1.0  0.55616  0.41069  0.50382  1.0000
  H   H2083     1.0  0.81817  0.63975  0.68598  1.0000
  C   C2600     1.0  0.93587  0.59260  0.48481  1.0000
  H   H2084     1.0  0.52200  0.45752  0.69208  1.0000
  C   C2601     1.0  0.94465  0.64504  0.48843  1.0000
  H   H2085     1.0  0.62519  0.63134  0.68222  1.0000
  H   H2086     1.0  0.86846  0.40141  0.70934  1.0000
  C   C2602     1.0  0.66987  0.37699  0.69415  1.0000
  C   C2603     1.0  0.98326  0.66158  0.70261  1.0000
  H   H2087     1.0  0.90519  0.61454  0.69976  1.0000
  C   C2604     1.0  0.48744  0.37826  0.55033  1.0000
  C   C2605     1.0  0.85530  0.39217  0.72059  1.0000
  C   C2606     1.0  0.89176  0.64316  0.68473  1.0000
  C   C2607     1.0  0.88606  0.61944  0.69630  1.0000
  H   H2088     1.0  0.51959  0.62994  0.68492  1.0000
  H   H2089     1.0  0.81197  0.64181  0.62264  1.0000
  H   H2090     1.0  0.76508  0.37751  0.71643  1.0000
  P   P90       1.0  0.51230  0.56994  0.69862  1.0000
  C   C2608     1.0  0.74796  0.40841  0.70611  1.0000
  H   H2091     1.0  0.89562  0.64060  0.65012  1.0000
  C   C2609     1.0  0.53659  0.50430  0.68247  1.0000
  C   C2610     1.0  0.97116  0.34296  0.55323  1.0000
  C   C2611     1.0  0.86407  0.37408  0.73063  1.0000
  C   C2612     1.0  0.60804  0.35000  0.51667  1.0000
  H   H2092     1.0  0.68327  0.40931  0.67376  1.0000
  H   H2093     1.0  0.94645  0.35077  0.66304  1.0000
  S   S348      1.0  0.65187  0.62506  0.64955  1.0000
  H   H2094     1.0  0.73889  0.66343  0.68877  1.0000
  C   C2613     1.0  0.48963  0.59268  0.72278  1.0000
  C   C2614     1.0  0.50467  0.37146  0.53863  1.0000
  H   H2095     1.0  0.52990  0.38297  0.53749  1.0000
  C   C2615     1.0  0.53447  0.53201  0.68418  1.0000
  H   H2096     1.0  0.60406  0.64674  0.64288  1.0000
  C   C2616     1.0  0.51248  0.37714  0.49765  1.0000
  H   H2097     1.0  0.64082  0.43235  0.71303  1.0000
  C   C2617     1.0  0.64907  0.41681  0.70791  1.0000
  C   C2618     1.0  0.54248  0.62990  0.68441  1.0000
  H   H2098     1.0  0.91549  0.65633  0.67942  1.0000
  H   H2099     1.0  0.74329  0.39715  0.69568  1.0000
  C   C2619     1.0  0.51718  0.53502  0.69717  1.0000
  C   C2620     1.0  0.74138  0.43379  0.70787  1.0000
  C   C2621     1.0  0.66277  0.42394  0.69260  1.0000
  H   H2100     1.0  0.49931  0.39438  0.55830  1.0000
  H   H2101     1.0  0.74159  0.46753  0.72286  1.0000
  S   S349      1.0  0.94427  0.36061  0.72637  1.0000
  H   H2102     1.0  0.55174  0.35719  0.68400  1.0000
  C   C2622     1.0  0.76052  0.39750  0.71783  1.0000
  H   H2103     1.0  0.67769  0.36141  0.68877  1.0000
  H   H2104     1.0  0.73180  0.44236  0.69878  1.0000
  C   C2623     1.0  0.83722  0.63391  0.68840  1.0000
  C   C2624     1.0  0.86723  0.65019  0.68046  1.0000
  C   C2625     1.0  0.48707  0.37281  0.48934  1.0000
  C   C2626     1.0  0.98219  0.65951  0.51961  1.0000
  H   H2105     1.0  0.57962  0.58490  0.69393  1.0000
  H   H2106     1.0  0.85913  0.65569  0.63611  1.0000
  H   H2107     1.0  0.69233  0.66031  0.70941  1.0000
  C   C2627     1.0  0.91423  0.63849  0.48489  1.0000
  C   C2628     1.0  0.83006  0.39889  0.72521  1.0000
  C   C2629     1.0  0.55643  0.34130  0.52814  1.0000
  C   C2630     1.0  0.50735  0.57668  0.71846  1.0000
  C   C2631     1.0  0.97141  0.36733  0.64060  1.0000
  C   C2632     1.0  0.54600  0.60360  0.68991  1.0000
  C   C2633     1.0  0.48927  0.35116  0.52807  1.0000
  H   H2108     1.0  0.53564  0.38815  0.71469  1.0000
  H   H2109     1.0  0.97871  0.62633  0.49101  1.0000
  C   C2634     1.0  0.81315  0.65189  0.63341  1.0000
  H   H2110     1.0  0.82436  0.41381  0.71748  1.0000
  C   C2635     1.0  0.52079  0.47915  0.69355  1.0000
  H   H2111     1.0  0.56662  0.36421  0.48955  1.0000
  C   C2636     1.0  0.50238  0.48151  0.70619  1.0000
  H   H2112     1.0  0.66507  0.44481  0.68603  1.0000
  H   H2113     1.0  0.94495  0.64922  0.63470  1.0000
  C   C2637     1.0  0.50033  0.50927  0.70794  1.0000
  H   H2114     1.0  0.58376  0.38008  0.71304  1.0000
  S   S350      1.0  0.94014  0.64919  0.72769  1.0000
  C   C2638     1.0  0.78601  0.66002  0.71606  1.0000
  H   H2115     1.0  0.88386  0.36918  0.72719  1.0000
  H   H2116     1.0  0.59100  0.33445  0.54065  1.0000
  H   H2117     1.0  0.71273  0.64796  0.58468  1.0000
  C   C2639     1.0  0.83990  0.65981  0.64111  1.0000
  H   H2118     1.0  0.53900  0.33357  0.53809  1.0000
  C   C2640     1.0  0.97687  0.36034  0.62575  1.0000
  C   C2641     1.0  0.59837  0.65701  0.67748  1.0000
  C   C2642     1.0  0.91363  0.66375  0.64742  1.0000
  C   C2643     1.0  0.76701  0.41221  0.73130  1.0000
  H   H2119     1.0  0.48906  0.46152  0.71438  1.0000
  C   C2644     1.0  0.52273  0.56766  0.72955  1.0000
  H   H2120     1.0  0.94434  0.57487  0.48459  1.0000
  H   H2121     1.0  0.63056  0.34966  0.51772  1.0000
  H   H2122     1.0  0.86446  0.64309  0.59506  1.0000
  C   C2645     1.0  0.54851  0.39046  0.72462  1.0000
  C   C2646     1.0  0.58574  0.34144  0.52958  1.0000
  H   H2123     1.0  0.48509  0.51041  0.71750  1.0000
  S   S351      1.0  0.77214  0.42220  0.96065  1.0000
  H   H2124     1.0  0.83069  0.51991  0.90806  1.0000
  Fe  Fe173     1.0  0.73068  0.42446  0.95069  1.0000
  S   S352      1.0  0.73339  0.44339  0.92580  1.0000
  Fe  Fe174     1.0  0.68061  0.34619  0.81784  1.0000
  S   S353      1.0  0.72285  0.38413  0.80448  1.0000
  S   S354      1.0  0.89767  0.64789  0.76722  1.0000
  Fe  Fe175     1.0  0.69993  0.36820  0.84899  1.0000
  S   S355      1.0  0.74349  0.40826  0.83821  1.0000
  S   S356      1.0  0.68501  0.35253  0.87450  1.0000
  Fe  Fe176     1.0  0.71352  0.41422  0.82071  1.0000
  S   S357      1.0  0.71363  0.45900  0.81117  1.0000
  Fe  Fe177     1.0  0.74944  0.37496  0.82288  1.0000
  S   S358      1.0  0.66899  0.37680  0.83282  1.0000
  H   H2125     1.0  0.62413  0.40876  0.85044  1.0000
  C   C2647     1.0  0.79946  0.50522  0.94099  1.0000
  C   C2648     1.0  0.82265  0.62610  0.93106  1.0000
  C   C2649     1.0  0.58704  0.36332  0.85554  1.0000
  Fe  Fe178     1.0  0.85044  0.60838  0.76844  1.0000
  S   S359      1.0  0.84429  0.56705  0.78465  1.0000
  C   C2650     1.0  0.83338  0.47650  0.76466  1.0000
  Fe  Fe179     1.0  0.73772  0.37816  0.97380  1.0000
  H   H2126     1.0  0.84799  0.36458  0.80355  1.0000
  C   C2651     1.0  0.74996  0.48854  0.80340  1.0000
  C   C2652     1.0  0.75088  0.51276  0.79319  1.0000
  C   C2653     1.0  0.77965  0.53683  0.78707  1.0000
  C   C2654     1.0  0.80755  0.53708  0.79146  1.0000
  C   C2655     1.0  0.80649  0.51305  0.80180  1.0000
  C   C2656     1.0  0.77790  0.48863  0.80760  1.0000
  H   H2127     1.0  0.72931  0.51285  0.78995  1.0000
  H   H2128     1.0  0.78024  0.55534  0.77915  1.0000
  H   H2129     1.0  0.82800  0.51342  0.80533  1.0000
  H   H2130     1.0  0.77747  0.47018  0.81550  1.0000
  S   S360      1.0  0.70810  0.33439  0.83489  1.0000
  H   H2131     1.0  0.71694  0.41922  0.87261  1.0000
  H   H2132     1.0  0.86340  0.61213  0.82220  1.0000
  C   C2657     1.0  0.69908  0.37821  0.88850  1.0000
  C   C2658     1.0  0.69503  0.36641  0.90402  1.0000
  C   C2659     1.0  0.70546  0.38612  0.91556  1.0000
  C   C2660     1.0  0.72000  0.41787  0.91164  1.0000
  C   C2661     1.0  0.71374  0.40994  0.88454  1.0000
  S   S361      1.0  0.74715  0.33607  0.97564  1.0000
  H   H2133     1.0  0.70238  0.37676  0.92746  1.0000
  H   H2134     1.0  0.73524  0.45423  0.89301  1.0000
  C   C2662     1.0  0.72402  0.42970  0.89610  1.0000
  C   C2663     1.0  0.81268  0.34546  0.87273  1.0000
  H   H2135     1.0  0.62891  0.35929  0.80746  1.0000
  C   C2664     1.0  0.95984  0.33901  0.87084  1.0000
  H   H2136     1.0  0.82278  0.61126  0.80580  1.0000
  C   C2665     1.0  0.92965  0.62895  0.85275  1.0000
  C   C2666     1.0  0.80507  0.44116  0.85653  1.0000
  C   C2667     1.0  0.82652  0.44727  0.84351  1.0000
  C   C2668     1.0  0.83844  0.47589  0.83479  1.0000
  C   C2669     1.0  0.82872  0.49833  0.83901  1.0000
  C   C2670     1.0  0.80648  0.49207  0.85183  1.0000
  C   C2671     1.0  0.79478  0.46327  0.86057  1.0000
  P   P91       1.0  0.79213  0.52006  0.85692  1.0000
  C   C2672     1.0  0.75024  0.50006  0.86111  1.0000
  C   C2673     1.0  0.80887  0.53753  0.87373  1.0000
  C   C2674     1.0  0.81455  0.52022  0.88569  1.0000
  C   C2675     1.0  0.82661  0.53355  0.89885  1.0000
  H   H2137     1.0  0.90103  0.65087  0.89231  1.0000
  C   C2676     1.0  0.82711  0.58156  0.88849  1.0000
  C   C2677     1.0  0.81484  0.56824  0.87535  1.0000
  C   C2678     1.0  0.73302  0.47860  0.85143  1.0000
  C   C2679     1.0  0.70046  0.46408  0.85409  1.0000
  C   C2680     1.0  0.68486  0.47058  0.86657  1.0000
  C   C2681     1.0  0.70185  0.49146  0.87645  1.0000
  C   C2682     1.0  0.73444  0.50632  0.87370  1.0000
  C   C2683     1.0  0.80151  0.54939  0.84087  1.0000
  C   C2684     1.0  0.83215  0.57237  0.83753  1.0000
  C   C2685     1.0  0.83968  0.59484  0.82503  1.0000
  C   C2686     1.0  0.81673  0.59464  0.81584  1.0000
  C   C2687     1.0  0.78618  0.57220  0.81920  1.0000
  C   C2688     1.0  0.77857  0.54955  0.83158  1.0000
  H   H2138     1.0  0.79533  0.41876  0.86310  1.0000
  H   H2139     1.0  0.83334  0.42956  0.83998  1.0000
  C   C2689     1.0  0.91896  0.65219  0.91421  1.0000
  H   H2140     1.0  0.83804  0.52012  0.83195  1.0000
  H   H2141     1.0  0.77716  0.45758  0.87033  1.0000
  H   H2142     1.0  0.80940  0.49633  0.88506  1.0000
  C   C2690     1.0  0.91027  0.36758  0.82546  1.0000
  H   H2143     1.0  0.83147  0.65141  0.90861  1.0000
  H   H2144     1.0  0.84083  0.48349  0.78831  1.0000
  H   H2145     1.0  0.80980  0.58191  0.86654  1.0000
  H   H2146     1.0  0.74470  0.47368  0.84154  1.0000
  H   H2147     1.0  0.68745  0.44806  0.84631  1.0000
  H   H2148     1.0  0.65961  0.45955  0.86856  1.0000
  H   H2149     1.0  0.68976  0.49624  0.88621  1.0000
  H   H2150     1.0  0.74710  0.52263  0.88139  1.0000
  H   H2151     1.0  0.85030  0.57263  0.84443  1.0000
  C   C2691     1.0  0.59251  0.38859  0.73667  1.0000
  Fe  Fe180     1.0  0.76041  0.44415  0.98056  1.0000
  H   H2152     1.0  0.75488  0.53206  0.83354  1.0000
  H   H2153     1.0  0.63169  0.36642  0.76858  1.0000
  C   C2692     1.0  0.66987  0.40572  0.77482  1.0000
  C   C2693     1.0  0.78923  0.55039  0.94141  1.0000
  H   H2154     1.0  0.57704  0.36497  0.84499  1.0000
  P   P92       1.0  0.78202  0.39715  0.74658  1.0000
  H   H2155     1.0  0.66741  0.39613  0.78668  1.0000
  H   H2156     1.0  0.70827  0.44814  0.77805  1.0000
  S   S362      1.0  0.72176  0.45027  0.96957  1.0000
  C   C2694     1.0  0.82113  0.51645  0.95157  1.0000
  C   C2695     1.0  0.62114  0.36668  0.95356  1.0000
  H   H2157     1.0  0.72741  0.39247  0.76609  1.0000
  H   H2158     1.0  0.83446  0.61230  0.92739  1.0000
  H   H2159     1.0  0.59884  0.35106  0.91778  1.0000
  C   C2696     1.0  0.82685  0.54459  0.95716  1.0000
  C   C2697     1.0  0.79469  0.35994  0.87862  1.0000
  C   C2698     1.0  0.82113  0.64829  0.92041  1.0000
  H   H2160     1.0  0.49850  0.59324  0.76107  1.0000
  H   H2161     1.0  0.83681  0.35349  0.87501  1.0000
  H   H2162     1.0  0.54399  0.40336  0.76228  1.0000
  H   H2163     1.0  0.80486  0.37901  0.88537  1.0000
  H   H2164     1.0  0.65064  0.41156  0.95940  1.0000
  H   H2165     1.0  0.84836  0.50017  0.76040  1.0000
  C   C2699     1.0  0.64431  0.41233  0.93527  1.0000
  C   C2700     1.0  0.78701  0.58614  0.97734  1.0000
  C   C2701     1.0  0.76339  0.34956  0.87599  1.0000
  C   C2702     1.0  0.92371  0.63609  0.83792  1.0000
  H   H2166     1.0  0.84910  0.66068  0.83228  1.0000
  C   C2703     1.0  0.81019  0.62271  0.94653  1.0000
  P   P93       1.0  0.62615  0.37983  0.73598  1.0000
  C   C2704     1.0  0.48628  0.59841  0.73813  1.0000
  H   H2167     1.0  0.81065  0.36129  0.76149  1.0000
  C   C2705     1.0  0.62951  0.39522  0.92359  1.0000
  C   C2706     1.0  0.87656  0.64244  0.95860  1.0000
  H   H2168     1.0  0.83247  0.50263  0.95602  1.0000
  H   H2169     1.0  0.79429  0.48292  0.93707  1.0000
  H   H2170     1.0  0.88602  0.39663  0.82311  1.0000
  C   C2707     1.0  0.88547  0.37564  0.82872  1.0000
  H   H2171     1.0  0.84262  0.55201  0.96590  1.0000
  C   C2708     1.0  0.63952  0.39820  0.95030  1.0000
  H   H2172     1.0  0.80641  0.42954  0.79832  1.0000
  C   C2709     1.0  0.64975  0.38896  0.76452  1.0000
  Fe  Fe181     1.0  0.69067  0.40357  0.98185  1.0000
  S   S363      1.0  0.69692  0.37826  0.96222  1.0000
  H   H2173     1.0  0.93004  0.60698  0.85582  1.0000
  C   C2710     1.0  0.58910  0.34834  0.79469  1.0000
  H   H2174     1.0  0.74898  0.33103  0.80211  1.0000
  C   C2711     1.0  0.79600  0.64166  0.95114  1.0000
  C   C2712     1.0  0.78353  0.52219  0.93590  1.0000
  H   H2175     1.0  0.97772  0.36771  0.90636  1.0000
  H   H2176     1.0  0.84223  0.57432  0.91050  1.0000
  H   H2177     1.0  0.93025  0.38246  0.81743  1.0000
  H   H2178     1.0  0.76603  0.51286  0.92805  1.0000
  H   H2179     1.0  0.94203  0.65976  0.93490  1.0000
  C   C2713     1.0  0.81313  0.38707  0.73984  1.0000
  C   C2714     1.0  0.65271  0.40139  0.74917  1.0000
  C   C2715     1.0  0.61547  0.35970  0.88207  1.0000
  C   C2716     1.0  0.61246  0.34236  0.80123  1.0000
  C   C2717     1.0  0.61052  0.36382  0.92689  1.0000
  H   H2180     1.0  0.76860  0.57169  0.81182  1.0000
  H   H2181     1.0  0.85462  0.34899  0.75315  1.0000
  C   C2718     1.0  0.82692  0.34974  0.79905  1.0000
  H   H2182     1.0  0.91924  0.61963  0.82952  1.0000
  C   C2719     1.0  0.81871  0.45531  0.75441  1.0000
  H   H2183     1.0  0.83182  0.60530  0.88957  1.0000
  H   H2184     1.0  0.53117  0.56628  0.75341  1.0000
  S   S364      1.0  0.79683  0.37457  0.81801  1.0000
  C   C2720     1.0  0.83300  0.56421  0.90024  1.0000
  C   C2721     1.0  0.51938  0.57346  0.74489  1.0000
  C   C2722     1.0  0.79833  0.35021  0.80413  1.0000
  C   C2723     1.0  0.69296  0.43510  0.76996  1.0000
  S   S365      1.0  0.85207  0.60856  0.74278  1.0000
  H   H2185     1.0  0.77570  0.56258  0.93783  1.0000
  H   H2186     1.0  0.83963  0.36200  0.84045  1.0000
  C   C2724     1.0  0.74822  0.36458  0.75600  1.0000
  H   H2187     1.0  0.68066  0.34833  0.77893  1.0000
  C   C2725     1.0  0.90505  0.65816  0.96437  1.0000
  H   H2188     1.0  0.94548  0.34220  0.88018  1.0000
  C   C2726     1.0  0.55340  0.39947  0.75137  1.0000
  H   H2189     1.0  0.78702  0.64024  0.96303  1.0000
  C   C2727     1.0  0.62829  0.38631  0.87175  1.0000
  C   C2728     1.0  0.79875  0.42482  0.75998  1.0000
  H   H2190     1.0  0.71350  0.47084  0.75114  1.0000
  C   C2729     1.0  0.91086  0.64734  0.97848  1.0000
  C   C2730     1.0  0.74401  0.33444  0.75412  1.0000
  C   C2731     1.0  0.69591  0.44781  0.75477  1.0000
  H   H2191     1.0  0.62744  0.35785  0.89191  1.0000
  C   C2732     1.0  0.72487  0.36943  0.76469  1.0000
  C   C2733     1.0  0.82257  0.36953  0.74994  1.0000
  H   H2192     1.0  0.78080  0.39186  0.78044  1.0000
  H   H2193     1.0  0.52195  0.33245  0.80933  1.0000
  C   C2734     1.0  0.85923  0.35602  0.83873  1.0000
  C   C2735     1.0  0.61248  0.33908  0.74145  1.0000
  C   C2736     1.0  0.81120  0.56199  0.95198  1.0000
  C   C2737     1.0  0.82899  0.46716  0.78045  1.0000
  H   H2194     1.0  0.85478  0.48051  0.82458  1.0000
  C   C2738     1.0  0.61384  0.38832  0.85861  1.0000
  C   C2739     1.0  0.97646  0.33574  0.79457  1.0000
  C   C2740     1.0  0.79485  0.41552  0.77587  1.0000
  H   H2195     1.0  0.58782  0.37000  0.79586  1.0000
  C   C2741     1.0  0.60726  0.34909  0.94177  1.0000
  H   H2196     1.0  0.59256  0.39625  0.76081  1.0000
  C   C2742     1.0  0.53706  0.39687  0.73848  1.0000
  H   H2197     1.0  0.65965  0.43651  0.93269  1.0000
  C   C2743     1.0  0.69830  0.34452  0.77192  1.0000
  H   H2198     1.0  0.65752  0.34222  0.74691  1.0000
  H   H2199     1.0  0.61835  0.35604  0.96524  1.0000
  C   C2744     1.0  0.85368  0.61544  0.96687  1.0000
  H   H2200     1.0  0.74936  0.36065  0.88061  1.0000
  P   P94       1.0  0.81539  0.59640  0.96054  1.0000
  H   H2201     1.0  0.65000  0.40484  0.87375  1.0000
  C   C2745     1.0  0.80967  0.43676  0.78606  1.0000
  S   S366      1.0  0.82429  0.63797  0.76970  1.0000
  H   H2202     1.0  0.63313  0.40627  0.91196  1.0000
  H   H2203     1.0  0.94144  0.64473  0.87470  1.0000
  Fe  Fe182     1.0  0.82990  0.64178  0.74364  1.0000
  C   C2746     1.0  0.50104  0.58870  0.74919  1.0000
  C   C2747     1.0  0.58856  0.33483  0.87913  1.0000
  C   C2748     1.0  0.93561  0.65032  0.86354  1.0000
  H   H2204     1.0  0.51517  0.39915  0.73931  1.0000
  H   H2205     1.0  0.90014  0.63070  0.91918  1.0000
  C   C2749     1.0  0.90884  0.33988  0.83223  1.0000
  Fe  Fe183     1.0  0.89777  0.65018  0.74143  1.0000
  C   C2750     1.0  0.58106  0.39544  0.75048  1.0000
  C   C2751     1.0  0.84770  0.36280  0.74529  1.0000
  H   H2206     1.0  0.87225  0.65230  0.94805  1.0000
  H   H2207     1.0  0.68428  0.34188  0.90711  1.0000
  C   C2752     1.0  0.67589  0.43107  0.74440  1.0000
  H   H2208     1.0  0.76254  0.44783  0.74381  1.0000
  C   C2753     1.0  0.57437  0.33622  0.86572  1.0000
  C   C2754     1.0  0.76121  0.55739  0.97964  1.0000
  H   H2209     1.0  0.82310  0.46270  0.74216  1.0000
  C   C2755     1.0  0.77119  0.33101  0.79821  1.0000
  H   H2210     1.0  0.75746  0.54087  0.97136  1.0000
  C   C2756     1.0  0.85992  0.60458  0.98094  1.0000
  H   H2211     1.0  0.92759  0.33312  0.82939  1.0000
  S   S367      1.0  0.54046  0.33632  0.77746  1.0000
  C   C2757     1.0  0.91957  0.66373  0.89901  1.0000
  C   C2758     1.0  0.79457  0.66384  0.94047  1.0000
  C   C2759     1.0  0.75931  0.43704  0.73321  1.0000
  H   H2212     1.0  0.67840  0.44156  0.73279  1.0000
  C   C2760     1.0  0.85658  0.69466  0.10175  1.0000
  C   C2761     1.0  0.84029  0.77236  0.23235  1.0000
  H   H2213     1.0  0.84970  0.67334  0.09662  1.0000
  Fe  Fe184     1.0  0.64360  0.70563  0.13835  1.0000
  S   S368      1.0  0.63127  0.74442  0.12993  1.0000
  S   S369      1.0  0.68957  0.70346  0.14188  1.0000
  Fe  Fe185     1.0  0.65167  0.88409  0.02375  1.0000
  S   S370      1.0  0.63441  0.83392  0.03161  1.0000
  S   S371      1.0  0.68724  0.90761  0.00266  1.0000
  Fe  Fe186     1.0  0.62348  0.89658  0.05396  1.0000
  S   S372      1.0  0.60424  0.84736  0.06408  1.0000
  S   S373      1.0  0.61580  0.93461  0.06517  1.0000
  Fe  Fe187     1.0  0.65007  0.84852  0.05453  1.0000
  S   S374      1.0  0.67962  0.82767  0.06564  1.0000
  Fe  Fe188     1.0  0.58977  0.83627  0.04044  1.0000
  S   S375      1.0  0.54283  0.79595  0.04007  1.0000
  S   S376      1.0  0.67067  0.89877  0.04619  1.0000
  S   S377      1.0  0.60567  0.88562  0.03083  1.0000
  C   C2762     1.0  0.53315  0.68818  0.10272  1.0000
  H   H2214     1.0  0.52312  0.83485  0.99037  1.0000
  H   H2215     1.0  0.73841  0.67897  0.13456  1.0000
  H   H2216     1.0  0.95791  0.70153  0.01528  1.0000
  H   H2217     1.0  0.93424  0.81304  0.23044  1.0000
  C   C2763     1.0  0.62898  0.94606  0.08316  1.0000
  C   C2764     1.0  0.63662  0.92713  0.09320  1.0000
  C   C2765     1.0  0.64485  0.93562  0.10788  1.0000
  C   C2766     1.0  0.64645  0.96349  0.11259  1.0000
  H   H2218     1.0  0.54846  0.81205  0.08696  1.0000
  C   C2767     1.0  0.63047  0.97399  0.08780  1.0000
  H   H2219     1.0  0.63548  0.90560  0.08977  1.0000
  H   H2220     1.0  0.64979  0.92032  0.11565  1.0000
  H   H2221     1.0  0.79151  0.88930  0.99025  1.0000
  C   C2768     1.0  0.72509  0.85428  0.00008  1.0000
  H   H2222     1.0  0.87347  0.72153  0.07963  1.0000
  H   H2223     1.0  0.77378  0.71959  0.08690  1.0000
  C   C2769     1.0  0.64439  0.76595  0.11162  1.0000
  C   C2770     1.0  0.62769  0.78192  0.10601  1.0000
  C   C2771     1.0  0.63791  0.80033  0.09178  1.0000
  C   C2772     1.0  0.66546  0.80368  0.08326  1.0000
  C   C2773     1.0  0.68237  0.78793  0.08892  1.0000
  C   C2774     1.0  0.67162  0.76872  0.10294  1.0000
  H   H2224     1.0  0.60678  0.78009  0.11274  1.0000
  H   H2225     1.0  0.62481  0.81239  0.08753  1.0000
  H   H2226     1.0  0.70377  0.79047  0.08240  1.0000
  H   H2227     1.0  0.68483  0.75676  0.10724  1.0000
  C   C2775     1.0  0.72919  0.72501  0.22340  1.0000
  C   C2776     1.0  0.51460  0.81642  0.99968  1.0000
  C   C2777     1.0  0.53222  0.81823  0.01215  1.0000
  C   C2778     1.0  0.52163  0.79433  0.02410  1.0000
  C   C2779     1.0  0.49679  0.67063  0.04569  1.0000
  H   H2228     1.0  0.92222  0.69581  0.11271  1.0000
  H   H2229     1.0  0.66632  0.96925  0.21657  1.0000
  H   H2230     1.0  0.55407  0.83801  0.01243  1.0000
  Fe  Fe189     1.0  0.66571  0.67876  0.16535  1.0000
  H   H2231     1.0  0.69679  0.74344  0.18631  1.0000
  H   H2232     1.0  0.77757  0.84391  0.11489  1.0000
  H   H2233     1.0  0.89467  0.70271  0.13921  1.0000
  C   C2780     1.0  0.90697  0.67685  0.15608  1.0000
  S   S378      1.0  0.62153  0.68433  0.16246  1.0000
  Fe  Fe190     1.0  0.83027  0.66700  0.05630  1.0000
  C   C2781     1.0  0.75358  0.67187  0.14084  1.0000
  C   C2782     1.0  0.52275  0.86496  0.06965  1.0000
  C   C2783     1.0  0.92096  0.67048  0.09316  1.0000
  C   C2784     1.0  0.71665  0.70256  0.21323  1.0000
  C   C2785     1.0  0.70471  0.70891  0.19981  1.0000
  C   C2786     1.0  0.70580  0.73818  0.19659  1.0000
  C   C2787     1.0  0.73680  0.80991  0.00041  1.0000
  C   C2788     1.0  0.77958  0.67034  0.13294  1.0000
  H   H2234     1.0  0.49330  0.79861  0.08299  1.0000
  C   C2789     1.0  0.49507  0.86347  0.07727  1.0000
  H   H2235     1.0  0.68264  0.95119  0.15886  1.0000
  H   H2236     1.0  0.57521  0.75506  0.05823  1.0000
  H   H2237     1.0  0.62997  0.77568  0.04667  1.0000
  C   C2790     1.0  0.69488  0.93730  0.23060  1.0000
  C   C2791     1.0  0.51169  0.69094  0.05626  1.0000
  C   C2792     1.0  0.73686  0.80844  0.12801  1.0000
  H   H2238     1.0  0.71948  0.78333  0.20408  1.0000
  C   C2793     1.0  0.52012  0.68028  0.06977  1.0000
  C   C2794     1.0  0.73025  0.75426  0.22020  1.0000
  H   H2239     1.0  0.49476  0.99325  0.20643  1.0000
  C   C2795     1.0  0.85893  0.72329  0.12372  1.0000
  H   H2240     1.0  0.88784  0.77123  0.09036  1.0000
  H   H2241     1.0  0.87802  0.77239  0.11857  1.0000
  H   H2242     1.0  0.92890  0.69594  0.15739  1.0000
  H   H2243     1.0  0.79466  0.98243  0.99900  1.0000
  H   H2244     1.0  0.64762  0.71492  0.07869  1.0000
  C   C2796     1.0  0.52242  0.85354  0.05538  1.0000
  H   H2245     1.0  0.62460  0.98880  0.08009  1.0000
  S   S379      1.0  0.89947  0.69629  0.00397  1.0000
  H   H2246     1.0  0.54377  0.85442  0.04950  1.0000
  H   H2247     1.0  0.80018  0.76770  0.22075  1.0000
  C   C2797     1.0  0.71869  0.76076  0.20669  1.0000
  H   H2248     1.0  0.85417  0.72403  0.13596  1.0000
  S   S380      1.0  0.80896  0.69436  0.06914  1.0000
  C   C2798     1.0  0.76313  0.69506  0.09006  1.0000
  C   C2799     1.0  0.73580  0.83546  0.99216  1.0000
  C   C2800     1.0  0.87237  0.75070  0.11391  1.0000
  H   H2249     1.0  0.57643  0.72114  0.10966  1.0000
  C   C2801     1.0  0.87798  0.75010  0.09804  1.0000
  H   H2250     1.0  0.56894  0.69419  0.13563  1.0000
  C   C2802     1.0  0.69656  0.93908  0.15544  1.0000
  C   C2803     1.0  0.72458  0.94496  0.16163  1.0000
  C   C2804     1.0  0.74280  0.92988  0.15686  1.0000
  C   C2805     1.0  0.73313  0.90912  0.14580  1.0000
  C   C2806     1.0  0.70489  0.90297  0.13958  1.0000
  C   C2807     1.0  0.68670  0.91815  0.14451  1.0000
  P   P95       1.0  0.69344  0.87825  0.12435  1.0000
  C   C2808     1.0  0.65131  0.85847  0.12615  1.0000
  C   C2809     1.0  0.70738  0.90090  0.10579  1.0000
  C   C2810     1.0  0.71399  0.93224  0.10421  1.0000
  C   C2811     1.0  0.72334  0.94909  0.08964  1.0000
  C   C2812     1.0  0.72636  0.93487  0.07661  1.0000
  C   C2813     1.0  0.71997  0.90377  0.07811  1.0000
  C   C2814     1.0  0.71041  0.88680  0.09262  1.0000
  C   C2815     1.0  0.63434  0.84652  0.14075  1.0000
  C   C2816     1.0  0.60173  0.83142  0.14222  1.0000
  C   C2817     1.0  0.58582  0.82845  0.12916  1.0000
  C   C2818     1.0  0.60252  0.84050  0.11461  1.0000
  C   C2819     1.0  0.63512  0.85525  0.11309  1.0000
  C   C2820     1.0  0.71018  0.85069  0.12583  1.0000
  C   C2821     1.0  0.74089  0.85880  0.11920  1.0000
  C   C2822     1.0  0.70649  0.80032  0.13477  1.0000
  C   C2823     1.0  0.69306  0.82121  0.13361  1.0000
  H   H2251     1.0  0.65451  0.73909  0.22374  1.0000
  H   H2252     1.0  0.74540  0.79523  0.99476  1.0000
  H   H2253     1.0  0.74784  0.89810  0.14210  1.0000
  H   H2254     1.0  0.66511  0.91435  0.13974  1.0000
  H   H2255     1.0  0.71123  0.94363  0.11409  1.0000
  H   H2256     1.0  0.72774  0.97306  0.08843  1.0000
  H   H2257     1.0  0.73333  0.94781  0.06532  1.0000
  H   H2258     1.0  0.72185  0.89254  0.06799  1.0000
  H   H2259     1.0  0.70480  0.86251  0.09349  1.0000
  H   H2260     1.0  0.64637  0.84867  0.15098  1.0000
  H   H2261     1.0  0.58882  0.82195  0.15350  1.0000
  H   H2262     1.0  0.56057  0.81674  0.13030  1.0000
  H   H2263     1.0  0.59032  0.83828  0.10445  1.0000
  H   H2264     1.0  0.64745  0.86398  0.10167  1.0000
  H   H2265     1.0  0.66627  0.75606  0.05684  1.0000
  H   H2266     1.0  0.69294  0.77747  0.14062  1.0000
  H   H2267     1.0  0.66918  0.81383  0.13859  1.0000
  C   C2824     1.0  0.82907  0.81487  0.22341  1.0000
  C   C2825     1.0  0.62160  0.75753  0.05611  1.0000
  C   C2826     1.0  0.73122  0.99093  0.98788  1.0000
  H   H2268     1.0  0.91574  0.86217  0.21164  1.0000
  C   C2827     1.0  0.58002  0.72308  0.07541  1.0000
  C   C2828     1.0  0.55543  0.70032  0.11306  1.0000
  H   H2269     1.0  0.48516  0.75013  0.03270  1.0000
  C   C2829     1.0  0.54440  0.76601  0.08601  1.0000
  C   C2830     1.0  0.97168  0.93599  0.22771  1.0000
  C   C2831     1.0  0.85570  0.83520  0.22933  1.0000
  H   H2270     1.0  0.78429  0.67649  0.12056  1.0000
  H   H2271     1.0  0.94951  0.90773  0.19377  1.0000
  H   H2272     1.0  0.55762  0.84335  0.23163  1.0000
  H   H2273     1.0  0.67894  0.92182  0.22353  1.0000
  H   H2274     1.0  0.71449  0.97217  0.04503  1.0000
  C   C2832     1.0  0.98341  0.76219  0.08797  1.0000
  C   C2833     1.0  0.88666  0.70653  0.98676  1.0000
  H   H2275     1.0  0.81366  0.82320  0.21812  1.0000
  C   C2834     1.0  0.55117  0.68524  0.12786  1.0000
  C   C2835     1.0  0.93253  0.68275  0.10675  1.0000
  C   C2836     1.0  0.85137  0.69506  0.11775  1.0000
  C   C2837     1.0  0.71519  0.84749  0.01589  1.0000
  C   C2838     1.0  0.71599  0.82191  0.02399  1.0000
  C   C2839     1.0  0.72687  0.80317  0.01626  1.0000
  H   H2276     1.0  0.56871  0.77234  0.08754  1.0000
  C   C2840     1.0  0.64473  0.97065  0.22035  1.0000
  H   H2277     1.0  0.72659  0.69604  0.10612  1.0000
  S   S381      1.0  0.96893  0.69166  0.13062  1.0000
  C   C2841     1.0  0.50184  0.78097  0.08357  1.0000
  H   H2278     1.0  0.94270  0.68020  0.04269  1.0000
  C   C2842     1.0  0.58985  0.97667  0.22943  1.0000
  H   H2279     1.0  0.53884  0.96057  0.07511  1.0000
  H   H2280     1.0  0.70652  0.98324  0.99153  1.0000
  C   C2843     1.0  0.63349  0.98657  0.21036  1.0000
  C   C2844     1.0  0.49467  0.84111  0.04856  1.0000
  C   C2845     1.0  0.60056  0.71136  0.08080  1.0000
  C   C2846     1.0  0.88735  0.68060  0.14574  1.0000
  H   H2281     1.0  0.66519  0.96152  0.03370  1.0000
  H   H2282     1.0  0.48984  0.91416  0.00674  1.0000
  H   H2283     1.0  0.86070  0.85932  0.22853  1.0000
  C   C2847     1.0  0.87007  0.72210  0.09199  1.0000
  S   S382      1.0  0.68863  0.67938  0.18761  1.0000
  H   H2284     1.0  0.70680  0.86211  0.02185  1.0000
  H   H2285     1.0  0.70826  0.81673  0.03626  1.0000
  H   H2286     1.0  0.72773  0.78349  0.02259  1.0000
  H   H2287     1.0  0.97911  0.76006  0.11282  1.0000
  Fe  Fe191     1.0  0.86965  0.66953  0.02630  1.0000
  C   C2848     1.0  0.48622  0.79085  0.99909  1.0000
  C   C2849     1.0  0.97483  0.70924  0.02354  1.0000
  S   S383      1.0  0.65706  0.97266  0.13130  1.0000
  C   C2850     1.0  0.77590  0.67678  0.08307  1.0000
  C   C2851     1.0  0.82134  0.78347  0.22494  1.0000
  C   C2852     1.0  0.64204  0.74625  0.06177  1.0000
  C   C2853     1.0  0.95699  0.67783  0.11279  1.0000
  C   C2854     1.0  0.63939  0.98281  0.10242  1.0000
  C   C2855     1.0  0.59068  0.74600  0.06285  1.0000
  H   H2288     1.0  0.63004  0.88475  0.98739  1.0000
  H   H2289     1.0  0.59295  0.69329  0.09022  1.0000
  H   H2290     1.0  0.51492  0.98910  0.15940  1.0000
  H   H2291     1.0  0.90194  0.67412  0.08870  1.0000
  H   H2292     1.0  0.74687  0.79192  0.12870  1.0000
  C   C2856     1.0  0.49302  0.72803  0.08233  1.0000
  C   C2857     1.0  0.53300  0.78855  0.08577  1.0000
  H   H2293     1.0  0.64712  0.68572  0.22543  1.0000
  H   H2294     1.0  0.96348  0.76745  0.08688  1.0000
  C   C2858     1.0  0.93091  0.88277  0.21629  1.0000
  S   S384      1.0  0.88218  0.68849  0.04899  1.0000
  C   C2859     1.0  0.49324  0.76877  0.02355  1.0000
  H   H2295     1.0  0.73845  0.96608  0.00744  1.0000
  C   C2860     1.0  0.51718  0.96333  0.07613  1.0000
  H   H2296     1.0  0.83749  0.68317  0.99428  1.0000
  H   H2297     1.0  0.54456  0.87511  0.07472  1.0000
  H   H2298     1.0  0.76462  0.93456  0.16160  1.0000
  C   C2861     1.0  0.75408  0.83769  0.12023  1.0000
  C   C2862     1.0  0.73643  0.68178  0.10096  1.0000
  H   H2299     1.0  0.73565  0.93845  0.21733  1.0000
  C   C2863     1.0  0.74922  0.98113  0.99686  1.0000
  H   H2300     1.0  0.73225  0.96145  0.16998  1.0000
  C   C2864     1.0  0.63153  0.72318  0.07411  1.0000
  H   H2301     1.0  0.75460  0.88138  0.11315  1.0000
  H   H2302     1.0  0.71609  0.68007  0.21583  1.0000
  C   C2865     1.0  0.97049  0.93514  0.21181  1.0000
  P   P96       1.0  0.53946  0.70679  0.08329  1.0000
  C   C2866     1.0  0.52462  0.73571  0.08393  1.0000
  C   C2867     1.0  0.67612  0.98213  0.03936  1.0000
  H   H2303     1.0  0.72430  0.87426  0.99402  1.0000
  C   C2868     1.0  0.78084  0.99021  0.99203  1.0000
  H   H2304     1.0  0.82474  0.94481  0.98523  1.0000
  H   H2305     1.0  0.49135  0.92205  0.06594  1.0000
  C   C2869     1.0  0.68018  0.90507  0.98304  1.0000
  H   H2306     1.0  0.49024  0.67906  0.03534  1.0000
  C   C2870     1.0  0.95020  0.90851  0.20611  1.0000
  C   C2871     1.0  0.49039  0.94162  0.07097  1.0000
  C   C2872     1.0  0.85499  0.69682  0.98489  1.0000
  C   C2873     1.0  0.48800  0.99190  0.08428  1.0000
  C   C2874     1.0  0.96622  0.69728  0.03902  1.0000
  C   C2875     1.0  0.51591  0.98834  0.08286  1.0000
  H   H2307     1.0  0.49539  0.87240  0.08834  1.0000
  C   C2876     1.0  0.70381  0.98804  0.04588  1.0000
  H   H2308     1.0  0.49508  0.83285  0.03735  1.0000
  C   C2877     1.0  0.60619  0.98972  0.21490  1.0000
  H   H2309     1.0  0.51681  0.71502  0.05380  1.0000
  H   H2310     1.0  0.98008  0.69866  0.06181  1.0000
  C   C2878     1.0  0.72701  0.94672  0.22701  1.0000
  C   C2879     1.0  0.93158  0.88369  0.23228  1.0000
  H   H2311     1.0  0.63989  0.99699  0.03591  1.0000
  H   H2312     1.0  0.64645  0.99702  0.19917  1.0000
  H   H2313     1.0  0.72679  0.66533  0.16286  1.0000
  C   C2880     1.0  0.74698  0.66408  0.15678  1.0000
  C   C2881     1.0  0.70480  0.96843  0.25191  1.0000
  H   H2314     1.0  0.56652  0.97074  0.30535  1.0000
  H   H2315     1.0  0.49580  0.71423  0.37007  1.0000
  Fe  Fe192     1.0  0.76083  0.77492  0.25620  1.0000
  S   S385      1.0  0.80487  0.80795  0.26495  1.0000
  H   H2316     1.0  0.66543  0.74108  0.27203  1.0000
  Fe  Fe193     1.0  0.73986  0.73233  0.28638  1.0000
  S   S386      1.0  0.78137  0.76211  0.29766  1.0000
  Fe  Fe194     1.0  0.77375  0.80193  0.28682  1.0000
  S   S387      1.0  0.77683  0.83874  0.30248  1.0000
  Fe  Fe195     1.0  0.80996  0.76621  0.27538  1.0000
  S   S388      1.0  0.85151  0.75340  0.27363  1.0000
  S   S389      1.0  0.72941  0.77156  0.27756  1.0000
  S   S390      1.0  0.76882  0.73424  0.26450  1.0000
  C   C2882     1.0  0.83113  0.85085  0.41920  1.0000
  H   H2317     1.0  0.53109  0.77897  0.38664  1.0000
  S   S391      1.0  0.76688  0.96308  0.28103  1.0000
  Fe  Fe196     1.0  0.71850  0.69173  0.37232  1.0000
  S   S392      1.0  0.80307  0.78696  0.46074  1.0000
  C   C2883     1.0  0.89412  0.67711  0.26597  1.0000
  Fe  Fe197     1.0  0.68207  0.69922  0.40111  1.0000
  S   S393      1.0  0.72115  0.73346  0.38463  1.0000
  S   S394      1.0  0.68444  0.70537  0.42693  1.0000
  Fe  Fe198     1.0  0.68217  0.73730  0.37158  1.0000
  S   S395      1.0  0.66762  0.77728  0.36489  1.0000
  S   S396      1.0  0.64388  0.70325  0.38831  1.0000
  Fe  Fe199     1.0  0.51131  0.82385  0.35718  1.0000
  S   S397      1.0  0.52347  0.86043  0.37341  1.0000
  S   S398      1.0  0.54114  0.79538  0.35309  1.0000
  S   S399      1.0  0.52431  0.93825  0.35059  1.0000
  Fe  Fe200     1.0  0.53693  0.98108  0.40690  1.0000
  S   S400      1.0  0.52360  0.97171  0.43289  1.0000
  H   H2318     1.0  0.89085  0.90236  0.24932  1.0000
  C   C2884     1.0  0.54235  0.97901  0.35408  1.0000
  H   H2319     1.0  0.70820  0.93406  0.34470  1.0000
  C   C2885     1.0  0.73687  0.97776  0.24829  1.0000
  H   H2320     1.0  0.72929  0.87415  0.24436  1.0000
  H   H2321     1.0  0.53882  0.97212  0.37867  1.0000
  C   C2886     1.0  0.80740  0.66843  0.29730  1.0000
  H   H2322     1.0  0.78043  0.90662  0.41829  1.0000
  C   C2887     1.0  0.63144  0.78137  0.36277  1.0000
  C   C2888     1.0  0.63151  0.81081  0.36206  1.0000
  C   C2889     1.0  0.60418  0.81541  0.35980  1.0000
  C   C2890     1.0  0.57604  0.79075  0.35766  1.0000
  C   C2891     1.0  0.57599  0.76132  0.35835  1.0000
  C   C2892     1.0  0.60299  0.75658  0.36121  1.0000
  H   H2323     1.0  0.65303  0.83041  0.36320  1.0000
  H   H2324     1.0  0.60523  0.83830  0.35924  1.0000
  H   H2325     1.0  0.55477  0.74185  0.35668  1.0000
  H   H2326     1.0  0.60204  0.73374  0.36169  1.0000
  C   C2893     1.0  0.65830  0.69867  0.26288  1.0000
  H   H2327     1.0  0.73164  0.67551  0.42190  1.0000
  C   C2894     1.0  0.76925  0.76561  0.45150  1.0000
  C   C2895     1.0  0.77300  0.76262  0.43564  1.0000
  C   C2896     1.0  0.74743  0.74466  0.42791  1.0000
  C   C2897     1.0  0.71752  0.72924  0.43598  1.0000
  C   C2898     1.0  0.71367  0.73256  0.45179  1.0000
  C   C2899     1.0  0.73926  0.75066  0.45949  1.0000
  H   H2328     1.0  0.79597  0.77424  0.42929  1.0000
  H   H2329     1.0  0.75096  0.74256  0.41577  1.0000
  H   H2330     1.0  0.69076  0.72081  0.45820  1.0000
  H   H2331     1.0  0.73591  0.75257  0.47169  1.0000
  H   H2332     1.0  0.61787  0.89328  0.27668  1.0000
  H   H2333     1.0  0.66038  0.68817  0.27385  1.0000
  H   H2334     1.0  0.71240  0.82236  0.30500  1.0000
  C   C2900     1.0  0.68446  0.82896  0.27644  1.0000
  H   H2335     1.0  0.91635  0.79801  0.31525  1.0000
  H   H2336     1.0  0.58775  0.95019  0.25059  1.0000
  C   C2901     1.0  0.59773  0.96467  0.37005  1.0000
  C   C2902     1.0  0.81054  0.85108  0.40858  1.0000
  H   H2337     1.0  0.57459  0.94627  0.37254  1.0000
  P   P97       1.0  0.73547  0.84865  0.43608  1.0000
  C   C2903     1.0  0.67335  0.89773  0.31466  1.0000
  H   H2338     1.0  0.67316  0.80497  0.28092  1.0000
  C   C2904     1.0  0.77390  0.87317  0.29640  1.0000
  C   C2905     1.0  0.78093  0.88549  0.28095  1.0000
  C   C2906     1.0  0.77966  0.91357  0.27662  1.0000
  C   C2907     1.0  0.77029  0.92908  0.28756  1.0000
  C   C2908     1.0  0.76317  0.91672  0.30303  1.0000
  C   C2909     1.0  0.76541  0.88908  0.30744  1.0000
  H   H2339     1.0  0.78773  0.87360  0.27237  1.0000
  H   H2340     1.0  0.78533  0.92302  0.26464  1.0000
  H   H2341     1.0  0.75598  0.92843  0.31156  1.0000
  H   H2342     1.0  0.76028  0.87990  0.31945  1.0000
  H   H2343     1.0  0.90872  0.71307  0.31571  1.0000
  H   H2344     1.0  0.61465  0.78347  0.32225  1.0000
  H   H2345     1.0  0.91825  0.74834  0.33569  1.0000
  C   C2910     1.0  0.76527  0.94103  0.42418  1.0000
  C   C2911     1.0  0.49052  0.95344  0.30032  1.0000
  C   C2912     1.0  0.93614  0.77405  0.30120  1.0000
  C   C2913     1.0  0.93209  0.75676  0.28867  1.0000
  C   C2914     1.0  0.90610  0.75084  0.28040  1.0000
  C   C2915     1.0  0.88348  0.76148  0.28472  1.0000
  C   C2916     1.0  0.88720  0.77830  0.29744  1.0000
  C   C2917     1.0  0.91356  0.78480  0.30553  1.0000
  H   H2346     1.0  0.94923  0.74835  0.28518  1.0000
  H   H2347     1.0  0.90368  0.73818  0.27048  1.0000
  H   H2348     1.0  0.86992  0.78649  0.30097  1.0000
  P   P98       1.0  0.64188  0.93541  0.24775  1.0000
  H   H2349     1.0  0.56904  0.67605  0.40085  1.0000
  C   C2918     1.0  0.93427  0.68125  0.28232  1.0000
  C   C2919     1.0  0.89552  0.72935  0.33596  1.0000
  H   H2350     1.0  0.66397  0.76731  0.24687  1.0000
  H   H2351     1.0  0.86242  0.91418  0.27089  1.0000
  H   H2352     1.0  0.60704  0.94867  0.34861  1.0000
  H   H2353     1.0  0.63350  0.82962  0.24955  1.0000
  C   C2920     1.0  0.94649  0.83995  0.26556  1.0000
  C   C2921     1.0  0.77285  0.84922  0.42958  1.0000
  H   H2354     1.0  0.88060  0.78329  0.24437  1.0000
  H   H2355     1.0  0.88689  0.67806  0.25455  1.0000
  C   C2922     1.0  0.71648  0.89422  0.44327  1.0000
  H   H2356     1.0  0.65835  0.88409  0.25404  1.0000
  C   C2923     1.0  0.87805  0.84139  0.27538  1.0000
  C   C2924     1.0  0.86197  0.84823  0.28754  1.0000
  C   C2925     1.0  0.85669  0.87466  0.28596  1.0000
  C   C2926     1.0  0.54664  0.98913  0.36883  1.0000
  H   H2357     1.0  0.50007  0.71717  0.40623  1.0000
  C   C2927     1.0  0.63122  0.97466  0.28654  1.0000
  S   S401      1.0  0.70708  0.68302  0.29506  1.0000
  H   H2358     1.0  0.52086  0.81023  0.40542  1.0000
  C   C2928     1.0  0.61645  0.96595  0.35640  1.0000
  H   H2359     1.0  0.65454  0.69644  0.30541  1.0000
  Fe  Fe201     1.0  0.75346  0.99686  0.29345  1.0000
  C   C2929     1.0  0.71890  0.92421  0.44242  1.0000
  H   H2360     1.0  0.56683  0.75438  0.39165  1.0000
  C   C2930     1.0  0.54206  0.78171  0.39724  1.0000
  H   H2361     1.0  0.94058  0.85385  0.27326  1.0000
  C   C2931     1.0  0.68322  0.85170  0.28540  1.0000
  H   H2362     1.0  0.88063  0.82013  0.27642  1.0000
  H   H2363     1.0  0.85246  0.83239  0.29796  1.0000
  H   H2364     1.0  0.84335  0.87946  0.29520  1.0000
  Fe  Fe202     1.0  0.64804  0.66844  0.37356  1.0000
  C   C2932     1.0  0.62233  0.84456  0.24662  1.0000
  H   H2365     1.0  0.61090  0.98585  0.47666  1.0000
  H   H2366     1.0  0.55682  0.90313  0.45707  1.0000
  C   C2933     1.0  0.57181  0.92748  0.45570  1.0000
  C   C2934     1.0  0.69781  0.88251  0.27907  1.0000
  C   C2935     1.0  0.63291  0.94078  0.26749  1.0000
  H   H2367     1.0  0.72599  0.91439  0.25974  1.0000
  C   C2936     1.0  0.62167  0.88183  0.45467  1.0000
  C   C2937     1.0  0.62318  0.86159  0.46645  1.0000
  C   C2938     1.0  0.60048  0.83132  0.46881  1.0000
  C   C2939     1.0  0.57630  0.82127  0.45939  1.0000
  C   C2940     1.0  0.57475  0.84138  0.44742  1.0000
  C   C2941     1.0  0.59767  0.87180  0.44515  1.0000
  P   P99       1.0  0.54363  0.82767  0.43515  1.0000
  C   C2942     1.0  0.55047  0.80350  0.42172  1.0000
  H   H2368     1.0  0.57779  0.92991  0.47983  1.0000
  H   H2369     1.0  0.81705  0.85181  0.39638  1.0000
  C   C2943     1.0  0.96356  0.80462  0.24596  1.0000
  S   S402      1.0  0.48894  0.84783  0.34172  1.0000
  H   H2370     1.0  0.78764  0.84759  0.45245  1.0000
  C   C2944     1.0  0.53627  0.79946  0.40797  1.0000
  C   C2945     1.0  0.68554  0.83605  0.41819  1.0000
  H   H2371     1.0  0.97643  0.83164  0.28092  1.0000
  C   C2946     1.0  0.57626  0.77158  0.41373  1.0000
  C   C2947     1.0  0.57053  0.78936  0.42451  1.0000
  C   C2948     1.0  0.54169  0.85923  0.42364  1.0000
  C   C2949     1.0  0.56548  0.87584  0.41164  1.0000
  C   C2950     1.0  0.56376  0.89955  0.40225  1.0000
  C   C2951     1.0  0.53780  0.90618  0.40441  1.0000
  C   C2952     1.0  0.51388  0.88956  0.41619  1.0000
  C   C2953     1.0  0.51585  0.86633  0.42586  1.0000
  H   H2372     1.0  0.63903  0.90541  0.45291  1.0000
  H   H2373     1.0  0.69697  0.97743  0.26152  1.0000
  S   S403      1.0  0.48827  0.94831  0.40222  1.0000
  H   H2374     1.0  0.55881  0.79775  0.46138  1.0000
  H   H2375     1.0  0.59706  0.88804  0.43619  1.0000
  C   C2954     1.0  0.73861  0.88744  0.43464  1.0000
  C   C2955     1.0  0.56214  0.76786  0.40008  1.0000
  H   H2376     1.0  0.68517  0.85739  0.42101  1.0000
  C   C2956     1.0  0.88946  0.86116  0.26164  1.0000
  C   C2957     1.0  0.66022  0.74352  0.24779  1.0000
  P   P100      1.0  0.90756  0.85049  0.24554  1.0000
  H   H2377     1.0  0.59190  0.76088  0.41587  1.0000
  H   H2378     1.0  0.58211  0.79216  0.43485  1.0000
  H   H2379     1.0  0.58520  0.87024  0.40942  1.0000
  H   H2380     1.0  0.58216  0.91245  0.39304  1.0000
  H   H2381     1.0  0.53610  0.92393  0.39676  1.0000
  H   H2382     1.0  0.82595  0.69046  0.29273  1.0000
  H   H2383     1.0  0.85354  0.85126  0.41530  1.0000
  C   C2958     1.0  0.60203  0.97430  0.46668  1.0000
  S   S404      1.0  0.66904  0.98952  0.33500  1.0000
  H   H2384     1.0  0.68117  0.94130  0.32271  1.0000
  H   H2385     1.0  0.93155  0.88119  0.32027  1.0000
  C   C2959     1.0  0.62152  0.91608  0.27920  1.0000
  C   C2960     1.0  0.79369  0.84897  0.44014  1.0000
  Fe  Fe203     1.0  0.50063  0.88443  0.35875  1.0000
  C   C2961     1.0  0.62843  0.95731  0.23496  1.0000
  H   H2386     1.0  0.66124  0.90125  0.30524  1.0000
  C   C2962     1.0  0.71389  0.89043  0.26423  1.0000
  C   C2963     1.0  0.66150  0.72890  0.26189  1.0000
  H   H2387     1.0  0.64777  0.82630  0.40399  1.0000
  C   C2964     1.0  0.69261  0.86648  0.32964  1.0000
  C   C2965     1.0  0.69975  0.91635  0.33701  1.0000
  H   H2388     1.0  0.51630  0.67066  0.40996  1.0000
  C   C2966     1.0  0.57937  0.94387  0.44107  1.0000
  H   H2389     1.0  0.55878  0.83518  0.32455  1.0000
  P   P101      1.0  0.66147  0.84085  0.30444  1.0000
  C   C2967     1.0  0.62160  0.83486  0.30294  1.0000
  C   C2968     1.0  0.66327  0.80628  0.31258  1.0000
  C   C2969     1.0  0.63683  0.78199  0.32057  1.0000
  C   C2970     1.0  0.63907  0.75554  0.32678  1.0000
  C   C2971     1.0  0.66770  0.75350  0.32537  1.0000
  C   C2972     1.0  0.69402  0.77752  0.31741  1.0000
  C   C2973     1.0  0.69179  0.80377  0.31103  1.0000
  C   C2974     1.0  0.93342  0.83385  0.25156  1.0000
  H   H2390     1.0  0.61880  0.73688  0.33306  1.0000
  H   H2391     1.0  0.66962  0.73352  0.33067  1.0000
  H   H2392     1.0  0.71628  0.77599  0.31634  1.0000
  H   H2393     1.0  0.61251  0.84139  0.32681  1.0000
  H   H2394     1.0  0.69555  0.84560  0.33204  1.0000
  C   C2975     1.0  0.95243  0.91030  0.23792  1.0000
  H   H2395     1.0  0.64776  0.77729  0.39711  1.0000
  H   H2396     1.0  0.51378  0.94453  0.31921  1.0000
  C   C2976     1.0  0.67759  0.87066  0.31698  1.0000
  C   C2977     1.0  0.86068  0.68451  0.32482  1.0000
  C   C2978     1.0  0.60330  0.83707  0.31578  1.0000
  C   C2979     1.0  0.76021  0.71488  0.33487  1.0000
  C   C2980     1.0  0.78083  0.70905  0.32483  1.0000
  C   C2981     1.0  0.81242  0.72934  0.32254  1.0000
  C   C2982     1.0  0.82360  0.75492  0.33077  1.0000
  C   C2983     1.0  0.80301  0.76074  0.34110  1.0000
  C   C2984     1.0  0.77118  0.74061  0.34298  1.0000
  P   P102      1.0  0.81717  0.79254  0.35259  1.0000
  C   C2985     1.0  0.82327  0.77973  0.37144  1.0000
  C   C2986     1.0  0.85345  0.82160  0.34280  1.0000
  C   C2987     1.0  0.88146  0.81859  0.34417  1.0000
  C   C2988     1.0  0.90950  0.84005  0.33610  1.0000
  C   C2989     1.0  0.90985  0.86472  0.32663  1.0000
  C   C2990     1.0  0.88216  0.86801  0.32525  1.0000
  C   C2991     1.0  0.85402  0.84649  0.33323  1.0000
  C   C2992     1.0  0.84381  0.80071  0.38033  1.0000
  C   C2993     1.0  0.84676  0.79123  0.39539  1.0000
  C   C2994     1.0  0.82907  0.76087  0.40169  1.0000
  C   C2995     1.0  0.80858  0.73993  0.39292  1.0000
  C   C2996     1.0  0.80570  0.74932  0.37787  1.0000
  C   C2997     1.0  0.78773  0.80712  0.35476  1.0000
  C   C2998     1.0  0.77351  0.81163  0.34189  1.0000
  C   C2999     1.0  0.75048  0.82256  0.34342  1.0000
  C   C3000     1.0  0.74096  0.82845  0.35785  1.0000
  C   C3001     1.0  0.75417  0.82304  0.37084  1.0000
  C   C3002     1.0  0.77762  0.81259  0.36933  1.0000
  H   H2397     1.0  0.73578  0.69902  0.33651  1.0000
  H   H2398     1.0  0.77200  0.68887  0.31880  1.0000
  H   H2399     1.0  0.82833  0.72515  0.31446  1.0000
  H   H2400     1.0  0.84824  0.76981  0.32904  1.0000
  H   H2401     1.0  0.75489  0.74445  0.35093  1.0000
  H   H2402     1.0  0.88149  0.79924  0.35122  1.0000
  H   H2403     1.0  0.75815  0.67380  0.25715  1.0000
  H   H2404     1.0  0.88239  0.88708  0.31785  1.0000
  H   H2405     1.0  0.83290  0.84935  0.33172  1.0000
  H   H2406     1.0  0.85706  0.82448  0.37573  1.0000
  H   H2407     1.0  0.86243  0.80745  0.40228  1.0000
  H   H2408     1.0  0.83094  0.75363  0.41345  1.0000
  H   H2409     1.0  0.79447  0.71646  0.39781  1.0000
  H   H2410     1.0  0.78924  0.73290  0.37143  1.0000
  H   H2411     1.0  0.78010  0.80650  0.33066  1.0000
  H   H2412     1.0  0.73958  0.82589  0.33343  1.0000
  H   H2413     1.0  0.72239  0.83601  0.35905  1.0000
  H   H2414     1.0  0.74551  0.82614  0.38210  1.0000
  H   H2415     1.0  0.78706  0.80806  0.37960  1.0000
  H   H2416     1.0  0.94387  0.71943  0.47502  1.0000
  H   H2417     1.0  0.60662  0.90180  0.30351  1.0000
  C   C3003     1.0  0.86746  0.89423  0.27222  1.0000
  C   C3004     1.0  0.68452  0.92049  0.32458  1.0000
  S   S405      1.0  0.68686  0.70228  0.35692  1.0000
  C   C3005     1.0  0.57276  0.83353  0.31454  1.0000
  C   C3006     1.0  0.84260  0.70054  0.34796  1.0000
  C   C3007     1.0  0.87182  0.72510  0.34761  1.0000
  H   H2418     1.0  0.93093  0.83728  0.33700  1.0000
  C   C3008     1.0  0.97551  0.80984  0.26016  1.0000
  C   C3009     1.0  0.59789  0.97545  0.43927  1.0000
  H   H2419     1.0  0.69746  0.87630  0.45073  1.0000
  H   H2420     1.0  0.56822  0.81996  0.27693  1.0000
  C   C3010     1.0  0.51662  0.95487  0.30747  1.0000
  H   H2421     1.0  0.57043  0.93239  0.43106  1.0000
  C   C3011     1.0  0.50215  0.81544  0.46182  1.0000
  H   H2422     1.0  0.82395  0.69748  0.35681  1.0000
  C   C3012     1.0  0.57809  0.82490  0.28775  1.0000
  H   H2423     1.0  0.60162  0.81562  0.47797  1.0000
  H   H2424     1.0  0.96430  0.79701  0.47516  1.0000
  C   C3013     1.0  0.70375  0.88933  0.33956  1.0000
  H   H2425     1.0  0.87602  0.74082  0.35634  1.0000
  C   C3014     1.0  0.60869  0.82847  0.28895  1.0000
  H   H2426     1.0  0.96996  0.79067  0.23845  1.0000
  C   C3015     1.0  0.65254  0.68232  0.24987  1.0000
  H   H2427     1.0  0.70326  0.81956  0.25516  1.0000
  C   C3016     1.0  0.64685  0.98930  0.35269  1.0000
  H   H2428     1.0  0.53635  0.82446  0.29973  1.0000
  C   C3017     1.0  0.71582  0.86780  0.25561  1.0000
  S   S406      1.0  0.70482  0.99389  0.29442  1.0000
  H   H2429     1.0  0.94205  0.68851  0.25755  1.0000
  H   H2430     1.0  0.62215  0.82614  0.27900  1.0000
  C   C3018     1.0  0.88368  0.88749  0.26005  1.0000
  H   H2431     1.0  0.75316  0.99343  0.25518  1.0000
  H   H2432     1.0  0.92014  0.67232  0.30669  1.0000
  C   C3019     1.0  0.70110  0.83705  0.26171  1.0000
  H   H2433     1.0  0.69785  0.90075  0.28560  1.0000
  C   C3020     1.0  0.88999  0.70923  0.32457  1.0000
  C   C3021     1.0  0.58346  0.94264  0.46849  1.0000
  C   C3022     1.0  0.87502  0.82424  0.23669  1.0000
  C   C3023     1.0  0.59389  0.83296  0.24036  1.0000
  C   C3024     1.0  0.56015  0.82748  0.30055  1.0000
  C   C3025     1.0  0.60875  0.98689  0.38036  1.0000
  C   C3026     1.0  0.70685  0.79826  0.41991  1.0000
  H   H2434     1.0  0.71533  0.88601  0.34927  1.0000
  C   C3027     1.0  0.68540  0.78072  0.41036  1.0000
  H   H2435     1.0  0.64719  0.98969  0.26255  1.0000
  H   H2436     1.0  0.58271  0.67247  0.37337  1.0000
  H   H2437     1.0  0.97865  0.77683  0.34737  1.0000
  C   C3028     1.0  0.94301  0.81700  0.24156  1.0000
  C   C3029     1.0  0.72402  0.83266  0.45605  1.0000
  C   C3030     1.0  0.96728  0.82781  0.26985  1.0000
  S   S407      1.0  0.75553  0.67090  0.36832  1.0000
  S   S408      1.0  0.96899  0.78277  0.31173  1.0000
  C   C3031     1.0  0.50675  0.80712  0.44705  1.0000
  C   C3032     1.0  0.49502  0.96740  0.28516  1.0000
  H   H2438     1.0  0.61622  0.95391  0.31008  1.0000
  H   H2439     1.0  0.84844  0.66440  0.27723  1.0000
  C   C3033     1.0  0.66415  0.79084  0.40465  1.0000
  C   C3034     1.0  0.66419  0.81847  0.40856  1.0000
  H   H2440     1.0  0.52086  0.83358  0.46643  1.0000
  H   H2441     1.0  0.49643  0.85337  0.43457  1.0000
  C   C3035     1.0  0.61507  0.92077  0.29445  1.0000
  C   C3036     1.0  0.69554  0.78949  0.47554  1.0000
  C   C3037     1.0  0.91266  0.67424  0.29541  1.0000
  H   H2442     1.0  0.76594  0.85080  0.40539  1.0000
  C   C3038     1.0  0.74329  0.94761  0.43288  1.0000
  H   H2443     1.0  0.74527  0.97087  0.43227  1.0000
  H   H2444     1.0  0.58294  0.80898  0.23843  1.0000
  C   C3039     1.0  0.82272  0.84990  0.43494  1.0000
  C   C3040     1.0  0.78154  0.85036  0.41374  1.0000
  H   H2445     1.0  0.68522  0.75918  0.40739  1.0000
  H   H2446     1.0  0.78424  0.95919  0.41682  1.0000
  H   H2447     1.0  0.83838  0.84914  0.44325  1.0000
  C   C3041     1.0  0.70375  0.80161  0.46003  1.0000
  H   H2448     1.0  0.60354  0.98758  0.42785  1.0000
  H   H2449     1.0  0.69473  0.78644  0.45127  1.0000
  C   C3042     1.0  0.92511  0.68299  0.26762  1.0000
  C   C3043     1.0  0.62017  0.95010  0.29815  1.0000
  C   C3044     1.0  0.76299  0.91108  0.42504  1.0000
  C   C3045     1.0  0.63765  0.97010  0.27129  1.0000
  C   C3046     1.0  0.74801  0.96692  0.23589  1.0000
  H   H2450     1.0  0.97886  0.72543  0.35108  1.0000
  C   C3047     1.0  0.70721  0.82614  0.42386  1.0000
  H   H2451     1.0  0.72314  0.79002  0.42424  1.0000
  C   C3048     1.0  0.73604  0.85130  0.46782  1.0000
  C   C3049     1.0  0.68168  0.67233  0.31238  1.0000
  H   H2452     1.0  0.95382  0.91112  0.25021  1.0000
  H   H2453     1.0  0.75258  0.87508  0.46511  1.0000
  C   C3050     1.0  0.54664  0.96969  0.29959  1.0000
  C   C3051     1.0  0.59399  0.88341  0.23877  1.0000
  S   S409      1.0  0.58672  0.98422  0.39865  1.0000
  H   H2454     1.0  0.68059  0.76533  0.47853  1.0000
  H   H2455     1.0  0.49332  0.89405  0.41765  1.0000
  C   C3052     1.0  0.65088  0.69715  0.23579  1.0000
  C   C3053     1.0  0.68350  0.94804  0.24312  1.0000
  C   C3054     1.0  0.65703  0.68114  0.31429  1.0000
  H   H2456     1.0  0.70202  0.92936  0.44926  1.0000
  C   C3055     1.0  0.62278  0.89530  0.24487  1.0000
  C   C3056     1.0  0.60863  0.99107  0.45209  1.0000
  C   C3057     1.0  0.52513  0.98214  0.27726  1.0000
  C   C3058     1.0  0.63651  0.87550  0.24904  1.0000
  H   H2457     1.0  0.64184  0.86935  0.47380  1.0000
  C   C3059     1.0  0.86702  0.79263  0.23820  1.0000
  H   H2458     1.0  0.61689  0.67742  0.32929  1.0000
  C   C3060     1.0  0.53750  0.66552  0.36686  1.0000
  C   C3061     1.0  0.65485  0.72762  0.23477  1.0000
  H   H2459     1.0  0.70858  0.67946  0.26013  1.0000
  H   H2460     1.0  0.95817  0.68513  0.28347  1.0000
  C   C3062     1.0  0.55190  0.67264  0.39277  1.0000
  H   H2461     1.0  0.55014  0.99578  0.33001  1.0000
  H   H2462     1.0  0.49807  0.73593  0.43163  1.0000
  H   H2463     1.0  0.83376  0.74792  0.23402  1.0000
  C   C3063     1.0  0.83711  0.68017  0.33671  1.0000
  C   C3064     1.0  0.60083  0.96041  0.23942  1.0000
  C   C3065     1.0  0.55094  0.98328  0.28447  1.0000
  C   C3066     1.0  0.63536  0.66989  0.32768  1.0000
  C   C3067     1.0  0.55965  0.67056  0.37729  1.0000
  C   C3068     1.0  0.49983  0.66549  0.38735  1.0000
  C   C3069     1.0  0.52202  0.66983  0.39784  1.0000
  H   H2464     1.0  0.57429  0.99484  0.27842  1.0000
  H   H2465     1.0  0.52849  0.99285  0.26557  1.0000
  C   C3070     1.0  0.87236  0.66987  0.27902  1.0000
  C   C3071     1.0  0.88156  0.66909  0.29393  1.0000
  H   H2466     1.0  0.77211  0.67816  0.28694  1.0000
  H   H2467     1.0  0.77291  0.97415  0.23325  1.0000
  C   C3072     1.0  0.57966  0.85234  0.23651  1.0000
  H   H2468     1.0  0.58269  0.89803  0.23559  1.0000
  H   H2469     1.0  0.73805  0.71967  0.23370  1.0000
  S   S410      1.0  0.74580  0.78328  0.23272  1.0000
  H   H2470     1.0  0.56870  0.97917  0.23294  1.0000
  Fe  Fe204     1.0  0.81860  0.86468  0.49998  1.0000
  S   S411      1.0  0.77946  0.81722  0.50022  1.0000
  C   C3073     1.0  0.88903  0.76732  0.69053  1.0000
  Fe  Fe205     1.0  0.86721  0.83750  0.50354  1.0000
  S   S412      1.0  0.83107  0.78910  0.50363  1.0000
  C   C3074     1.0  0.52827  0.89889  0.72428  1.0000
  Fe  Fe206     1.0  0.80057  0.80267  0.51983  1.0000
  S   S413      1.0  0.77103  0.76713  0.54028  1.0000
  S   S414      1.0  0.83744  0.85039  0.52071  1.0000
  Fe  Fe207     1.0  0.72173  0.73989  0.63391  1.0000
  S   S415      1.0  0.66989  0.71585  0.64173  1.0000
  S   S416      1.0  0.74683  0.77522  0.61280  1.0000
  Fe  Fe208     1.0  0.73835  0.71801  0.66464  1.0000
  S   S417      1.0  0.68826  0.69222  0.67449  1.0000
  S   S418      1.0  0.78079  0.72692  0.67756  1.0000
  C   C3075     1.0  0.70741  0.80825  0.48716  1.0000
  Fe  Fe209     1.0  0.68191  0.73334  0.66482  1.0000
  S   S419      1.0  0.65108  0.75098  0.67851  1.0000
  S   S420      1.0  0.73109  0.69927  0.64165  1.0000
  S   S421      1.0  0.73260  0.76029  0.65644  1.0000
  C   C3076     1.0  0.87044  0.66604  0.59824  1.0000
  C   C3077     1.0  0.59287  0.96576  0.68929  1.0000
  C   C3078     1.0  0.91361  0.73618  0.50768  1.0000
  C   C3079     1.0  0.69069  0.92980  0.65560  1.0000
  C   C3080     1.0  0.62065  0.88067  0.70080  1.0000
  C   C3081     1.0  0.67938  0.97657  0.70921  1.0000
  C   C3082     1.0  0.78120  0.70121  0.69288  1.0000
  C   C3083     1.0  0.80637  0.71068  0.70181  1.0000
  C   C3084     1.0  0.95349  0.85679  0.55340  1.0000
  H   H2471     1.0  0.64336  0.71553  0.71979  1.0000
  C   C3085     1.0  0.85173  0.68115  0.59467  1.0000
  C   C3086     1.0  0.78896  0.66923  0.65365  1.0000
  H   H2472     1.0  0.98086  0.74543  0.63944  1.0000
  C   C3087     1.0  0.92327  0.72057  0.51867  1.0000
  C   C3088     1.0  0.66498  0.77595  0.69294  1.0000
  C   C3089     1.0  0.69534  0.78506  0.69695  1.0000
  C   C3090     1.0  0.70558  0.80479  0.70851  1.0000
  C   C3091     1.0  0.68563  0.81549  0.71628  1.0000
  C   C3092     1.0  0.65543  0.80683  0.71209  1.0000
  C   C3093     1.0  0.64516  0.78708  0.70049  1.0000
  H   H2473     1.0  0.71088  0.77679  0.69119  1.0000
  H   H2474     1.0  0.92001  0.81953  0.58895  1.0000
  H   H2475     1.0  0.63987  0.81504  0.71789  1.0000
  H   H2476     1.0  0.62170  0.78028  0.69740  1.0000
  C   C3094     1.0  0.59947  0.85151  0.69803  1.0000
  C   C3095     1.0  0.67781  0.92288  0.64162  1.0000
  H   H2477     1.0  0.98227  0.76035  0.57750  1.0000
  C   C3096     1.0  0.70965  0.97822  0.70772  1.0000
  H   H2478     1.0  0.93198  0.73754  0.65474  1.0000
  H   H2479     1.0  0.74251  0.87215  0.62298  1.0000
  H   H2480     1.0  0.98149  0.80796  0.53451  1.0000
  C   C3097     1.0  0.94766  0.83898  0.50138  1.0000
  C   C3098     1.0  0.77529  0.95491  0.68506  1.0000
  P   P103      1.0  0.69440  0.90042  0.66814  1.0000
  C   C3099     1.0  0.76414  0.77017  0.56034  1.0000
  C   C3100     1.0  0.77725  0.79805  0.56671  1.0000
  C   C3101     1.0  0.77176  0.79904  0.58274  1.0000
  C   C3102     1.0  0.75315  0.77228  0.59268  1.0000
  C   C3103     1.0  0.74022  0.74441  0.58633  1.0000
  C   C3104     1.0  0.74567  0.74341  0.57029  1.0000
  H   H2481     1.0  0.79153  0.81885  0.55928  1.0000
  H   H2482     1.0  0.78183  0.82078  0.58747  1.0000
  H   H2483     1.0  0.72569  0.72368  0.59373  1.0000
  H   H2484     1.0  0.73538  0.72172  0.56554  1.0000
  H   H2485     1.0  0.73721  0.69471  0.72155  1.0000
  C   C3105     1.0  0.84925  0.96192  0.49761  1.0000
  C   C3106     1.0  0.81787  0.94408  0.49589  1.0000
  H   H2486     1.0  0.94803  0.69291  0.52272  1.0000
  C   C3107     1.0  0.84128  0.67245  0.65520  1.0000
  C   C3108     1.0  0.97673  0.85073  0.50734  1.0000
  C   C3109     1.0  0.66331  0.71025  0.72085  1.0000
  H   H2487     1.0  0.66564  0.91783  0.69413  1.0000
  C   C3110     1.0  0.72172  0.90143  0.69538  1.0000
  H   H2488     1.0  0.91136  0.66882  0.60858  1.0000
  C   C3111     1.0  0.48700  0.98119  0.68587  1.0000
  C   C3112     1.0  0.64939  0.89533  0.69170  1.0000
  H   H2489     1.0  0.64874  0.99477  0.70025  1.0000
  H   H2490     1.0  0.77395  0.94571  0.49249  1.0000
  C   C3113     1.0  0.80961  0.99137  0.49364  1.0000
  Fe  Fe210     1.0  0.67975  0.67634  0.65090  1.0000
  H   H2491     1.0  0.56585  0.67665  0.67379  1.0000
  C   C3114     1.0  0.72459  0.91637  0.68060  1.0000
  H   H2492     1.0  0.82409  0.73397  0.69976  1.0000
  H   H2493     1.0  0.98050  0.86621  0.51613  1.0000
  C   C3115     1.0  0.69098  0.67927  0.71491  1.0000
  H   H2494     1.0  0.73758  0.85356  0.49228  1.0000
  P   P104      1.0  0.97081  0.68333  0.49193  1.0000
  C   C3116     1.0  0.88108  0.76578  0.67542  1.0000
  C   C3117     1.0  0.71630  0.69867  0.72201  1.0000
  C   C3118     1.0  0.60679  0.83728  0.68591  1.0000
  C   C3119     1.0  0.93826  0.71945  0.48726  1.0000
  C   C3120     1.0  0.94836  0.70392  0.49822  1.0000
  H   H2495     1.0  0.90064  0.74910  0.51127  1.0000
  H   H2496     1.0  0.87076  0.73897  0.65626  1.0000
  H   H2497     1.0  0.71566  0.96347  0.71539  1.0000
  C   C3121     1.0  0.94058  0.70449  0.51399  1.0000
  H   H2498     1.0  0.78986  0.94991  0.70747  1.0000
  H   H2499     1.0  0.64534  0.67070  0.70832  1.0000
  C   C3122     1.0  0.96163  0.72281  0.64123  1.0000
  C   C3123     1.0  0.71504  0.72365  0.72895  1.0000
  C   C3124     1.0  0.94337  0.81947  0.48976  1.0000
  C   C3125     1.0  0.76984  0.78132  0.72130  1.0000
  C   C3126     1.0  0.66452  0.68509  0.71430  1.0000
  C   C3127     1.0  0.70037  0.84603  0.66463  1.0000
  C   C3128     1.0  0.68344  0.97506  0.63647  1.0000
  H   H2500     1.0  0.91766  0.72130  0.53083  1.0000
  H   H2501     1.0  0.57783  0.91092  0.72131  1.0000
  H   H2502     1.0  0.58718  0.95631  0.70126  1.0000
  H   H2503     1.0  0.83149  0.66968  0.58868  1.0000
  C   C3129     1.0  0.93385  0.71812  0.65005  1.0000
  C   C3130     1.0  0.87691  0.73983  0.66795  1.0000
  C   C3131     1.0  0.60976  0.99009  0.65834  1.0000
  H   H2504     1.0  0.86474  0.95088  0.49918  1.0000
  H   H2505     1.0  0.66539  0.94035  0.62105  1.0000
  C   C3132     1.0  0.69474  0.98162  0.65072  1.0000
  C   C3133     1.0  0.75188  0.94281  0.67537  1.0000
  C   C3134     1.0  0.77188  0.94038  0.69991  1.0000
  C   C3135     1.0  0.88036  0.71506  0.67561  1.0000
  S   S422      1.0  0.65008  0.95071  0.72341  1.0000
  C   C3136     1.0  0.80113  0.83526  0.71253  1.0000
  C   C3137     1.0  0.80009  0.82863  0.69720  1.0000
  C   C3138     1.0  0.78446  0.79838  0.69389  1.0000
  C   C3139     1.0  0.76944  0.77484  0.70587  1.0000
  S   S423      1.0  0.91767  0.84924  0.50904  1.0000
  H   H2506     1.0  0.91921  0.78107  0.54969  1.0000
  H   H2507     1.0  0.73014  0.81986  0.63512  1.0000
  C   C3140     1.0  0.93663  0.82789  0.57866  1.0000
  H   H2508     1.0  0.59043  0.81466  0.68374  1.0000
  H   H2509     1.0  0.91203  0.85125  0.56764  1.0000
  H   H2510     1.0  0.75501  0.95427  0.66388  1.0000
  C   C3141     1.0  0.57024  0.98032  0.72693  1.0000
  H   H2511     1.0  0.70390  0.80354  0.66190  1.0000
  C   C3142     1.0  0.55622  0.89975  0.72894  1.0000
  C   C3143     1.0  0.72377  0.83545  0.64144  1.0000
  H   H2512     1.0  0.81125  0.84689  0.68787  1.0000
  H   H2513     1.0  0.78362  0.79302  0.68203  1.0000
  H   H2514     1.0  0.70617  0.96439  0.67145  1.0000
  H   H2515     1.0  0.93671  0.69878  0.70766  1.0000
  H   H2516     1.0  0.70140  0.88040  0.69953  1.0000
  H   H2517     1.0  0.75730  0.75164  0.70297  1.0000
  H   H2518     1.0  0.96688  0.72640  0.68248  1.0000
  C   C3144     1.0  0.89622  0.77741  0.55477  1.0000
  H   H2519     1.0  0.68935  0.83854  0.67639  1.0000
  C   C3145     1.0  0.73056  0.86485  0.63458  1.0000
  H   H2520     1.0  0.61513  0.89185  0.71014  1.0000
  H   H2521     1.0  0.89822  0.74369  0.71001  1.0000
  C   C3146     1.0  0.70582  0.87508  0.65758  1.0000
  C   C3147     1.0  0.76002  0.67399  0.57412  1.0000
  H   H2522     1.0  0.60857  0.93168  0.68284  1.0000
  C   C3148     1.0  0.88820  0.71672  0.69081  1.0000
  H   H2523     1.0  0.72445  0.66467  0.61055  1.0000
  H   H2524     1.0  0.88877  0.80383  0.53583  1.0000
  H   H2525     1.0  0.70172  0.79870  0.49916  1.0000
  C   C3149     1.0  0.72193  0.88476  0.64266  1.0000
  H   H2526     1.0  0.74271  0.90188  0.71641  1.0000
  H   H2527     1.0  0.57748  0.83993  0.70531  1.0000
  C   C3150     1.0  0.67461  0.94557  0.63200  1.0000
  C   C3151     1.0  0.80892  0.69017  0.71329  1.0000
  H   H2528     1.0  0.64039  0.84078  0.66721  1.0000
  C   C3152     1.0  0.95436  0.69270  0.70233  1.0000
  H   H2529     1.0  0.81311  0.85874  0.71507  1.0000
  C   C3153     1.0  0.97158  0.70834  0.68812  1.0000
  C   C3154     1.0  0.65718  0.88091  0.67972  1.0000
  H   H2530     1.0  0.72803  0.90766  0.63725  1.0000
  H   H2531     1.0  0.89064  0.69785  0.69708  1.0000
  H   H2532     1.0  0.87770  0.78453  0.66957  1.0000
  C   C3155     1.0  0.90970  0.68847  0.65334  1.0000
  H   H2533     1.0  0.82853  0.69770  0.72000  1.0000
  S   S424      1.0  0.80188  0.90319  0.49596  1.0000
  C   C3156     1.0  0.74525  0.91349  0.70499  1.0000
  C   C3157     1.0  0.89256  0.74278  0.69822  1.0000
  H   H2534     1.0  0.54695  0.96518  0.72473  1.0000
  C   C3158     1.0  0.60504  0.95166  0.67886  1.0000
  H   H2535     1.0  0.72911  0.81174  0.71148  1.0000
  C   C3159     1.0  0.96784  0.81192  0.48423  1.0000
  C   C3160     1.0  0.70894  0.82620  0.65651  1.0000
  H   H2536     1.0  0.98131  0.77647  0.51370  1.0000
  H   H2537     1.0  0.52810  0.90905  0.71287  1.0000
  H   H2538     1.0  0.80817  0.70268  0.56655  1.0000
  C   C3161     1.0  0.77320  0.69316  0.60328  1.0000
  C   C3162     1.0  0.79708  0.70445  0.59090  1.0000
  H   H2539     1.0  0.62332  0.95313  0.65538  1.0000
  P   P105      1.0  0.83617  0.73115  0.59370  1.0000
  C   C3163     1.0  0.83277  0.75278  0.60933  1.0000
  C   C3164     1.0  0.85930  0.71084  0.59878  1.0000
  C   C3165     1.0  0.88600  0.72533  0.60632  1.0000
  C   C3166     1.0  0.90464  0.71017  0.60986  1.0000
  H   H2540     1.0  0.94983  0.87049  0.54403  1.0000
  H   H2541     1.0  0.67046  0.90003  0.63810  1.0000
  H   H2542     1.0  0.96511  0.80636  0.58664  1.0000
  C   C3167     1.0  0.83110  0.74086  0.62468  1.0000
  C   C3168     1.0  0.82483  0.75537  0.63695  1.0000
  C   C3169     1.0  0.82035  0.78199  0.63403  1.0000
  C   C3170     1.0  0.82250  0.79430  0.61884  1.0000
  C   C3171     1.0  0.82852  0.77973  0.60652  1.0000
  C   C3172     1.0  0.85397  0.75563  0.57579  1.0000
  C   C3173     1.0  0.83696  0.76844  0.56772  1.0000
  C   C3174     1.0  0.84958  0.78590  0.55344  1.0000
  C   C3175     1.0  0.87916  0.79036  0.54695  1.0000
  C   C3176     1.0  0.72757  0.83916  0.48329  1.0000
  C   C3177     1.0  0.88378  0.76021  0.56917  1.0000
  C   C3178     1.0  0.74299  0.67263  0.60105  1.0000
  H   H2543     1.0  0.89194  0.78730  0.69636  1.0000
  H   H2544     1.0  0.79589  0.97579  0.68109  1.0000
  H   H2545     1.0  0.77745  0.70067  0.61459  1.0000
  C   C3179     1.0  0.79032  0.69434  0.57633  1.0000
  H   H2546     1.0  0.89250  0.74844  0.60936  1.0000
  C   C3180     1.0  0.61355  0.96385  0.66340  1.0000
  C   C3181     1.0  0.78628  0.81169  0.72456  1.0000
  C   C3182     1.0  0.69791  0.95898  0.66035  1.0000
  C   C3183     1.0  0.96028  0.66930  0.70966  1.0000
  H   H2547     1.0  0.83319  0.71958  0.62723  1.0000
  H   H2548     1.0  0.82217  0.74535  0.64874  1.0000
  H   H2549     1.0  0.81420  0.79251  0.64353  1.0000
  H   H2550     1.0  0.81770  0.81422  0.61656  1.0000
  H   H2551     1.0  0.82843  0.78901  0.59494  1.0000
  H   H2552     1.0  0.81360  0.76441  0.57234  1.0000
  H   H2553     1.0  0.83616  0.79562  0.54728  1.0000
  H   H2554     1.0  0.89746  0.75043  0.57494  1.0000
  C   C3184     1.0  0.79824  0.95914  0.49383  1.0000
  C   C3185     1.0  0.93218  0.84593  0.56670  1.0000
  C   C3186     1.0  0.96215  0.82030  0.57724  1.0000
  H   H2555     1.0  0.92517  0.72145  0.61570  1.0000
  C   C3187     1.0  0.63539  0.85205  0.67665  1.0000
  H   H2556     1.0  0.61849  0.67750  0.67244  1.0000
  C   C3188     1.0  0.92093  0.73543  0.49200  1.0000
  C   C3189     1.0  0.58952  0.99249  0.68435  1.0000
  H   H2557     1.0  0.94990  0.74090  0.72724  1.0000
  C   C3190     1.0  0.81561  0.67715  0.66134  1.0000
  H   H2558     1.0  0.68131  0.99281  0.62899  1.0000
  S   S425      1.0  0.69931  0.83867  0.73142  1.0000
  C   C3191     1.0  0.97936  0.84980  0.55209  1.0000
  C   C3192     1.0  0.68836  0.72938  0.72820  1.0000
  H   H2559     1.0  0.81602  0.68659  0.67223  1.0000
  C   C3193     1.0  0.75824  0.67109  0.69567  1.0000
  C   C3194     1.0  0.96555  0.69802  0.63564  1.0000
  C   C3195     1.0  0.89688  0.68053  0.60583  1.0000
  H   H2560     1.0  0.76920  0.67273  0.65866  1.0000
  C   C3196     1.0  0.86067  0.99417  0.49732  1.0000
  H   H2561     1.0  0.75470  0.66719  0.56274  1.0000
  P   P106      1.0  0.87478  0.68156  0.66588  1.0000
  S   S426      1.0  0.85084  0.85520  0.48292  1.0000
  Fe  Fe211     1.0  0.81233  0.80717  0.48409  1.0000
  C   C3197     1.0  0.67196  0.99580  0.69911  1.0000
  H   H2562     1.0  0.92129  0.81038  0.48498  1.0000
  C   C3198     1.0  0.51898  0.98902  0.68567  1.0000
  C   C3199     1.0  0.98360  0.83101  0.56385  1.0000
  H   H2563     1.0  0.53220  0.98958  0.67492  1.0000
  C   C3200     1.0  0.94149  0.66853  0.63865  1.0000
  H   H2564     1.0  0.91348  0.74767  0.48351  1.0000
  Fe  Fe212     1.0  0.76152  0.90787  0.90148  1.0000
  S   S427      1.0  0.71054  0.87916  0.90062  1.0000
  S   S428      1.0  0.78341  0.87934  0.91300  1.0000
  Fe  Fe213     1.0  0.75555  0.96639  0.89026  1.0000
  S   S429      1.0  0.70377  0.94100  0.88929  1.0000
  H   H2565     1.0  0.80755  0.68563  0.91719  1.0000
  Fe  Fe214     1.0  0.70332  0.91614  0.91212  1.0000
  S   S430      1.0  0.66408  0.90248  0.93168  1.0000
  Fe  Fe215     1.0  0.71612  0.90659  0.87791  1.0000
  S   S431      1.0  0.69193  0.88075  0.85827  1.0000
  S   S432      1.0  0.75407  0.94410  0.91402  1.0000
  S   S433      1.0  0.76793  0.93272  0.87780  1.0000
  Fe  Fe216     1.0  0.88992  0.76057  0.91999  1.0000
  S   S434      1.0  0.92698  0.80896  0.91811  1.0000
  S   S435      1.0  0.85620  0.73305  0.94114  1.0000
  Fe  Fe217     1.0  0.89866  0.75207  0.88331  1.0000
  H   H2566     1.0  0.49394  0.81087  0.75946  1.0000
  S   S436      1.0  0.87114  0.70389  0.85430  1.0000
  C   C3201     1.0  0.82697  0.74039  0.74746  1.0000
  Fe  Fe218     1.0  0.90711  0.81576  0.89623  1.0000
  S   S437      1.0  0.89936  0.85646  0.88637  1.0000
  S   S438      1.0  0.91858  0.74268  0.90583  1.0000
  S   S439      1.0  0.86809  0.76906  0.89935  1.0000
  H   H2567     1.0  0.81701  0.77625  0.73693  1.0000
  Fe  Fe219     1.0  0.68928  0.90780  0.76928  1.0000
  S   S440      1.0  0.66308  0.85671  0.77046  1.0000
  S   S441      1.0  0.72106  0.93237  0.78709  1.0000
  Fe  Fe220     1.0  0.66016  0.91860  0.74004  1.0000
  Fe  Fe221     1.0  0.62187  0.86628  0.76526  1.0000
  S   S442      1.0  0.57615  0.85432  0.77982  1.0000
  Fe  Fe222     1.0  0.67506  0.86346  0.74448  1.0000
  S   S443      1.0  0.64778  0.91714  0.76537  1.0000
  S   S444      1.0  0.70460  0.91425  0.74370  1.0000
  S   S445      1.0  0.87579  0.68362  0.74054  1.0000
  S   S446      1.0  0.88438  0.71851  0.78052  1.0000
  H   H2568     1.0  0.56766  0.95306  0.74803  1.0000
  H   H2569     1.0  0.92204  0.67967  0.95831  1.0000
  H   H2570     1.0  0.82597  0.71945  0.79794  1.0000
  C   C3202     1.0  0.51933  0.76308  0.78478  1.0000
  C   C3203     1.0  0.54510  0.79132  0.78014  1.0000
  C   C3204     1.0  0.54472  0.81831  0.78484  1.0000
  C   C3205     1.0  0.51847  0.81709  0.79390  1.0000
  H   H2571     1.0  0.64888  0.82433  0.93519  1.0000
  H   H2572     1.0  0.51968  0.74213  0.78127  1.0000
  H   H2573     1.0  0.56526  0.79220  0.77308  1.0000
  H   H2574     1.0  0.51799  0.83795  0.79745  1.0000
  C   C3206     1.0  0.93015  0.93805  0.82669  1.0000
  C   C3207     1.0  0.87524  0.70900  0.83372  1.0000
  H   H2575     1.0  0.72420  0.79679  0.73968  1.0000
  H   H2576     1.0  0.89705  0.78059  0.85297  1.0000
  C   C3208     1.0  0.88142  0.71408  0.80097  1.0000
  C   C3209     1.0  0.89458  0.74014  0.80883  1.0000
  C   C3210     1.0  0.89184  0.73764  0.82508  1.0000
  C   C3211     1.0  0.63288  0.92085  0.81459  1.0000
  C   C3212     1.0  0.52880  0.87249  0.75362  1.0000
  H   H2577     1.0  0.90721  0.76242  0.80231  1.0000
  H   H2578     1.0  0.90282  0.75799  0.83073  1.0000
  C   C3213     1.0  0.86854  0.72304  0.95857  1.0000
  C   C3214     1.0  0.90017  0.73269  0.96044  1.0000
  C   C3215     1.0  0.50003  0.89109  0.78427  1.0000
  H   H2579     1.0  0.91777  0.74665  0.95113  1.0000
  C   C3216     1.0  0.70022  0.89600  0.83862  1.0000
  C   C3217     1.0  0.68263  0.87810  0.82774  1.0000
  C   C3218     1.0  0.68837  0.88920  0.81199  1.0000
  C   C3219     1.0  0.71203  0.91825  0.80692  1.0000
  C   C3220     1.0  0.72971  0.93617  0.81779  1.0000
  C   C3221     1.0  0.72382  0.92516  0.83359  1.0000
  H   H2580     1.0  0.66422  0.85561  0.83153  1.0000
  H   H2581     1.0  0.67450  0.87523  0.80377  1.0000
  H   H2582     1.0  0.74830  0.95849  0.81393  1.0000
  H   H2583     1.0  0.73765  0.93913  0.84184  1.0000
  C   C3222     1.0  0.67098  0.90355  0.95138  1.0000
  C   C3223     1.0  0.64541  0.89273  0.96290  1.0000
  H   H2584     1.0  0.52940  0.86232  0.76493  1.0000
  C   C3224     1.0  0.70122  0.91498  0.95578  1.0000
  H   H2585     1.0  0.62193  0.88380  0.95962  1.0000
  C   C3225     1.0  0.77493  0.73412  0.74247  1.0000
  H   H2586     1.0  0.72108  0.92311  0.94706  1.0000
  C   C3226     1.0  0.71620  0.79945  0.76387  1.0000
  C   C3227     1.0  0.81499  0.87270  0.90491  1.0000
  C   C3228     1.0  0.82078  0.84885  0.91199  1.0000
  C   C3229     1.0  0.84629  0.84331  0.90629  1.0000
  C   C3230     1.0  0.86650  0.86198  0.89359  1.0000
  C   C3231     1.0  0.86067  0.88578  0.88646  1.0000
  C   C3232     1.0  0.83484  0.89102  0.89201  1.0000
  H   H2587     1.0  0.80561  0.83475  0.92205  1.0000
  H   H2588     1.0  0.85072  0.82507  0.91192  1.0000
  H   H2589     1.0  0.87648  0.90041  0.87676  1.0000
  H   H2590     1.0  0.83061  0.90951  0.88653  1.0000
  H   H2591     1.0  0.92328  0.93340  0.85156  1.0000
  H   H2592     1.0  0.55486  0.89464  0.86462  1.0000
  H   H2593     1.0  0.82152  0.69779  0.96962  1.0000
  H   H2594     1.0  0.84368  0.75073  0.86935  1.0000
  H   H2595     1.0  0.62023  0.89400  0.85245  1.0000
  C   C3233     1.0  0.82042  0.94701  0.83116  1.0000
  C   C3234     1.0  0.82133  0.95808  0.84565  1.0000
  P   P107      1.0  0.82430  0.91164  0.82926  1.0000
  C   C3235     1.0  0.80667  0.89355  0.81281  1.0000
  C   C3236     1.0  0.86574  0.92193  0.82813  1.0000
  C   C3237     1.0  0.88401  0.92915  0.81380  1.0000
  C   C3238     1.0  0.91606  0.93689  0.81310  1.0000
  C   C3239     1.0  0.77132  0.82466  0.96525  1.0000
  C   C3240     1.0  0.91232  0.93207  0.84099  1.0000
  C   C3241     1.0  0.88038  0.92459  0.84170  1.0000
  C   C3242     1.0  0.81838  0.87539  0.80496  1.0000
  C   C3243     1.0  0.80430  0.86099  0.79240  1.0000
  C   C3244     1.0  0.77823  0.86438  0.78768  1.0000
  C   C3245     1.0  0.76588  0.88164  0.79571  1.0000
  C   C3246     1.0  0.77982  0.89589  0.80832  1.0000
  C   C3247     1.0  0.80332  0.88430  0.84583  1.0000
  C   C3248     1.0  0.77433  0.88214  0.85224  1.0000
  C   C3249     1.0  0.75859  0.86183  0.86542  1.0000
  C   C3250     1.0  0.77164  0.84363  0.87230  1.0000
  C   C3251     1.0  0.79995  0.84489  0.86569  1.0000
  C   C3252     1.0  0.81549  0.86474  0.85235  1.0000
  C   C3253     1.0  0.93488  0.67878  0.85968  1.0000
  H   H2596     1.0  0.82001  0.95784  0.80671  1.0000
  H   H2597     1.0  0.82356  0.94518  0.85576  1.0000
  H   H2598     1.0  0.87366  0.92915  0.80316  1.0000
  H   H2599     1.0  0.51194  0.90980  0.87107  1.0000
  C   C3254     1.0  0.93013  0.68613  0.84457  1.0000
  C   C3255     1.0  0.78274  0.69504  0.87012  1.0000
  H   H2600     1.0  0.86711  0.92088  0.85287  1.0000
  H   H2601     1.0  0.83824  0.87219  0.80862  1.0000
  H   H2602     1.0  0.81363  0.84731  0.78625  1.0000
  H   H2603     1.0  0.76754  0.85367  0.77781  1.0000
  C   C3256     1.0  0.79291  0.93354  0.95131  1.0000
  H   H2604     1.0  0.76948  0.90857  0.81460  1.0000
  H   H2605     1.0  0.76398  0.89638  0.84722  1.0000
  H   H2606     1.0  0.73652  0.86068  0.87050  1.0000
  H   H2607     1.0  0.76009  0.82903  0.88293  1.0000
  H   H2608     1.0  0.81044  0.83133  0.87125  1.0000
  H   H2609     1.0  0.83733  0.86527  0.84743  1.0000
  C   C3257     1.0  0.75155  0.71215  0.80506  1.0000
  C   C3258     1.0  0.78292  0.69128  0.75440  1.0000
  H   H2610     1.0  0.50644  0.78546  0.86051  1.0000
  H   H2611     1.0  0.83024  0.70062  0.75829  1.0000
  C   C3259     1.0  0.84602  0.70509  0.97087  1.0000
  C   C3260     1.0  0.64994  0.89318  0.97866  1.0000
  C   C3261     1.0  0.55779  0.80287  0.82803  1.0000
  H   H2612     1.0  0.85180  0.75460  0.74699  1.0000
  C   C3262     1.0  0.69524  0.82677  0.93595  1.0000
  C   C3263     1.0  0.53207  0.88166  0.86096  1.0000
  C   C3264     1.0  0.73725  0.76572  0.75321  1.0000
  C   C3265     1.0  0.49724  0.84005  0.84797  1.0000
  H   H2613     1.0  0.73064  0.75782  0.79260  1.0000
  H   H2614     1.0  0.83492  0.70352  0.88862  1.0000
  H   H2615     1.0  0.74551  0.88416  0.79214  1.0000
  C   C3266     1.0  0.73878  0.75470  0.76829  1.0000
  C   C3267     1.0  0.82064  0.82401  0.95577  1.0000
  C   C3268     1.0  0.61533  0.83525  0.88010  1.0000
  C   C3269     1.0  0.59897  0.83360  0.89435  1.0000
  C   C3270     1.0  0.56943  0.83367  0.89495  1.0000
  C   C3271     1.0  0.55661  0.83628  0.88130  1.0000
  C   C3272     1.0  0.57360  0.83943  0.86691  1.0000
  C   C3273     1.0  0.60252  0.83766  0.86644  1.0000
  P   P108      1.0  0.55807  0.84429  0.84914  1.0000
  C   C3274     1.0  0.80375  0.84002  0.96111  1.0000
  C   C3275     1.0  0.97439  0.72348  0.76062  1.0000
  C   C3276     1.0  0.94254  0.66853  0.92310  1.0000
  H   H2616     1.0  0.65094  0.93780  0.80627  1.0000
  H   H2617     1.0  0.55566  0.77145  0.81131  1.0000
  H   H2618     1.0  0.70714  0.81659  0.76207  1.0000
  C   C3277     1.0  0.81723  0.99289  0.81974  1.0000
  C   C3278     1.0  0.60442  0.90147  0.80986  1.0000
  C   C3279     1.0  0.72578  0.78809  0.75115  1.0000
  H   H2619     1.0  0.57849  0.82106  0.82179  1.0000
  C   C3280     1.0  0.98200  0.73737  0.86626  1.0000
  C   C3281     1.0  0.77310  0.77720  0.95854  1.0000
  C   C3282     1.0  0.54354  0.80741  0.84171  1.0000
  H   H2620     1.0  0.96609  0.71639  0.77276  1.0000
  C   C3283     1.0  0.71601  0.83565  0.96068  1.0000
  H   H2621     1.0  0.93220  0.72668  0.75522  1.0000
  C   C3284     1.0  0.96754  0.70787  0.90158  1.0000
  C   C3285     1.0  0.70579  0.91601  0.97152  1.0000
  H   H2622     1.0  0.63828  0.83526  0.87962  1.0000
  H   H2623     1.0  0.60923  0.83237  0.90492  1.0000
  H   H2624     1.0  0.55659  0.83197  0.90604  1.0000
  H   H2625     1.0  0.53360  0.83602  0.88208  1.0000
  H   H2626     1.0  0.61572  0.83915  0.85550  1.0000
  C   C3286     1.0  0.61282  0.99089  0.74264  1.0000
  H   H2627     1.0  0.93367  0.73235  0.97582  1.0000
  H   H2628     1.0  0.76131  0.75288  0.95754  1.0000
  C   C3287     1.0  0.58731  0.87471  0.83576  1.0000
  C   C3288     1.0  0.51814  0.75063  0.82972  1.0000
  C   C3289     1.0  0.63818  0.91806  0.82999  1.0000
  C   C3290     1.0  0.49324  0.76190  0.79404  1.0000
  H   H2629     1.0  0.78729  0.81729  0.73634  1.0000
  C   C3291     1.0  0.58163  0.87858  0.82039  1.0000
  Fe  Fe223     1.0  0.95500  0.79146  0.90284  1.0000
  C   C3292     1.0  0.95513  0.72914  0.75071  1.0000
  C   C3293     1.0  0.75608  0.79318  0.96378  1.0000
  C   C3294     1.0  0.94387  0.69173  0.89253  1.0000
  H   H2630     1.0  0.66029  0.93305  0.83367  1.0000
  C   C3295     1.0  0.71952  0.83128  0.94504  1.0000
  C   C3296     1.0  0.50780  0.89029  0.86464  1.0000
  H   H2631     1.0  0.77271  0.68947  0.89488  1.0000
  H   H2632     1.0  0.87849  0.68553  0.89067  1.0000
  H   H2633     1.0  0.73104  0.78102  0.96670  1.0000
  H   H2634     1.0  0.76021  0.89084  0.94514  1.0000
  H   H2635     1.0  0.72887  0.70111  0.80095  1.0000
  H   H2636     1.0  0.71036  0.79732  0.78862  1.0000
  C   C3297     1.0  0.81933  0.96510  0.81812  1.0000
  C   C3298     1.0  0.86184  0.68297  0.82579  1.0000
  P   P109      1.0  0.94368  0.70748  0.87311  1.0000
  C   C3299     1.0  0.68774  0.83532  0.96705  1.0000
  C   C3300     1.0  0.74167  0.81958  0.83322  1.0000
  C   C3301     1.0  0.71343  0.80301  0.84246  1.0000
  C   C3302     1.0  0.70779  0.77480  0.85044  1.0000
  C   C3303     1.0  0.73058  0.76342  0.84936  1.0000
  C   C3304     1.0  0.75962  0.78061  0.84059  1.0000
  C   C3305     1.0  0.76471  0.80851  0.83228  1.0000
  P   P110      1.0  0.78917  0.76593  0.83926  1.0000
  C   C3306     1.0  0.78471  0.74188  0.85688  1.0000
  C   C3307     1.0  0.78442  0.74366  0.82303  1.0000
  C   C3308     1.0  0.80988  0.73954  0.81599  1.0000
  C   C3309     1.0  0.75514  0.72961  0.81755  1.0000
  C   C3310     1.0  0.78722  0.71391  0.85646  1.0000
  C   C3311     1.0  0.51744  0.78272  0.84974  1.0000
  H   H2637     1.0  0.49269  0.82108  0.84112  1.0000
  C   C3312     1.0  0.77410  0.73211  0.88485  1.0000
  C   C3313     1.0  0.77835  0.75094  0.87120  1.0000
  C   C3314     1.0  0.82768  0.79751  0.83667  1.0000
  C   C3315     1.0  0.84496  0.80697  0.84924  1.0000
  C   C3316     1.0  0.87483  0.83107  0.84700  1.0000
  C   C3317     1.0  0.88773  0.84603  0.83226  1.0000
  C   C3318     1.0  0.87078  0.83684  0.81968  1.0000
  C   C3319     1.0  0.84085  0.81275  0.82187  1.0000
  H   H2638     1.0  0.74577  0.84134  0.82703  1.0000
  H   H2639     1.0  0.69600  0.81214  0.84346  1.0000
  H   H2640     1.0  0.68573  0.76183  0.85752  1.0000
  H   H2641     1.0  0.72550  0.74130  0.85547  1.0000
  H   H2642     1.0  0.78651  0.82193  0.82523  1.0000
  H   H2643     1.0  0.83253  0.74929  0.82028  1.0000
  H   H2644     1.0  0.73499  0.73185  0.82295  1.0000
  H   H2645     1.0  0.79299  0.70662  0.84568  1.0000
  H   H2646     1.0  0.85476  0.66526  0.80358  1.0000
  H   H2647     1.0  0.51525  0.90652  0.77459  1.0000
  H   H2648     1.0  0.76947  0.73937  0.89587  1.0000
  H   H2649     1.0  0.77672  0.77260  0.87184  1.0000
  H   H2650     1.0  0.83569  0.79604  0.86082  1.0000
  H   H2651     1.0  0.88809  0.83816  0.85674  1.0000
  H   H2652     1.0  0.91094  0.86466  0.83063  1.0000
  H   H2653     1.0  0.88100  0.84824  0.80822  1.0000
  H   H2654     1.0  0.82809  0.80587  0.81197  1.0000
  C   C3320     1.0  0.85718  0.71612  0.88180  1.0000
  C   C3321     1.0  0.86227  0.74363  0.87053  1.0000
  C   C3322     1.0  0.89341  0.76097  0.86095  1.0000
  C   C3323     1.0  0.91927  0.75034  0.86221  1.0000
  C   C3324     1.0  0.91441  0.72286  0.87333  1.0000
  C   C3325     1.0  0.88304  0.70575  0.88308  1.0000
  H   H2655     1.0  0.81914  0.99397  0.85852  1.0000
  C   C3326     1.0  0.50069  0.87187  0.74919  1.0000
  C   C3327     1.0  0.76292  0.70344  0.74897  1.0000
  H   H2656     1.0  0.69856  0.82437  0.92381  1.0000
  H   H2657     1.0  0.81612  0.86437  0.96181  1.0000
  C   C3328     1.0  0.61542  0.89535  0.84059  1.0000
  S   S447      1.0  0.63125  0.86821  0.73950  1.0000
  C   C3329     1.0  0.81484  0.70986  0.75383  1.0000
  H   H2658     1.0  0.52670  0.91883  0.80095  1.0000
  C   C3330     1.0  0.80624  0.72240  0.80341  1.0000
  H   H2659     1.0  0.72928  0.92526  0.97477  1.0000
  C   C3331     1.0  0.77280  0.88593  0.96822  1.0000
  C   C3332     1.0  0.86512  0.68543  0.80952  1.0000
  H   H2660     1.0  0.50766  0.72914  0.82474  1.0000
  C   C3333     1.0  0.55643  0.88652  0.74360  1.0000
  P   P111      1.0  0.74897  0.84518  0.97173  1.0000
  H   H2661     1.0  0.55991  0.86346  0.81641  1.0000
  H   H2662     1.0  0.73814  0.68886  0.74990  1.0000
  H   H2663     1.0  0.93008  0.94232  0.80201  1.0000
  C   C3334     1.0  0.71798  0.78856  0.77880  1.0000
  C   C3335     1.0  0.80715  0.75249  0.74174  1.0000
  Fe  Fe224     1.0  0.87175  0.67752  0.76668  1.0000
  C   C3336     1.0  0.66342  0.83054  0.95793  1.0000
  C   C3337     1.0  0.72936  0.76627  0.78101  1.0000
  C   C3338     1.0  0.54507  0.77456  0.82209  1.0000
  C   C3339     1.0  0.80538  0.79260  0.95455  1.0000
  H   H2664     1.0  0.81862  0.78025  0.95048  1.0000
  C   C3340     1.0  0.77599  0.70403  0.88430  1.0000
  S   S448      1.0  0.93808  0.80202  0.88082  1.0000
  H   H2665     1.0  0.74148  0.83258  0.93967  1.0000
  H   H2666     1.0  0.79357  0.94557  0.94031  1.0000
  H   H2667     1.0  0.78503  0.67945  0.94426  1.0000
  H   H2668     1.0  0.74722  0.73725  0.77031  1.0000
  H   H2669     1.0  0.82616  0.97323  0.96026  1.0000
  C   C3341     1.0  0.77713  0.70872  0.79794  1.0000
  H   H2670     1.0  0.62244  0.98439  0.75241  1.0000
  C   C3342     1.0  0.81119  0.94897  0.96251  1.0000
  H   H2671     1.0  0.93120  0.70855  0.84109  1.0000
  C   C3343     1.0  0.90913  0.72460  0.97448  1.0000
  H   H2672     1.0  0.60031  0.90378  0.79792  1.0000
  H   H2673     1.0  0.94083  0.76197  0.85465  1.0000
  C   C3344     1.0  0.77384  0.90219  0.95411  1.0000
  C   C3345     1.0  0.66727  0.82662  0.94236  1.0000
  C   C3346     1.0  0.52682  0.85607  0.85289  1.0000
  H   H2674     1.0  0.77374  0.66731  0.75891  1.0000
  P   P112      1.0  0.74901  0.75078  0.73661  1.0000
  H   H2675     1.0  0.70141  0.96742  0.92822  1.0000
  H   H2676     1.0  0.57807  0.88726  0.74731  1.0000
  H   H2677     1.0  0.64196  0.83106  0.96282  1.0000
  H   H2678     1.0  0.84562  0.83599  0.95248  1.0000
  H   H2679     1.0  0.74035  0.98217  0.94675  1.0000
  H   H2680     1.0  0.84277  0.98565  0.92045  1.0000
  C   C3347     1.0  0.58198  0.97317  0.74011  1.0000
  C   C3348     1.0  0.49277  0.78902  0.79843  1.0000
  H   H2681     1.0  0.97627  0.77093  0.87963  1.0000
  C   C3349     1.0  0.81924  0.98588  0.84723  1.0000
  H   H2682     1.0  0.95498  0.94408  0.82617  1.0000
  H   H2683     1.0  0.77443  0.69518  0.78829  1.0000
  C   C3350     1.0  0.96673  0.69637  0.91679  1.0000
  C   C3351     1.0  0.50448  0.75461  0.84363  1.0000
  C   C3352     1.0  0.50643  0.89836  0.79922  1.0000
  C   C3353     1.0  0.79145  0.90149  0.97939  1.0000
  H   H2684     1.0  0.49162  0.88516  0.82347  1.0000
  C   C3354     1.0  0.48670  0.87930  0.81194  1.0000
  C   C3355     1.0  0.71919  0.99077  0.92728  1.0000
  C   C3356     1.0  0.81043  0.93295  0.97657  1.0000
  H   H2685     1.0  0.91997  0.67063  0.82225  1.0000
  H   H2686     1.0  0.68712  0.74920  0.73272  1.0000
  C   C3357     1.0  0.80735  0.66734  0.92516  1.0000
  H   H2687     1.0  0.78517  0.67371  0.86969  1.0000
  C   C3358     1.0  0.96522  0.73740  0.73497  1.0000
  H   H2688     1.0  0.68442  0.83949  0.97889  1.0000
  C   C3359     1.0  0.50062  0.88516  0.73438  1.0000
  C   C3360     1.0  0.92417  0.66478  0.83380  1.0000
