data_image0
_chemical_formula_structural       C4FeSFeS2FeS2FeSFeS3FeS2CHC2HSC2SFeS2HPC2H2C2HC9H4CSH2C7H6C2HC2HC2H5CH2CHC4H5CHCH2FeHCHC4PC15H2CHC3H8C6PC18H5C2H4CHC2H2CH4CH4CH2CH2CSCHCH2C2H3C2H3CHFeC2HCSCSCHC6H5C6PC18H15C3HC2HC3PC2H4C8HCH3CHFeH2C2H3SH6CH3CPH2C7HC3H2CHC2H2C2HCHSH4SFeCH2CHCHC3HCH4CFe2S2FeCH2SCFeS2FeS2FeS2FeS2FeSFeS3HSHCH3C6H6CH2SC2HFeH2C6H4C10HC3SH2CHCSHCHPCHSC6HCHC2H5C3H3CH2C2HC2HC9HC3H4CH2SC3H4CSCHC2PC8H2CHC7HCH5CH2FeHC2H5CPC2H2CHC3FeCH2CH2C2H7C3SC2HC2H2PC2HC4PHCHC3H2C3H3C4FeHC2H3CHCH3C4HCHC2H2CHC3H2CHC3HC2FePC3HC2H2C2H2C2H2C5H2C2HSHCHCH3C2HC2HCH2C3HCH2C2HCHC2HFeS2FeS2FeSFeS3C2H2CHFeS2FeS2HCSHSC2H2CFeCFeS2HCHC2H4C6H4C2H2PC6H4C2HC2HC3H2C3H3CH2PC2HCHCH2SC3HCH3SC2HC6PC15H20FeHC3HC3H2C4H2SC3H4CH2C3HC6HSPHC4HC2H4CH2C5SCHCH4SCHCFeH2CH2C4HCH2C3HCSCHC8PC3HC2SC5HC3H2CH2CHCH9CHCHFeCHCSCH2C3H2C3H2CHC2HCHC2H6FeH2CH2S2FeS2CH5FeS2FeS2FeSFeS3FeS2CSC6H4C2H2C7H4C4FeHCH6C4HC2H2C3HC3H2SC2HPC16HSCH8C2HCHFeC3H2C2PC3FeHC13HCH9CH6CH2CHCHCH3CHCH2CPC2HCHC2SHCH3C2PC5HC11HC3H3CH7CH2C6PC15HC2H16C2H2CH2CH3C3HCH3C4HCH2C2HCHSH2CHC2HC2H6C2HC3H2CHC2HCH2C2SC5HC3HCH4SH2C3HCHPSH2FeH2C4SH2PHFeS2FeS2FeS2FeSFeS3FeS2FeS2HCH4C7H4C6H4SC2HCHPH3C5H2CH2CH2C9H2C9HC2H2CHCHC3H2C2H2C2HC2H2CHCH2CSC2HCH3CHC2HC2FeHC4H3CH2CHCHC4HC3HPH3SCSHC2H2CFeH2C8H3CHFeHC6SCHCH4C3HC2HC11H2CHC3HSH6CH3C3H2C2H2C8H2C3HC3PC2HC7H3CH2C2H2C2H5CH3C7SH4C3HCPC2FeC2HPC5H4C3H2CH4SHPH3C2H5CH2FeC5HC2SCHC2H2SCHCH2CS2FeS2FeS2C3Fe2S2FeS2FeCFeS4C3HFeC7H6C6H6CHCH2CH2C3H2SCH2CH3FeSC2HCHC2HC7PC18HC2H8SHCH4CHC6PCHC2H3CH2C4HC3H5C2FeHCHC3SHCH3CHC3H2C2H2CHC3H2C9SPC3HSPHCH5CHSHC7HC2H4FeC4H2C2HC2HCHSC3HCHCHCH3CPH2CH2C2H2CFeHCH3CH2CH5SCH2CH2CHC5SCH2SH3C2H2CFeCSFeS2FeS2FeSFeCS3H2C2HFeS2HFeH3C2S2CHC2H2C6H4C6H7CH2CH2C3HCH2C2SC3HCSH4C6PC18H6CH14SH2CFeH3CH2C2HC6H3C8PC3H2C13H7C3H2C4H5CHFeSPHCHC4HC3SH3C2HC2HC2H4CFeHC5H2C2H4C2H2C3PHCHC3H8C3HC2FeHCH5C2H2C4SC3FeS2FeS2CHCHCHFeS2FeS2FeS2FeSFeS3CH3CSC6H4SHC2HC9H4FeHCHCSFeC2S2C2H2C4HC2HC6PC4H2C3HC8H6C2H3CH7C2H2CH2C3H2SH2C4HCH2CHC3HC2H5CH4CH2CHC2HC3H2CSHFeHC2FeC4HC6H2CH4C2H3C2H6C3H2CH2C7PCHPCHPHC9HCH7C3H2CH4C2SHCH3C3FeH5PC4H2SCHCHC4SCHC3H3CHC5HSHFeS2FeS2FeS2FeS2FeSFeS3HC2H2SFeS2H2C7HC2FeCHSCHC4HCH2C6H4CHC6H7CH4CH7CH2C3SCHPC20HC2H11CH5CHCH2C3HCPC13HC2HCH11SC2HSCHCHC7H2C3HCHCHCFeHC3SH6CPC4HPC2H2CHCHCSH3C2HFeHC9HC3SH2C5H6PHCH2C2H2C2H2C2FeCH2FeCFeS2CHCHCHFeS2CHSH3FeHSFeS2FeS2FeSFeS3C2H2C2H2CH4CSH2C2HCHCFeC2H2C8H7C8H4C3H2CHC3SCHCH2FePCHC2FeHCH2C2H4C3HCH2SCHC3H2SH3C2H2SCHCHSHCHFeH2PH3C3HC2H2SC2HC2HCH2CH2PC18H2CH8C6PC18H3CH3C3H2C3H2SC3HCH3C2SC2HSHC2HCHCHC2HC2HCHCH2CH3CHC2H2FeS3FeS2HC2H3FeS2FeS2FeS2FeSFeS3C11H6CHCHC8H5CHCHCH2C2HC2HCHC2H2C7PHCHC4HC3H8CH2C4HC3H4C3HC2H3C5HCPHC2SH3C7HCH3C2HCH2C2PHC2HPH3C3SHC3H2C2H2C10HC3HC2H3C2H5PC3HC2HCH4SC2H6CH4C6PHC8HC10SCH6C2HCH4CPC2H2CH5C4HSH2C2H2C2HC2FeH3CHCH2CH6C2HC2HC2H2CHSC2HC2HC2HFeC2HCHFeCH2CHC3HCHC13HCHC2HC2H4FeCSFeS2FeS2FeS2FeSFeS3C4HCFeS2H3C7H4CSC7H5CHCH2C3HC6HCHSCH3C6HPC7HC3HC5HCHCH5C4H4PH2CHCPC2PH5C6PC2HCH2C3H2SC2HC3H3CH3C2H2CH5C2SHC3H4FeCHC2HC3H2C3HCSH2CHFeSC2HCH3C2H2C3H2C2H3C4HCHCHC3HC5PC2H2C4HFeCHC3H2C2H5C2H3CH3CHC3SC4HCHCHCHC2H2C5HCSH3CH3C2HC3H4C2HPCH2CH2C2HCH6C2H2FeSHCFeS2FeSHFeS2FeSFeS3PCFeC3FeS2HC8H4C4HC8H6CFeCSHCH2C2HCHC2HCSCH3CHCHC4HCHCHSH3C2HSH4CHCPCSHC3H5SHCHC4HC2HCHC7HC2FeC3HC6H5C4H2PC2H3C2H2C2H2CH3C2HCHSHC2HC3FeCH3SHC7PC18H10CH10CH2C3HC3H5CH4CFeH2SCHCHC3PC3HC5H2C3H2CHC2FeSH2C3H3C3H4CHCH2CHFeHC2HSHCHFeS2HCHFeCFeS2FeS2FeSFeCS2FeS2FeS2H5C6H4C6H5C2H2C3FeCH2CHFeHCH2C2HCHC2H2SC2H3C3S2HC3HC2SC5HC3HCH2CH2CHC2H2C8PC15HSC2H14CHCHCHC3HC2H2FeCHCHC2HCSHCHC3PC18H3CH11CH2C2H5SCH2CH2CH2C4HSCH3C2SHC3HC3H2C3HSHFeHPH2PC7H3C5SCH2CH2CH2CHCH2CH2CH4C2H2CSHC2HC2H2C2HCHCS2FeHSFeS2FeS2FeS2FeSFeS3CHC2HC6H4PCHCH2C6H4C4SC2H2SCHCSH2C3HCH3CH2C2HC2HC3H2C6PC5HC10HCH7C2H9CH2C2HC3H5C4PHC4HFeH4C2HCHC2SHC4PC13H2CHCH12C4HCHSHC7H2C2HCHCHSCHCPH2C2FeCSC4HC2H2CHC5HSC2HCH2C2HCHC8FeCSH2C2H3C5H2CH5SC3HCHC3SH2CH2FePCH3C2PC2HCH2C3H2CSCHCHCH2C2H2C2H2CH6FeH2C7HSC2H3C3H3CH2C3FeC3PH2CFeS2FeS2FeS2FeSFeS3FeS2C4HCFeCSH4C2H4C6H4CHC4HC6H5C2HC4HPC3HC3H2CHCH2CH2FeC2H4C2H2C4H3C7HCHC2HC4PC18HC2H17CH2C2HPC4SC4HCH6C2H4PH3CPCHCHCH2C3H2C3HCHC2H2C2HC2H8CH2C3HC2H2CHC3H2C4HC2HPCHCH2CHC3HCHC3H2C2HCHC2H4C2HCH2C5HCH2C4HPC2SHC3H2C9HC2SC2H5C4H6C4HC7H2C2H4C2PC2HCHS2HSCHCH2CH2C2Fe
_chemical_formula_sum              "C2760 Fe184 S368 H2208 P92"
_cell_length_a       60.015
_cell_length_b       60.6908
_cell_length_c       60.0728
_cell_angle_alpha    89.0552
_cell_angle_beta     88.4227
_cell_angle_gamma    88.7765

_space_group_name_H-M_alt    "P 1"
_space_group_IT_number       1

loop_
  _space_group_symop_operation_xyz
  'x, y, z'

loop_
  _atom_site_type_symbol
  _atom_site_label
  _atom_site_symmetry_multiplicity
  _atom_site_fract_x
  _atom_site_fract_y
  _atom_site_fract_z
  _atom_site_occupancy
  C   C1        1.0  0.21250  0.04506  0.01192  1.0000
  C   C2        1.0  0.23284  0.00396  0.06454  1.0000
  C   C3        1.0  0.27246  0.09534  0.01513  1.0000
  C   C4        1.0  0.04072  0.18903  0.31499  1.0000
  Fe  Fe1       1.0  0.00582  0.21528  0.46969  1.0000
  S   S1        1.0  0.01694  0.19202  0.44065  1.0000
  Fe  Fe2       1.0  0.19352  0.14572  0.18116  1.0000
  S   S2        1.0  0.19203  0.16307  0.21425  1.0000
  S   S3        1.0  0.20173  0.10862  0.17886  1.0000
  Fe  Fe3       1.0  0.17519  0.18679  0.15565  1.0000
  S   S4        1.0  0.17266  0.20684  0.18681  1.0000
  S   S5        1.0  0.16660  0.19591  0.11946  1.0000
  Fe  Fe4       1.0  0.20629  0.19228  0.19543  1.0000
  S   S6        1.0  0.23740  0.21115  0.20526  1.0000
  Fe  Fe5       1.0  0.15840  0.17633  0.20377  1.0000
  S   S7        1.0  0.12732  0.18132  0.22671  1.0000
  S   S8        1.0  0.20989  0.17388  0.16294  1.0000
  S   S9        1.0  0.15892  0.15727  0.17198  1.0000
  Fe  Fe6       1.0  0.02709  0.10745  0.28582  1.0000
  S   S10       1.0  0.02020  0.09403  0.32062  1.0000
  S   S11       1.0  0.06291  0.10851  0.27091  1.0000
  C   C5        1.0  0.35116  0.18576  0.27788  1.0000
  H   H1        1.0  0.03504  0.10195  0.15972  1.0000
  C   C6        1.0  0.04134  0.20005  0.29420  1.0000
  C   C7        1.0  0.37847  0.14789  0.28245  1.0000
  H   H2        1.0  0.32414  0.15397  0.36293  1.0000
  S   S12       1.0  0.30255  0.99498  0.15136  1.0000
  C   C8        1.0  0.19462  0.01517  0.05770  1.0000
  C   C9        1.0  0.06293  0.20309  0.35616  1.0000
  S   S13       1.0  0.47424  0.18503  0.37499  1.0000
  Fe  Fe7       1.0  0.28982  0.01834  0.12485  1.0000
  S   S14       1.0  0.28161  0.05520  0.12958  1.0000
  S   S15       1.0  0.31829  0.01029  0.10064  1.0000
  H   H3        1.0  0.46072  0.18437  0.48140  1.0000
  P   P1        1.0  0.06538  0.18617  0.33156  1.0000
  C   C10       1.0  0.47819  0.18474  0.48529  1.0000
  C   C11       1.0  0.19367  0.07373  0.99060  1.0000
  H   H4        1.0  0.13814  0.21170  0.27448  1.0000
  H   H5        1.0  0.38455  0.22509  0.35092  1.0000
  C   C12       1.0  0.35552  0.17056  0.36123  1.0000
  C   C13       1.0  0.31767  0.22082  0.33858  1.0000
  H   H6        1.0  0.18631  0.10391  0.00792  1.0000
  C   C14       1.0  0.19406  0.07028  0.11366  1.0000
  C   C15       1.0  0.02196  0.20259  0.28190  1.0000
  C   C16       1.0  0.09372  0.21649  0.31081  1.0000
  C   C17       1.0  0.22415  0.09417  0.16499  1.0000
  C   C18       1.0  0.22410  0.07096  0.16482  1.0000
  C   C19       1.0  0.24132  0.05876  0.15388  1.0000
  C   C20       1.0  0.25905  0.06963  0.14319  1.0000
  C   C21       1.0  0.25917  0.09283  0.14347  1.0000
  C   C22       1.0  0.24182  0.10505  0.15420  1.0000
  H   H7        1.0  0.21052  0.06235  0.17306  1.0000
  H   H8        1.0  0.24088  0.04096  0.15373  1.0000
  H   H9        1.0  0.27281  0.10143  0.13531  1.0000
  H   H10       1.0  0.24215  0.12286  0.15419  1.0000
  C   C23       1.0  0.15537  0.21944  0.10495  1.0000
  S   S16       1.0  0.43201  0.00217  0.21551  1.0000
  H   H11       1.0  0.34039  0.11831  0.35003  1.0000
  H   H12       1.0  0.22781  0.12951  0.00649  1.0000
  C   C24       1.0  0.10329  0.17813  0.30418  1.0000
  C   C25       1.0  0.10942  0.16088  0.23872  1.0000
  C   C26       1.0  0.08898  0.16745  0.24900  1.0000
  C   C27       1.0  0.07458  0.15183  0.25915  1.0000
  C   C28       1.0  0.08051  0.12937  0.25923  1.0000
  C   C29       1.0  0.10106  0.12292  0.24922  1.0000
  C   C30       1.0  0.11530  0.13846  0.23884  1.0000
  H   H13       1.0  0.08426  0.18474  0.24916  1.0000
  H   H14       1.0  0.05890  0.15718  0.26679  1.0000
  H   H15       1.0  0.10598  0.10568  0.24938  1.0000
  H   H16       1.0  0.13096  0.13309  0.23115  1.0000
  H   H17       1.0  0.40926  0.16366  0.38762  1.0000
  H   H18       1.0  0.37804  0.19814  0.25665  1.0000
  C   C31       1.0  0.39108  0.99902  0.19565  1.0000
  C   C32       1.0  0.00706  0.17835  0.41649  1.0000
  H   H19       1.0  0.29772  0.03562  0.01657  1.0000
  C   C33       1.0  0.01509  0.15378  0.38470  1.0000
  C   C34       1.0  0.02199  0.16487  0.40388  1.0000
  H   H20       1.0  0.02676  0.14342  0.37542  1.0000
  C   C35       1.0  0.99215  0.00723  0.30994  1.0000
  C   C36       1.0  0.07768  0.18697  0.46919  1.0000
  H   H21       1.0  0.10036  0.16072  0.30633  1.0000
  H   H22       1.0  0.44555  0.07041  0.29352  1.0000
  H   H23       1.0  0.02588  0.15940  0.47449  1.0000
  H   H24       1.0  0.46704  0.14026  0.42171  1.0000
  H   H25       1.0  0.15984  0.20428  0.07289  1.0000
  C   C37       1.0  0.04594  0.02915  0.27616  1.0000
  H   H26       1.0  0.34852  0.18609  0.36710  1.0000
  H   H27       1.0  0.19610  0.04019  0.09565  1.0000
  C   C38       1.0  0.31420  0.19935  0.25159  1.0000
  H   H28       1.0  0.03906  0.16297  0.40899  1.0000
  C   C39       1.0  0.27866  0.18544  0.24015  1.0000
  C   C40       1.0  0.28688  0.18393  0.21824  1.0000
  C   C41       1.0  0.30891  0.18943  0.21304  1.0000
  C   C42       1.0  0.32260  0.19690  0.22968  1.0000
  H   H29       1.0  0.06315  0.05659  0.26107  1.0000
  H   H30       1.0  0.26143  0.18146  0.24402  1.0000
  H   H31       1.0  0.27599  0.17881  0.20524  1.0000
  H   H32       1.0  0.31522  0.18819  0.19603  1.0000
  H   H33       1.0  0.33969  0.20099  0.22541  1.0000
  C   C43       1.0  0.01158  0.15758  0.48571  1.0000
  H   H34       1.0  0.42511  0.21839  0.35681  1.0000
  C   C44       1.0  0.00049  0.98988  0.32346  1.0000
  H   H35       1.0  0.38441  0.00569  0.21107  1.0000
  H   H36       1.0  0.35872  0.99756  0.18063  1.0000
  Fe  Fe8       1.0  0.48560  0.21736  0.36077  1.0000
  H   H37       1.0  0.09847  0.20821  0.35799  1.0000
  C   C45       1.0  0.43953  0.10556  0.29196  1.0000
  H   H38       1.0  0.03320  0.03947  0.28418  1.0000
  C   C46       1.0  0.32144  0.99809  0.99510  1.0000
  C   C47       1.0  0.04552  0.00626  0.27909  1.0000
  C   C48       1.0  0.42452  0.12228  0.32587  1.0000
  C   C49       1.0  0.43229  0.12426  0.30365  1.0000
  P   P2        1.0  0.41729  0.14646  0.34202  1.0000
  C   C50       1.0  0.38771  0.14859  0.34864  1.0000
  C   C51       1.0  0.43278  0.14432  0.36751  1.0000
  C   C52       1.0  0.42470  0.15424  0.38721  1.0000
  C   C53       1.0  0.43134  0.08265  0.32435  1.0000
  C   C54       1.0  0.29698  0.23175  0.33780  1.0000
  C   C55       1.0  0.42402  0.10128  0.33609  1.0000
  C   C56       1.0  0.45332  0.13273  0.36776  1.0000
  C   C57       1.0  0.37383  0.13045  0.34643  1.0000
  C   C58       1.0  0.37834  0.16863  0.35623  1.0000
  C   C59       1.0  0.42607  0.17078  0.32655  1.0000
  C   C60       1.0  0.44872  0.17587  0.32512  1.0000
  C   C61       1.0  0.45583  0.19454  0.31323  1.0000
  C   C62       1.0  0.44039  0.20823  0.30251  1.0000
  C   C63       1.0  0.41785  0.20297  0.30324  1.0000
  C   C64       1.0  0.41070  0.18423  0.31505  1.0000
  H   H39       1.0  0.19529  0.10223  0.12868  1.0000
  H   H40       1.0  0.28557  0.19367  0.27369  1.0000
  C   C65       1.0  0.43913  0.08479  0.30232  1.0000
  H   H41       1.0  0.43352  0.14023  0.29549  1.0000
  C   C66       1.0  0.38587  0.16581  0.26954  1.0000
  C   C67       1.0  0.37639  0.99449  0.17834  1.0000
  C   C68       1.0  0.29231  0.19289  0.25684  1.0000
  H   H42       1.0  0.41875  0.09942  0.35340  1.0000
  H   H43       1.0  0.38050  0.11479  0.34073  1.0000
  H   H44       1.0  0.38873  0.18284  0.35825  1.0000
  H   H45       1.0  0.46093  0.16548  0.33326  1.0000
  H   H46       1.0  0.47331  0.19864  0.31269  1.0000
  H   H47       1.0  0.44589  0.22316  0.29409  1.0000
  H   H48       1.0  0.40591  0.21379  0.29515  1.0000
  H   H49       1.0  0.39318  0.18052  0.31523  1.0000
  C   C69       1.0  0.10057  0.08447  0.20730  1.0000
  C   C70       1.0  0.12329  0.08723  0.20255  1.0000
  C   C71       1.0  0.13016  0.10349  0.18728  1.0000
  C   C72       1.0  0.11434  0.11724  0.17706  1.0000
  C   C73       1.0  0.09155  0.11526  0.18250  1.0000
  C   C74       1.0  0.08473  0.09825  0.19713  1.0000
  P   P3        1.0  0.07114  0.13245  0.16851  1.0000
  C   C75       1.0  0.04688  0.13824  0.18615  1.0000
  C   C76       1.0  0.08290  0.15878  0.16084  1.0000
  C   C77       1.0  0.09711  0.16911  0.17540  1.0000
  C   C78       1.0  0.10776  0.18855  0.16888  1.0000
  C   C79       1.0  0.10405  0.19798  0.14791  1.0000
  C   C80       1.0  0.08909  0.18838  0.13372  1.0000
  C   C81       1.0  0.07832  0.16898  0.14025  1.0000
  C   C82       1.0  0.02625  0.14358  0.17673  1.0000
  C   C83       1.0  0.00718  0.14659  0.19041  1.0000
  C   C84       1.0  0.35099  0.13240  0.35161  1.0000
  C   C85       1.0  0.02931  0.14029  0.22303  1.0000
  C   C86       1.0  0.04840  0.13745  0.20941  1.0000
  C   C87       1.0  0.06426  0.11693  0.14437  1.0000
  C   C88       1.0  0.04567  0.10324  0.14491  1.0000
  C   C89       1.0  0.08957  0.19404  0.31482  1.0000
  C   C90       1.0  0.05471  0.09153  0.10730  1.0000
  C   C91       1.0  0.07365  0.10456  0.10691  1.0000
  C   C92       1.0  0.07856  0.11703  0.12546  1.0000
  H   H50       1.0  0.13560  0.07680  0.21066  1.0000
  H   H51       1.0  0.14780  0.10550  0.18344  1.0000
  H   H52       1.0  0.11996  0.12941  0.16492  1.0000
  H   H53       1.0  0.06721  0.09573  0.20091  1.0000
  H   H54       1.0  0.10046  0.16183  0.19158  1.0000
  C   C93       1.0  0.32816  0.21331  0.31897  1.0000
  C   C94       1.0  0.02058  0.18009  0.32283  1.0000
  H   H55       1.0  0.08619  0.19581  0.11750  1.0000
  H   H56       1.0  0.06679  0.16180  0.12903  1.0000
  H   H57       1.0  0.02481  0.14505  0.15884  1.0000
  H   H58       1.0  0.01985  0.17059  0.33823  1.0000
  C   C95       1.0  0.04218  0.20670  0.36709  1.0000
  H   H59       1.0  0.06426  0.13429  0.21705  1.0000
  C   C96       1.0  0.34183  0.15247  0.35891  1.0000
  C   C97       1.0  0.28503  0.00231  0.22769  1.0000
  H   H60       1.0  0.28398  0.09050  0.02800  1.0000
  H   H61       1.0  0.09358  0.12666  0.12509  1.0000
  C   C98       1.0  0.99102  0.15184  0.47736  1.0000
  H   H62       1.0  0.35150  0.13478  0.30260  1.0000
  H   H63       1.0  0.43171  0.06659  0.33251  1.0000
  H   H64       1.0  0.02707  0.20000  0.36092  1.0000
  H   H65       1.0  0.48152  0.12251  0.38714  1.0000
  C   C99       1.0  0.25551  0.11086  0.01968  1.0000
  H   H66       1.0  0.13104  0.17222  0.28136  1.0000
  H   H67       1.0  0.09184  0.99255  0.24779  1.0000
  H   H68       1.0  0.32606  0.21920  0.35426  1.0000
  H   H69       1.0  0.06477  0.20320  0.43999  1.0000
  C   C100      1.0  0.28695  0.23553  0.31736  1.0000
  H   H70       1.0  0.28810  0.07429  0.99069  1.0000
  H   H71       1.0  0.05670  0.20649  0.28721  1.0000
  C   C101      1.0  0.12482  0.20690  0.28600  1.0000
  H   H72       1.0  0.05096  0.08183  0.09294  1.0000
  H   H73       1.0  0.25655  0.00755  0.17965  1.0000
  C   C102      1.0  0.34374  0.16760  0.29058  1.0000
  S   S17       1.0  0.99715  0.03519  0.31759  1.0000
  C   C103      1.0  0.06282  0.03877  0.26311  1.0000
  H   H74       1.0  0.27711  0.23417  0.21562  1.0000
  C   C104      1.0  0.39636  0.23741  0.34557  1.0000
  H   H75       1.0  0.07202  0.17091  0.46446  1.0000
  H   H76       1.0  0.02257  0.21081  0.26576  1.0000
  C   C105      1.0  0.31546  0.99335  0.01764  1.0000
  C   C106      1.0  0.08217  0.21140  0.36558  1.0000
  H   H77       1.0  0.33712  0.00593  0.99119  1.0000
  H   H78       1.0  0.09240  0.03293  0.24284  1.0000
  H   H79       1.0  0.14529  0.23654  0.05124  1.0000
  C   C107      1.0  0.43693  0.15254  0.40671  1.0000
  C   C108      1.0  0.46542  0.13095  0.38731  1.0000
  H   H80       1.0  0.09547  0.22980  0.39243  1.0000
  H   H81       1.0  0.43104  0.16078  0.42169  1.0000
  H   H82       1.0  0.03243  0.99911  0.28939  1.0000
  C   C109      1.0  0.07364  0.20520  0.45529  1.0000
  H   H83       1.0  0.21032  0.22959  0.24242  1.0000
  Fe  Fe9       1.0  0.99280  0.11996  0.32327  1.0000
  C   C110      1.0  0.00866  0.14465  0.21354  1.0000
  C   C111      1.0  0.04081  0.09077  0.12634  1.0000
  H   H84       1.0  0.46037  0.12548  0.35274  1.0000
  C   C112      1.0  0.06197  0.99270  0.26898  1.0000
  S   S18       1.0  0.00104  0.13446  0.28900  1.0000
  C   C113      1.0  0.41424  0.99481  0.19333  1.0000
  S   S19       1.0  0.00367  0.08384  0.27045  1.0000
  C   C114      1.0  0.45726  0.14090  0.40677  1.0000
  H   H85       1.0  0.21930  0.02840  0.01285  1.0000
  C   C115      1.0  0.06814  0.15770  0.34053  1.0000
  C   C116      1.0  0.07330  0.15214  0.36264  1.0000
  C   C117      1.0  0.07589  0.13002  0.36919  1.0000
  C   C118      1.0  0.07376  0.11336  0.35367  1.0000
  C   C119      1.0  0.06885  0.11879  0.33165  1.0000
  C   C120      1.0  0.06552  0.14081  0.32520  1.0000
  H   H86       1.0  0.47317  0.01119  0.17261  1.0000
  H   H87       1.0  0.07508  0.16470  0.37497  1.0000
  H   H88       1.0  0.07943  0.12579  0.38633  1.0000
  H   H89       1.0  0.07575  0.09621  0.35868  1.0000
  H   H90       1.0  0.06742  0.10589  0.31953  1.0000
  C   C121      1.0  0.34914  0.06123  0.26052  1.0000
  C   C122      1.0  0.37048  0.05428  0.25338  1.0000
  C   C123      1.0  0.37462  0.04921  0.23104  1.0000
  C   C124      1.0  0.35744  0.05100  0.21579  1.0000
  C   C125      1.0  0.33592  0.05806  0.22279  1.0000
  C   C126      1.0  0.33192  0.06308  0.24532  1.0000
  P   P4        1.0  0.31311  0.05949  0.20364  1.0000
  C   C127      1.0  0.29654  0.08425  0.20890  1.0000
  C   C128      1.0  0.32402  0.06048  0.17531  1.0000
  C   C129      1.0  0.32380  0.08019  0.16270  1.0000
  C   C130      1.0  0.33286  0.08060  0.14098  1.0000
  C   C131      1.0  0.34228  0.06143  0.13177  1.0000
  C   C132      1.0  0.34253  0.04180  0.14422  1.0000
  C   C133      1.0  0.33315  0.04126  0.16576  1.0000
  C   C134      1.0  0.30695  0.10352  0.21552  1.0000
  C   C135      1.0  0.29437  0.12284  0.21935  1.0000
  C   C136      1.0  0.27134  0.12313  0.21643  1.0000
  C   C137      1.0  0.26090  0.10411  0.20968  1.0000
  C   C138      1.0  0.27340  0.08477  0.20581  1.0000
  C   C139      1.0  0.29627  0.03519  0.20691  1.0000
  C   C140      1.0  0.28124  0.03007  0.19039  1.0000
  C   C141      1.0  0.26798  0.01145  0.19263  1.0000
  C   C142      1.0  0.12087  0.18458  0.28995  1.0000
  C   C143      1.0  0.24301  0.22995  0.22689  1.0000
  C   C144      1.0  0.29815  0.02108  0.22559  1.0000
  H   H91       1.0  0.00948  0.99378  0.33820  1.0000
  H   H92       1.0  0.39115  0.04360  0.22554  1.0000
  H   H93       1.0  0.36119  0.04676  0.19867  1.0000
  H   H94       1.0  0.31538  0.06818  0.25115  1.0000
  H   H95       1.0  0.31633  0.09514  0.16932  1.0000
  H   H96       1.0  0.33216  0.09567  0.13111  1.0000
  H   H97       1.0  0.34906  0.06165  0.11488  1.0000
  H   H98       1.0  0.34975  0.02689  0.13708  1.0000
  H   H99       1.0  0.33310  0.02586  0.17504  1.0000
  H   H100      1.0  0.32483  0.10369  0.21748  1.0000
  H   H101      1.0  0.30248  0.13764  0.22444  1.0000
  H   H102      1.0  0.26153  0.13809  0.21919  1.0000
  H   H103      1.0  0.24305  0.10443  0.20717  1.0000
  H   H104      1.0  0.26485  0.07049  0.20017  1.0000
  H   H105      1.0  0.27991  0.04041  0.17562  1.0000
  C   C145      1.0  0.08058  0.22349  0.38523  1.0000
  C   C146      1.0  0.27469  0.08615  0.99396  1.0000
  C   C147      1.0  0.35740  0.14878  0.29291  1.0000
  H   H106      1.0  0.30975  0.02436  0.23851  1.0000
  C   C148      1.0  0.21594  0.10041  0.09883  1.0000
  C   C149      1.0  0.20105  0.09202  0.11492  1.0000
  H   H107      1.0  0.18220  0.02783  0.05405  1.0000
  C   C150      1.0  0.20152  0.05704  0.09601  1.0000
  C   C151      1.0  0.21609  0.06552  0.07942  1.0000
  C   C152      1.0  0.22348  0.08723  0.08118  1.0000
  P   P5        1.0  0.22541  0.04895  0.05598  1.0000
  C   C153      1.0  0.25549  0.04933  0.05325  1.0000
  C   C154      1.0  0.21707  0.02068  0.05986  1.0000
  H   H108      1.0  0.36897  0.23120  0.29276  1.0000
  H   H109      1.0  0.25392  0.11809  0.03604  1.0000
  H   H110      1.0  0.40219  0.16510  0.26135  1.0000
  H   H111      1.0  0.38382  0.05261  0.26515  1.0000
  C   C155      1.0  0.19376  0.08751  0.00899  1.0000
  C   C156      1.0  0.26629  0.04193  0.03367  1.0000
  C   C157      1.0  0.28955  0.04145  0.03173  1.0000
  C   C158      1.0  0.30227  0.04773  0.04958  1.0000
  C   C159      1.0  0.29169  0.05470  0.06931  1.0000
  C   C160      1.0  0.26841  0.05538  0.07122  1.0000
  C   C161      1.0  0.21306  0.05893  0.03041  1.0000
  C   C162      1.0  0.20341  0.08020  0.02880  1.0000
  H   H112      1.0  0.32725  0.16789  0.29842  1.0000
  C   C163      1.0  0.20297  0.05249  0.99210  1.0000
  H   H113      1.0  0.38899  0.13326  0.28419  1.0000
  H   H114      1.0  0.11932  0.19598  0.17993  1.0000
  H   H115      1.0  0.22178  0.11709  0.10027  1.0000
  C   C164      1.0  0.21351  0.23540  0.12782  1.0000
  H   H116      1.0  0.29011  0.23263  0.28196  1.0000
  Fe  Fe10      1.0  0.46648  0.99470  0.23105  1.0000
  H   H117      1.0  0.23517  0.09392  0.06895  1.0000
  H   H118      1.0  0.03047  0.13879  0.24099  1.0000
  C   C165      1.0  0.15417  0.21892  0.08157  1.0000
  C   C166      1.0  0.37221  0.18463  0.26711  1.0000
  H   H119      1.0  0.11294  0.21259  0.14255  1.0000
  H   H120      1.0  0.34590  0.06496  0.27789  1.0000
  H   H121      1.0  0.25686  0.03585  0.02016  1.0000
  S   S20       1.0  0.48509  0.18591  0.43931  1.0000
  H   H122      1.0  0.32031  0.04663  0.04834  1.0000
  H   H123      1.0  0.30148  0.05897  0.08347  1.0000
  H   H124      1.0  0.26068  0.05998  0.08700  1.0000
  H   H125      1.0  0.20307  0.09121  0.04274  1.0000
  H   H126      1.0  0.34463  0.20578  0.31986  1.0000
  H   H127      1.0  0.44628  0.10722  0.27512  1.0000
  C   C167      1.0  0.07886  0.00248  0.25576  1.0000
  H   H128      1.0  0.08465  0.10489  0.09230  1.0000
  H   H129      1.0  0.06129  0.14461  0.30811  1.0000
  H   H130      1.0  0.18309  0.06365  0.12662  1.0000
  C   C168      1.0  0.31800  0.21677  0.29837  1.0000
  P   P6        1.0  0.33233  0.20875  0.27286  1.0000
  H   H131      1.0  0.99380  0.14643  0.22414  1.0000
  H   H132      1.0  0.09519  0.07191  0.21916  1.0000
  C   C169      1.0  0.14783  0.23851  0.11587  1.0000
  C   C170      1.0  0.00110  0.18330  0.31087  1.0000
  C   C171      1.0  0.04069  0.21864  0.38680  1.0000
  C   C172      1.0  0.08029  0.22606  0.46154  1.0000
  C   C173      1.0  0.14591  0.23723  0.06920  1.0000
  C   C174      1.0  0.29761  0.22849  0.29768  1.0000
  C   C175      1.0  0.07926  0.02543  0.25288  1.0000
  H   H133      1.0  0.47901  0.01027  0.33751  1.0000
  C   C176      1.0  0.22692  0.23611  0.24303  1.0000
  C   C177      1.0  0.34783  0.23271  0.26414  1.0000
  C   C178      1.0  0.00179  0.19439  0.29033  1.0000
  H   H134      1.0  0.22890  0.21950  0.15600  1.0000
  H   H135      1.0  0.25028  0.00762  0.06620  1.0000
  C   C179      1.0  0.48208  0.04462  0.17915  1.0000
  H   H136      1.0  0.05851  0.23624  0.41118  1.0000
  C   C180      1.0  0.41937  0.23359  0.34900  1.0000
  C   C181      1.0  0.09090  0.22873  0.48172  1.0000
  H   H137      1.0  0.02634  0.08037  0.12680  1.0000
  H   H138      1.0  0.02466  0.22089  0.39538  1.0000
  C   C182      1.0  0.48662  0.02220  0.17606  1.0000
  C   C183      1.0  0.24081  0.11727  0.00303  1.0000
  H   H139      1.0  0.99114  0.15014  0.18316  1.0000
  C   C184      1.0  0.21835  0.23307  0.15036  1.0000
  H   H140      1.0  0.28658  0.99143  0.24206  1.0000
  S   S21       1.0  0.46281  0.99161  0.26843  1.0000
  H   H141      1.0  0.10978  0.22954  0.20906  1.0000
  H   H142      1.0  0.21998  0.22343  0.11598  1.0000
  H   H143      1.0  0.32653  0.99754  0.03077  1.0000
  H   H144      1.0  0.28915  0.23814  0.35290  1.0000
  S   S22       1.0  0.26747  0.99334  0.11057  1.0000
  Fe  Fe11      1.0  0.99521  0.07173  0.30523  1.0000
  C   C185      1.0  0.26992  0.99753  0.21123  1.0000
  H   H145      1.0  0.08302  0.22905  0.31838  1.0000
  H   H146      1.0  0.46510  0.05089  0.17798  1.0000
  C   C186      1.0  0.05983  0.22713  0.39581  1.0000
  H   H147      1.0  0.14229  0.23371  0.23284  1.0000
  C   C187      1.0  0.99306  0.15595  0.37765  1.0000
  H   H148      1.0  0.48258  0.23633  0.45268  1.0000
  C   C188      1.0  0.11132  0.22287  0.29651  1.0000
  C   C189      1.0  0.26451  0.23875  0.22801  1.0000
  C   C190      1.0  0.18807  0.99327  0.06044  1.0000
  H   H149      1.0  0.14862  0.23917  0.13379  1.0000
  C   C191      1.0  0.08832  0.18958  0.48939  1.0000
  H   H150      1.0  0.14048  0.22873  0.48867  1.0000
  H   H151      1.0  0.06686  0.15733  0.70375  1.0000
  H   H152      1.0  0.39299  0.20199  0.67989  1.0000
  H   H153      1.0  0.47189  0.18322  0.52108  1.0000
  C   C192      1.0  0.07567  0.16769  0.82221  1.0000
  Fe  Fe12      1.0  0.99911  0.07403  0.69026  1.0000
  Fe  Fe13      1.0  0.03066  0.10669  0.71201  1.0000
  S   S23       1.0  0.03217  0.08829  0.67948  1.0000
  S   S24       1.0  0.05565  0.10883  0.74040  1.0000
  Fe  Fe14      1.0  0.46862  0.99052  0.76350  1.0000
  C   C193      1.0  0.37184  0.22579  0.57682  1.0000
  H   H154      1.0  0.99523  0.02676  0.73776  1.0000
  H   H155      1.0  0.10472  0.22182  0.65170  1.0000
  S   S25       1.0  0.01305  0.13624  0.69701  1.0000
  C   C194      1.0  0.99443  0.18572  0.59908  1.0000
  Fe  Fe15      1.0  0.46782  0.20187  0.61389  1.0000
  S   S26       1.0  0.43003  0.20947  0.61681  1.0000
  S   S27       1.0  0.47817  0.16871  0.59941  1.0000
  Fe  Fe16      1.0  0.27485  0.01420  0.87610  1.0000
  S   S28       1.0  0.24371  0.03556  0.86902  1.0000
  S   S29       1.0  0.30754  0.02455  0.88935  1.0000
  Fe  Fe17      1.0  0.16579  0.16551  0.79508  1.0000
  S   S30       1.0  0.20312  0.16908  0.79083  1.0000
  S   S31       1.0  0.14840  0.15224  0.76455  1.0000
  Fe  Fe18      1.0  0.16485  0.18971  0.84017  1.0000
  S   S32       1.0  0.20190  0.19478  0.83874  1.0000
  S   S33       1.0  0.13849  0.20313  0.86545  1.0000
  Fe  Fe19      1.0  0.19813  0.20393  0.80240  1.0000
  S   S34       1.0  0.03128  0.21906  0.49661  1.0000
  Fe  Fe20      1.0  0.20451  0.15930  0.82725  1.0000
  S   S35       1.0  0.23362  0.13738  0.83961  1.0000
  S   S36       1.0  0.16076  0.20088  0.80456  1.0000
  S   S37       1.0  0.16752  0.15355  0.83084  1.0000
  H   H156      1.0  0.33463  0.04244  0.92928  1.0000
  S   S38       1.0  0.02273  0.13105  0.62994  1.0000
  H   H157      1.0  0.24092  0.05686  0.74202  1.0000
  C   C195      1.0  0.00632  0.18706  0.57852  1.0000
  H   H158      1.0  0.14281  0.17821  0.72126  1.0000
  H   H159      1.0  0.10723  0.17118  0.70357  1.0000
  H   H160      1.0  0.12234  0.15966  0.85268  1.0000
  C   C196      1.0  0.24135  0.06383  0.86053  1.0000
  C   C197      1.0  0.22035  0.07259  0.85467  1.0000
  C   C198      1.0  0.21764  0.09493  0.84806  1.0000
  C   C199      1.0  0.23599  0.10881  0.84705  1.0000
  C   C200      1.0  0.25701  0.09997  0.85277  1.0000
  C   C201      1.0  0.25963  0.07775  0.85971  1.0000
  H   H161      1.0  0.20604  0.06205  0.85528  1.0000
  H   H162      1.0  0.20136  0.10141  0.84376  1.0000
  H   H163      1.0  0.27133  0.11050  0.85215  1.0000
  H   H164      1.0  0.27576  0.07146  0.86464  1.0000
  H   H165      1.0  0.13047  0.20024  0.76359  1.0000
  H   H166      1.0  0.10304  0.17819  0.78438  1.0000
  C   C202      1.0  0.04885  0.17041  0.76733  1.0000
  H   H167      1.0  0.01421  0.17519  0.81304  1.0000
  H   H168      1.0  0.27852  0.11300  0.91485  1.0000
  S   S39       1.0  0.99861  0.20814  0.55857  1.0000
  C   C203      1.0  0.09946  0.20568  0.69670  1.0000
  C   C204      1.0  0.06964  0.15528  0.68600  1.0000
  H   H169      1.0  0.15782  0.13748  0.54743  1.0000
  Fe  Fe21      1.0  0.32385  0.00137  0.86426  1.0000
  H   H170      1.0  0.45738  0.07723  0.66686  1.0000
  H   H171      1.0  0.99644  0.10948  0.58685  1.0000
  C   C205      1.0  0.08135  0.12141  0.74670  1.0000
  C   C206      1.0  0.09748  0.12663  0.73033  1.0000
  C   C207      1.0  0.11782  0.13585  0.73623  1.0000
  C   C208      1.0  0.12243  0.14014  0.75856  1.0000
  C   C209      1.0  0.10651  0.13457  0.77506  1.0000
  C   C210      1.0  0.08616  0.12521  0.76913  1.0000
  H   H172      1.0  0.09481  0.12274  0.71321  1.0000
  H   H173      1.0  0.13027  0.13934  0.72337  1.0000
  H   H174      1.0  0.10993  0.13731  0.79236  1.0000
  H   H175      1.0  0.07405  0.12079  0.78200  1.0000
  C   C211      1.0  0.10682  0.22732  0.69920  1.0000
  C   C212      1.0  0.44799  0.16071  0.70792  1.0000
  C   C213      1.0  0.46939  0.00099  0.66442  1.0000
  C   C214      1.0  0.39290  0.23173  0.63388  1.0000
  C   C215      1.0  0.02368  0.17169  0.57455  1.0000
  C   C216      1.0  0.04812  0.22812  0.65502  1.0000
  C   C217      1.0  0.07684  0.22842  0.78820  1.0000
  C   C218      1.0  0.99484  0.15993  0.52268  1.0000
  C   C219      1.0  0.01636  0.15337  0.61093  1.0000
  C   C220      1.0  0.36482  0.01219  0.74982  1.0000
  H   H176      1.0  0.33932  0.11085  0.94551  1.0000
  C   C221      1.0  0.05019  0.23775  0.55294  1.0000
  C   C222      1.0  0.08566  0.22000  0.54306  1.0000
  C   C223      1.0  0.23922  0.99791  0.82111  1.0000
  S   S40       1.0  0.31586  0.99951  0.94939  1.0000
  H   H177      1.0  0.38524  0.03721  0.81390  1.0000
  H   H178      1.0  0.42555  0.21227  0.50072  1.0000
  C   C224      1.0  0.12529  0.23834  0.52027  1.0000
  H   H179      1.0  0.48132  0.23800  0.49347  1.0000
  C   C225      1.0  0.10716  0.15580  0.84433  1.0000
  S   S41       1.0  0.35252  0.01544  0.84212  1.0000
  H   H180      1.0  0.04173  0.14303  0.58703  1.0000
  C   C226      1.0  0.00545  0.16096  0.78215  1.0000
  H   H181      1.0  0.27956  0.00659  0.77036  1.0000
  P   P7        1.0  0.10765  0.21453  0.52257  1.0000
  C   C227      1.0  0.43485  0.19772  0.69815  1.0000
  H   H182      1.0  0.20270  0.04173  0.97789  1.0000
  S   S42       1.0  0.47635  0.04799  0.70000  1.0000
  C   C228      1.0  0.28926  0.22206  0.61683  1.0000
  C   C229      1.0  0.35885  0.04599  0.77019  1.0000
  C   C230      1.0  0.38471  0.21539  0.68864  1.0000
  C   C231      1.0  0.43729  0.19247  0.67555  1.0000
  C   C232      1.0  0.44506  0.17158  0.66917  1.0000
  C   C233      1.0  0.45058  0.15575  0.68534  1.0000
  H   H183      1.0  0.00158  0.14662  0.74992  1.0000
  C   C234      1.0  0.44012  0.18161  0.71435  1.0000
  H   H184      1.0  0.02911  0.16719  0.51469  1.0000
  C   C235      1.0  0.13284  0.19190  0.71483  1.0000
  C   C236      1.0  0.06784  0.23426  0.53765  1.0000
  H   H185      1.0  0.43353  0.20474  0.66288  1.0000
  H   H186      1.0  0.44721  0.16784  0.65164  1.0000
  H   H187      1.0  0.45710  0.13972  0.68038  1.0000
  H   H188      1.0  0.28499  0.99578  0.71769  1.0000
  H   H189      1.0  0.18621  0.07945  0.97527  1.0000
  C   C237      1.0  0.42699  0.17637  0.54446  1.0000
  C   C238      1.0  0.43648  0.18973  0.56017  1.0000
  C   C239      1.0  0.11254  0.18801  0.70483  1.0000
  H   H190      1.0  0.42281  0.15954  0.54887  1.0000
  H   H191      1.0  0.43918  0.18338  0.57684  1.0000
  H   H192      1.0  0.11648  0.13737  0.54949  1.0000
  C   C240      1.0  0.12371  0.19018  0.53054  1.0000
  H   H193      1.0  0.33425  0.00339  0.79775  1.0000
  H   H194      1.0  0.03631  0.22539  0.75372  1.0000
  C   C241      1.0  0.01343  0.16185  0.50834  1.0000
  C   C242      1.0  0.15935  0.17112  0.53550  1.0000
  H   H195      1.0  0.29409  0.04448  0.93517  1.0000
  C   C243      1.0  0.25985  0.09232  0.97715  1.0000
  C   C244      1.0  0.23698  0.00996  0.94802  1.0000
  H   H196      1.0  0.37791  0.04363  0.73939  1.0000
  C   C245      1.0  0.05023  0.22716  0.57375  1.0000
  C   C246      1.0  0.07332  0.17356  0.67187  1.0000
  C   C247      1.0  0.11279  0.17097  0.53778  1.0000
  C   C248      1.0  0.24891  0.12593  0.90011  1.0000
  C   C249      1.0  0.22572  0.12504  0.89929  1.0000
  C   C250      1.0  0.21408  0.11050  0.91334  1.0000
  C   C251      1.0  0.22562  0.09700  0.92840  1.0000
  C   C252      1.0  0.24898  0.09782  0.92940  1.0000
  C   C253      1.0  0.26056  0.11232  0.91500  1.0000
  H   H197      1.0  0.40104  0.21518  0.74702  1.0000
  C   C254      1.0  0.02999  0.19326  0.69906  1.0000
  C   C255      1.0  0.23589  0.02358  0.92909  1.0000
  C   C256      1.0  0.24379  0.04507  0.92958  1.0000
  H   H198      1.0  0.25784  0.13678  0.88862  1.0000
  H   H199      1.0  0.21685  0.13527  0.88732  1.0000
  H   H200      1.0  0.19614  0.10958  0.91231  1.0000
  H   H201      1.0  0.21635  0.08582  0.93918  1.0000
  C   C257      1.0  0.14084  0.22031  0.88920  1.0000
  H   H202      1.0  0.22953  0.01734  0.91374  1.0000
  H   H203      1.0  0.24354  0.05503  0.91443  1.0000
  S   S43       1.0  0.99851  0.09084  0.72358  1.0000
  C   C258      1.0  0.06926  0.13410  0.67729  1.0000
  C   C259      1.0  0.07253  0.13095  0.65447  1.0000
  C   C260      1.0  0.07628  0.14902  0.64028  1.0000
  H   H204      1.0  0.06606  0.12012  0.68825  1.0000
  H   H205      1.0  0.07140  0.11458  0.64770  1.0000
  H   H206      1.0  0.07801  0.14655  0.62250  1.0000
  H   H207      1.0  0.43853  0.18513  0.73191  1.0000
  C   C261      1.0  0.27715  0.23552  0.63166  1.0000
  S   S44       1.0  0.29091  0.99273  0.84962  1.0000
  C   C262      1.0  0.06956  0.22070  0.66081  1.0000
  H   H208      1.0  0.10014  0.20013  0.56962  1.0000
  C   C263      1.0  0.27319  0.05019  0.75637  1.0000
  C   C264      1.0  0.29586  0.04586  0.75144  1.0000
  P   P8        1.0  0.26321  0.05048  0.78504  1.0000
  C   C265      1.0  0.25753  0.02270  0.79456  1.0000
  C   C266      1.0  0.28487  0.06198  0.80139  1.0000
  C   C267      1.0  0.29583  0.08103  0.79379  1.0000
  C   C268      1.0  0.31317  0.08957  0.80589  1.0000
  C   C269      1.0  0.31996  0.07895  0.82544  1.0000
  C   C270      1.0  0.30936  0.05986  0.83294  1.0000
  C   C271      1.0  0.29176  0.05148  0.82111  1.0000
  C   C272      1.0  0.24309  0.01925  0.81300  1.0000
  H   H209      1.0  0.15605  0.21629  0.72453  1.0000
  H   H210      1.0  0.32146  0.04282  0.72577  1.0000
  C   C273      1.0  0.09562  0.17237  0.83271  1.0000
  H   H211      1.0  0.39314  0.21344  0.55041  1.0000
  C   C274      1.0  0.23792  0.06730  0.78699  1.0000
  C   C275      1.0  0.21733  0.05816  0.78201  1.0000
  C   C276      1.0  0.19785  0.07128  0.78221  1.0000
  C   C277      1.0  0.19875  0.09362  0.78729  1.0000
  C   C278      1.0  0.21909  0.10277  0.79240  1.0000
  C   C279      1.0  0.23856  0.08970  0.79244  1.0000
  C   C280      1.0  0.05305  0.20935  0.84859  1.0000
  H   H212      1.0  0.99627  0.16391  0.54001  1.0000
  C   C281      1.0  0.03450  0.21666  0.73832  1.0000
  H   H213      1.0  0.06825  0.20547  0.59582  1.0000
  H   H214      1.0  0.30738  0.04277  0.76471  1.0000
  H   H215      1.0  0.29088  0.08935  0.77856  1.0000
  H   H216      1.0  0.32134  0.10443  0.80011  1.0000
  H   H217      1.0  0.33353  0.08539  0.83477  1.0000
  C   C282      1.0  0.39040  0.02006  0.81502  1.0000
  H   H218      1.0  0.28360  0.03690  0.82753  1.0000
  H   H219      1.0  0.23519  0.03312  0.82145  1.0000
  Fe  Fe22      1.0  0.01225  0.11733  0.66504  1.0000
  H   H220      1.0  0.40867  0.22074  0.78666  1.0000
  C   C283      1.0  0.41536  0.23344  0.62668  1.0000
  C   C284      1.0  0.14714  0.19007  0.52941  1.0000
  H   H221      1.0  0.21635  0.04096  0.77775  1.0000
  H   H222      1.0  0.18203  0.06419  0.77834  1.0000
  H   H223      1.0  0.18371  0.10388  0.78736  1.0000
  H   H224      1.0  0.21974  0.12003  0.79667  1.0000
  H   H225      1.0  0.25388  0.09728  0.79694  1.0000
  C   C285      1.0  0.41643  0.22282  0.75147  1.0000
  P   P9        1.0  0.26341  0.08075  0.94964  1.0000
  C   C286      1.0  0.07680  0.17026  0.64891  1.0000
  C   C287      1.0  0.01532  0.23314  0.83480  1.0000
  H   H226      1.0  0.45240  0.14839  0.72039  1.0000
  H   H227      1.0  0.36175  0.06340  0.77211  1.0000
  C   C288      1.0  0.02855  0.15499  0.59056  1.0000
  H   H228      1.0  0.48586  0.07362  0.60160  1.0000
  C   C289      1.0  0.01990  0.17151  0.79622  1.0000
  C   C290      1.0  0.03438  0.15976  0.75339  1.0000
  C   C291      1.0  0.25377  0.03937  0.96803  1.0000
  Fe  Fe23      1.0  0.48646  0.01818  0.72275  1.0000
  C   C292      1.0  0.09503  0.21054  0.49588  1.0000
  H   H229      1.0  0.07336  0.11281  0.83513  1.0000
  H   H230      1.0  0.25087  0.21165  0.77346  1.0000
  C   C293      1.0  0.47331  0.08392  0.67085  1.0000
  H   H231      1.0  0.03324  0.17253  0.55906  1.0000
  H   H232      1.0  0.29538  0.04948  0.69486  1.0000
  C   C294      1.0  0.30747  0.99267  0.97758  1.0000
  C   C295      1.0  0.30619  0.09773  0.94682  1.0000
  H   H233      1.0  0.00047  0.20769  0.74592  1.0000
  H   H234      1.0  0.34010  0.04291  0.80111  1.0000
  H   H235      1.0  0.07941  0.18394  0.63749  1.0000
  H   H236      1.0  0.22651  0.22004  0.87545  1.0000
  H   H237      1.0  0.02795  0.18399  0.68399  1.0000
  H   H238      1.0  0.09085  0.17523  0.49988  1.0000
  H   H239      1.0  0.41922  0.02439  0.79286  1.0000
  C   C296      1.0  0.42074  0.22586  0.77396  1.0000
  C   C297      1.0  0.36797  0.03483  0.75183  1.0000
  C   C298      1.0  0.02686  0.21923  0.81991  1.0000
  S   S45       1.0  0.20968  0.23644  0.78587  1.0000
  C   C299      1.0  0.14833  0.15214  0.54270  1.0000
  C   C300      1.0  0.34651  0.03451  0.78645  1.0000
  H   H240      1.0  0.04010  0.15469  0.73698  1.0000
  C   C301      1.0  0.33955  0.07659  0.93676  1.0000
  C   C302      1.0  0.42865  0.20637  0.51744  1.0000
  H   H241      1.0  0.06576  0.17323  0.76141  1.0000
  H   H242      1.0  0.24705  0.00725  0.98210  1.0000
  P   P10       1.0  0.07337  0.20089  0.68332  1.0000
  C   C303      1.0  0.04572  0.20703  0.82675  1.0000
  C   C304      1.0  0.37758  0.00538  0.82828  1.0000
  H   H243      1.0  0.05243  0.14190  0.81526  1.0000
  C   C305      1.0  0.11542  0.20821  0.77025  1.0000
  C   C306      1.0  0.25248  0.05325  0.94920  1.0000
  C   C307      1.0  0.07945  0.12949  0.83466  1.0000
  C   C308      1.0  0.42314  0.18466  0.52306  1.0000
  P   P11       1.0  0.06070  0.18922  0.80735  1.0000
  H   H244      1.0  0.02984  0.01710  0.70188  1.0000
  C   C309      1.0  0.06763  0.14611  0.82334  1.0000
  H   H245      1.0  0.06765  0.20047  0.85438  1.0000
  C   C310      1.0  0.08618  0.21037  0.56452  1.0000
  C   C311      1.0  0.09920  0.13434  0.84518  1.0000
  C   C312      1.0  0.48052  0.10349  0.65987  1.0000
  H   H246      1.0  0.10839  0.12149  0.85394  1.0000
  H   H247      1.0  0.09474  0.17064  0.53893  1.0000
  C   C313      1.0  0.04158  0.17680  0.78872  1.0000
  C   C314      1.0  0.39668  0.22965  0.70185  1.0000
  C   C315      1.0  0.29309  0.07918  0.94368  1.0000
  H   H248      1.0  0.45015  0.22117  0.56690  1.0000
  H   H249      1.0  0.47107  0.22285  0.68482  1.0000
  H   H250      1.0  0.99655  0.18684  0.71122  1.0000
  C   C316      1.0  0.12505  0.15207  0.54385  1.0000
  C   C317      1.0  0.26650  0.05333  0.71670  1.0000
  C   C318      1.0  0.28917  0.04945  0.71198  1.0000
  C   C319      1.0  0.36166  0.21838  0.68651  1.0000
  Fe  Fe24      1.0  0.30500  0.99519  0.91297  1.0000
  H   H251      1.0  0.04455  0.99449  0.76542  1.0000
  C   C320      1.0  0.01429  0.20675  0.73393  1.0000
  C   C321      1.0  0.01893  0.00418  0.69699  1.0000
  H   H252      1.0  0.25511  0.05632  0.70323  1.0000
  H   H253      1.0  0.35747  0.07550  0.93406  1.0000
  H   H254      1.0  0.17660  0.21981  0.88946  1.0000
  C   C322      1.0  0.08808  0.22785  0.64802  1.0000
  H   H255      1.0  0.38096  0.21711  0.58975  1.0000
  C   C323      1.0  0.08042  0.20563  0.79136  1.0000
  H   H256      1.0  0.47020  0.11149  0.64754  1.0000
  H   H257      1.0  0.28898  0.20431  0.61899  1.0000
  H   H258      1.0  0.10226  0.18885  0.83211  1.0000
  C   C324      1.0  0.44249  0.21127  0.55450  1.0000
  C   C325      1.0  0.09979  0.19566  0.78216  1.0000
  C   C326      1.0  0.48444  0.18418  0.50791  1.0000
  C   C327      1.0  0.30385  0.04571  0.72936  1.0000
  H   H259      1.0  0.48665  0.22265  0.53164  1.0000
  C   C328      1.0  0.35272  0.00045  0.76635  1.0000
  H   H260      1.0  0.15611  0.20454  0.52400  1.0000
  C   C329      1.0  0.99804  0.00986  0.68840  1.0000
  C   C330      1.0  0.05034  0.20325  0.70326  1.0000
  H   H261      1.0  0.26763  0.22831  0.64543  1.0000
  H   H262      1.0  0.23151  0.99310  0.94740  1.0000
  C   C331      1.0  0.48790  0.01271  0.65664  1.0000
  H   H263      1.0  0.23139  0.11343  0.96929  1.0000
  C   C332      1.0  0.43837  0.21991  0.53315  1.0000
  C   C333      1.0  0.24584  0.01790  0.96751  1.0000
  C   C334      1.0  0.30355  0.05925  0.93731  1.0000
  H   H264      1.0  0.31486  0.05148  0.84794  1.0000
  H   H265      1.0  0.29850  0.11316  0.95213  1.0000
  C   C335      1.0  0.24290  0.10803  0.98186  1.0000
  H   H266      1.0  0.41612  0.17418  0.51074  1.0000
  C   C336      1.0  0.37886  0.22386  0.55459  1.0000
  C   C337      1.0  0.32931  0.09647  0.94320  1.0000
  C   C338      1.0  0.26806  0.00444  0.78434  1.0000
  H   H267      1.0  0.38511  0.21583  0.63389  1.0000
  C   C339      1.0  0.25850  0.05365  0.73879  1.0000
  C   C340      1.0  0.32668  0.05800  0.93394  1.0000
  Fe  Fe25      1.0  0.00277  0.22086  0.52191  1.0000
  P   P12       1.0  0.42629  0.22537  0.70590  1.0000
  C   C341      1.0  0.14027  0.21341  0.71676  1.0000
  C   C342      1.0  0.12130  0.22836  0.90015  1.0000
  C   C343      1.0  0.16146  0.22599  0.89751  1.0000
  H   H268      1.0  0.17742  0.17117  0.53465  1.0000
  C   C344      1.0  0.05250  0.21489  0.72309  1.0000
  C   C345      1.0  0.12723  0.23113  0.70902  1.0000
  H   H269      1.0  0.10523  0.22408  0.89398  1.0000
  H   H270      1.0  0.04730  0.22502  0.88023  1.0000
  C   C346      1.0  0.40981  0.01285  0.80307  1.0000
  C   C347      1.0  0.06831  0.21365  0.57964  1.0000
  H   H271      1.0  0.45531  0.00976  0.67207  1.0000
  H   H272      1.0  0.35253  0.20742  0.67623  1.0000
  C   C348      1.0  0.34336  0.01187  0.78455  1.0000
  C   C349      1.0  0.43191  0.22953  0.73488  1.0000
  H   H273      1.0  0.31031  0.22080  0.58743  1.0000
  H   H274      1.0  0.03347  0.22248  0.66413  1.0000
  C   C350      1.0  0.01268  0.15511  0.76073  1.0000
  C   C351      1.0  0.30156  0.23150  0.59913  1.0000
  C   C352      1.0  0.04154  0.22336  0.86339  1.0000
  C   C353      1.0  0.01207  0.19499  0.71435  1.0000
  C   C354      1.0  0.99937  0.16908  0.61514  1.0000
  H   H275      1.0  0.48777  0.03044  0.65827  1.0000
  H   H276      1.0  0.30571  0.23821  0.53546  1.0000
  C   C355      1.0  0.36793  0.23589  0.53796  1.0000
  C   C356      1.0  0.11194  0.23089  0.76745  1.0000
  H   H277      1.0  0.22851  0.99553  0.83575  1.0000
  S   S46       1.0  0.46099  0.99127  0.72703  1.0000
  H   H278      1.0  0.26133  0.04491  0.98294  1.0000
  C   C357      1.0  0.41714  0.99083  0.80461  1.0000
  H   H279      1.0  0.06805  0.22244  0.72699  1.0000
  C   C358      1.0  0.27027  0.23372  0.75222  1.0000
  H   H280      1.0  0.37392  0.23493  0.52082  1.0000
  H   H281      1.0  0.28406  0.22210  0.75021  1.0000
  H   H282      1.0  0.32137  0.00043  0.73484  1.0000
  C   C359      1.0  0.22238  0.23590  0.88273  1.0000
  C   C360      1.0  0.16248  0.23931  0.91653  1.0000
  H   H283      1.0  0.03604  0.22917  0.58515  1.0000
  C   C361      1.0  0.02264  0.23518  0.85653  1.0000
  C   C362      1.0  0.48650  0.07287  0.68681  1.0000
  H   H284      1.0  0.37211  0.00387  0.73548  1.0000
  C   C363      1.0  0.25142  0.22772  0.76544  1.0000
  H   H285      1.0  0.02106  0.21801  0.80307  1.0000
  H   H286      1.0  0.23981  0.22880  0.91294  1.0000
  C   C364      1.0  0.35330  0.23911  0.58239  1.0000
  C   C365      1.0  0.44058  0.23547  0.78006  1.0000
  C   C366      1.0  0.35039  0.23561  0.69748  1.0000
  H   H287      1.0  0.06212  0.23661  0.79509  1.0000
  C   C367      1.0  0.48918  0.23910  0.53749  1.0000
  H   H288      1.0  0.33252  0.23798  0.69588  1.0000
  H   H289      1.0  0.44391  0.23782  0.79749  1.0000
  C   C368      1.0  0.45189  0.23901  0.74114  1.0000
  C   C369      1.0  0.46393  0.23906  0.68143  1.0000
  H   H290      1.0  0.08499  0.33138  0.42813  1.0000
  C   C370      1.0  0.38506  0.38137  0.00633  1.0000
  H   H291      1.0  0.43116  0.41484  0.25927  1.0000
  C   C371      1.0  0.17982  0.40116  0.42386  1.0000
  C   C372      1.0  0.15905  0.25625  0.21015  1.0000
  H   H292      1.0  0.21973  0.25526  0.27246  1.0000
  Fe  Fe26      1.0  0.30350  0.32647  0.33300  1.0000
  S   S47       1.0  0.30110  0.28960  0.33172  1.0000
  S   S48       1.0  0.29311  0.34932  0.36190  1.0000
  Fe  Fe27      1.0  0.32683  0.32912  0.28690  1.0000
  S   S49       1.0  0.32599  0.29208  0.28249  1.0000
  S   S50       1.0  0.34055  0.34960  0.25721  1.0000
  Fe  Fe28      1.0  0.29080  0.29439  0.29602  1.0000
  S   S51       1.0  0.25949  0.27777  0.28326  1.0000
  Fe  Fe29      1.0  0.33675  0.28935  0.31824  1.0000
  S   S52       1.0  0.35923  0.26073  0.33127  1.0000
  S   S53       1.0  0.29082  0.33148  0.29826  1.0000
  S   S54       1.0  0.33991  0.32616  0.32171  1.0000
  C   C373      1.0  0.25391  0.25923  0.26139  1.0000
  C   C374      1.0  0.35222  0.39357  0.02745  1.0000
  H   H293      1.0  0.19309  0.34803  0.12982  1.0000
  H   H294      1.0  0.32810  0.24087  0.23529  1.0000
  C   C375      1.0  0.21845  0.42654  0.42029  1.0000
  H   H295      1.0  0.47816  0.41901  0.17938  1.0000
  Fe  Fe30      1.0  0.36524  0.47400  0.21111  1.0000
  S   S55       1.0  0.35924  0.45273  0.24269  1.0000
  S   S56       1.0  0.37668  0.46340  0.17687  1.0000
  Fe  Fe31      1.0  0.12074  0.28934  0.02870  1.0000
  S   S57       1.0  0.09889  0.31993  0.02454  1.0000
  S   S58       1.0  0.12891  0.28049  0.06531  1.0000
  H   H296      1.0  0.26083  0.46630  0.33987  1.0000
  C   C376      1.0  0.09815  0.29761  0.47951  1.0000
  S   S59       1.0  0.00165  0.25196  0.46401  1.0000
  H   H297      1.0  0.26389  0.47843  0.44313  1.0000
  S   S60       1.0  0.43662  0.48939  0.16374  1.0000
  C   C377      1.0  0.42704  0.26893  0.33177  1.0000
  C   C378      1.0  0.17333  0.30894  0.16631  1.0000
  H   H298      1.0  0.17362  0.25686  0.22032  1.0000
  H   H299      1.0  0.05537  0.30653  0.44157  1.0000
  C   C379      1.0  0.19032  0.26754  0.13610  1.0000
  Fe  Fe32      1.0  0.07952  0.30057  0.99994  1.0000
  C   C380      1.0  0.29042  0.31717  0.23818  1.0000
  Fe  Fe33      1.0  0.20438  0.35947  0.46713  1.0000
  S   S61       1.0  0.21095  0.34510  0.43235  1.0000
  S   S62       1.0  0.17101  0.37604  0.47481  1.0000
  H   H300      1.0  0.12952  0.34561  0.16437  1.0000
  C   C381      1.0  0.04180  0.32922  0.46572  1.0000
  H   H301      1.0  0.22749  0.48401  0.07122  1.0000
  C   C382      1.0  0.42685  0.43925  0.23330  1.0000
  C   C383      1.0  0.32690  0.47871  0.00855  1.0000
  H   H302      1.0  0.39753  0.36873  0.00244  1.0000
  H   H303      1.0  0.10839  0.24893  0.17235  1.0000
  H   H304      1.0  0.07650  0.24038  0.45120  1.0000
  H   H305      1.0  0.22945  0.40237  0.39577  1.0000
  C   C384      1.0  0.27061  0.34707  0.38183  1.0000
  C   C385      1.0  0.25244  0.33354  0.37857  1.0000
  C   C386      1.0  0.23446  0.33315  0.39425  1.0000
  C   C387      1.0  0.23447  0.34603  0.41355  1.0000
  C   C388      1.0  0.25271  0.35947  0.41691  1.0000
  C   C389      1.0  0.27061  0.35999  0.40112  1.0000
  H   H306      1.0  0.25212  0.32356  0.36383  1.0000
  H   H307      1.0  0.22047  0.32271  0.39143  1.0000
  H   H308      1.0  0.25300  0.36950  0.43163  1.0000
  H   H309      1.0  0.28469  0.37031  0.40394  1.0000
  C   C390      1.0  0.38849  0.25709  0.33541  1.0000
  C   C391      1.0  0.40403  0.27284  0.32855  1.0000
  H   H310      1.0  0.23893  0.30603  0.24886  1.0000
  H   H311      1.0  0.39833  0.28805  0.32074  1.0000
  P   P13       1.0  0.18176  0.28312  0.17910  1.0000
  C   C392      1.0  0.34517  0.37844  0.25353  1.0000
  C   C393      1.0  0.34339  0.39320  0.27118  1.0000
  C   C394      1.0  0.34767  0.41580  0.26750  1.0000
  C   C395      1.0  0.35367  0.42404  0.24615  1.0000
  C   C396      1.0  0.35518  0.40933  0.22844  1.0000
  C   C397      1.0  0.35098  0.38671  0.23214  1.0000
  H   H312      1.0  0.33900  0.38715  0.28773  1.0000
  H   H313      1.0  0.34647  0.42697  0.28134  1.0000
  H   H314      1.0  0.35970  0.41535  0.21191  1.0000
  H   H315      1.0  0.35237  0.37551  0.21833  1.0000
  C   C398      1.0  0.19704  0.39523  0.40892  1.0000
  C   C399      1.0  0.12474  0.42232  0.48103  1.0000
  H   H316      1.0  0.12981  0.31391  0.47561  1.0000
  C   C400      1.0  0.13874  0.25645  0.08005  1.0000
  C   C401      1.0  0.13973  0.25690  0.10349  1.0000
  H   H317      1.0  0.47170  0.41013  0.25213  1.0000
  C   C402      1.0  0.11575  0.31071  0.48668  1.0000
  C   C403      1.0  0.37016  0.41844  0.00092  1.0000
  C   C404      1.0  0.14136  0.24297  0.21729  1.0000
  H   H318      1.0  0.28659  0.25972  0.24577  1.0000
  H   H319      1.0  0.20461  0.31297  0.14803  1.0000
  C   C405      1.0  0.44878  0.24812  0.44911  1.0000
  C   C406      1.0  0.20114  0.43217  0.43555  1.0000
  C   C407      1.0  0.36517  0.23976  0.27733  1.0000
  H   H320      1.0  0.03287  0.26220  0.04548  1.0000
  H   H321      1.0  0.19585  0.38038  0.39928  1.0000
  H   H322      1.0  0.46805  0.45840  0.19883  1.0000
  C   C408      1.0  0.42802  0.25536  0.48350  1.0000
  H   H323      1.0  0.42768  0.46300  0.20622  1.0000
  H   H324      1.0  0.13425  0.27164  0.11210  1.0000
  P   P14       1.0  0.24313  0.44324  0.41791  1.0000
  C   C409      1.0  0.30818  0.31429  0.22293  1.0000
  C   C410      1.0  0.20011  0.29007  0.20115  1.0000
  H   H325      1.0  0.27030  0.40790  0.39776  1.0000
  C   C411      1.0  0.05660  0.32280  0.44857  1.0000
  H   H326      1.0  0.99864  0.30110  0.03118  1.0000
  C   C412      1.0  0.21629  0.40778  0.40715  1.0000
  H   H327      1.0  0.14078  0.31067  0.18283  1.0000
  H   H328      1.0  0.28758  0.46280  0.11349  1.0000
  S   S63       1.0  0.14507  0.30088  0.00176  1.0000
  C   C413      1.0  0.19519  0.26533  0.15878  1.0000
  C   C414      1.0  0.10797  0.39018  0.46519  1.0000
  C   C415      1.0  0.43937  0.42438  0.24615  1.0000
  H   H329      1.0  0.19806  0.31058  0.25377  1.0000
  C   C416      1.0  0.99484  0.30120  0.01370  1.0000
  H   H330      1.0  0.32882  0.32971  0.19753  1.0000
  H   H331      1.0  0.02920  0.31790  0.47185  1.0000
  H   H332      1.0  0.23089  0.28262  0.18270  1.0000
  S   S64       1.0  0.20932  0.43560  0.00964  1.0000
  C   C417      1.0  0.29838  0.40570  0.01883  1.0000
  C   C418      1.0  0.22815  0.30210  0.23536  1.0000
  H   H333      1.0  0.35016  0.27323  0.22412  1.0000
  C   C419      1.0  0.29628  0.42167  0.17805  1.0000
  C   C420      1.0  0.30742  0.43721  0.19023  1.0000
  C   C421      1.0  0.30741  0.43558  0.21344  1.0000
  C   C422      1.0  0.29643  0.41833  0.22456  1.0000
  C   C423      1.0  0.28486  0.40282  0.21246  1.0000
  C   C424      1.0  0.28503  0.40452  0.18908  1.0000
  P   P15       1.0  0.26978  0.38085  0.22645  1.0000
  C   C425      1.0  0.26529  0.38695  0.25563  1.0000
  C   C426      1.0  0.24332  0.37845  0.21304  1.0000
  C   C427      1.0  0.23139  0.39755  0.20652  1.0000
  C   C428      1.0  0.21107  0.39590  0.19584  1.0000
  C   C429      1.0  0.20250  0.37519  0.19158  1.0000
  C   C430      1.0  0.21427  0.35612  0.19798  1.0000
  C   C431      1.0  0.23460  0.35771  0.20862  1.0000
  C   C432      1.0  0.24447  0.39458  0.26395  1.0000
  C   C433      1.0  0.24117  0.39825  0.28678  1.0000
  C   C434      1.0  0.25861  0.39439  0.30141  1.0000
  C   C435      1.0  0.27943  0.38713  0.29320  1.0000
  C   C436      1.0  0.28273  0.38333  0.27044  1.0000
  C   C437      1.0  0.28516  0.35498  0.22501  1.0000
  C   C438      1.0  0.27904  0.33745  0.23932  1.0000
  C   C439      1.0  0.30311  0.35202  0.20980  1.0000
  H   H334      1.0  0.29645  0.42300  0.16002  1.0000
  H   H335      1.0  0.31620  0.45046  0.18168  1.0000
  H   H336      1.0  0.31626  0.44756  0.22283  1.0000
  H   H337      1.0  0.29717  0.41725  0.24251  1.0000
  H   H338      1.0  0.27649  0.39259  0.17938  1.0000
  H   H339      1.0  0.23785  0.41372  0.20966  1.0000
  H   H340      1.0  0.20201  0.41071  0.19079  1.0000
  H   H341      1.0  0.18679  0.37391  0.18326  1.0000
  H   H342      1.0  0.20769  0.34006  0.19461  1.0000
  H   H343      1.0  0.24345  0.34270  0.21315  1.0000
  H   H344      1.0  0.23068  0.39744  0.25301  1.0000
  H   H345      1.0  0.22501  0.40380  0.29319  1.0000
  H   H346      1.0  0.25596  0.39671  0.31915  1.0000
  H   H347      1.0  0.29294  0.38385  0.30452  1.0000
  H   H348      1.0  0.29883  0.37718  0.26444  1.0000
  H   H349      1.0  0.26555  0.33949  0.25152  1.0000
  H   H350      1.0  0.30871  0.36541  0.19911  1.0000
  H   H351      1.0  0.38093  0.28520  0.24746  1.0000
  H   H352      1.0  0.25523  0.29214  0.21328  1.0000
  H   H353      1.0  0.09875  0.29138  0.46274  1.0000
  Fe  Fe34      1.0  0.35076  0.48779  0.16383  1.0000
  H   H354      1.0  0.27128  0.24472  0.31666  1.0000
  C   C440      1.0  0.26289  0.45364  0.35262  1.0000
  C   C441      1.0  0.36912  0.46923  0.06854  1.0000
  C   C442      1.0  0.43732  0.45151  0.21631  1.0000
  H   H355      1.0  0.33957  0.39029  0.04022  1.0000
  C   C443      1.0  0.37195  0.27037  0.25187  1.0000
  C   C444      1.0  0.24847  0.48480  0.43640  1.0000
  C   C445      1.0  0.18177  0.33988  0.14152  1.0000
  H   H356      1.0  0.32192  0.42653  0.07138  1.0000
  H   H357      1.0  0.48062  0.48600  0.14342  1.0000
  C   C446      1.0  0.27780  0.41799  0.36408  1.0000
  C   C447      1.0  0.47296  0.43391  0.22481  1.0000
  C   C448      1.0  0.36056  0.46142  0.04880  1.0000
  C   C449      1.0  0.28588  0.43581  0.43413  1.0000
  H   H358      1.0  0.36764  0.36132  0.03078  1.0000
  H   H359      1.0  0.28579  0.30383  0.24949  1.0000
  S   S65       1.0  0.26185  0.46701  0.99648  1.0000
  C   C450      1.0  0.46674  0.24338  0.48452  1.0000
  C   C451      1.0  0.43493  0.24933  0.34205  1.0000
  C   C452      1.0  0.28890  0.43867  0.03953  1.0000
  H   H360      1.0  0.32632  0.48351  0.02583  1.0000
  H   H361      1.0  0.29336  0.45458  0.04577  1.0000
  H   H362      1.0  0.13129  0.43877  0.47908  1.0000
  H   H363      1.0  0.31886  0.42994  0.44661  1.0000
  C   C453      1.0  0.18861  0.39506  0.01254  1.0000
  H   H364      1.0  0.38220  0.48128  0.06794  1.0000
  H   H365      1.0  0.20257  0.44608  0.44648  1.0000
  C   C454      1.0  0.18819  0.31997  0.15175  1.0000
  C   C455      1.0  0.07348  0.33689  0.44115  1.0000
  C   C456      1.0  0.15829  0.26749  0.18952  1.0000
  H   H366      1.0  0.20203  0.39042  0.02342  1.0000
  C   C457      1.0  0.36818  0.37718  0.02225  1.0000
  C   C458      1.0  0.23731  0.29421  0.21532  1.0000
  C   C459      1.0  0.26998  0.25323  0.24514  1.0000
  C   C460      1.0  0.19108  0.29876  0.22104  1.0000
  C   C461      1.0  0.04367  0.34987  0.47534  1.0000
  C   C462      1.0  0.31455  0.33170  0.20878  1.0000
  H   H367      1.0  0.17873  0.28014  0.13027  1.0000
  S   S66       1.0  0.04093  0.30073  0.00706  1.0000
  P   P16       1.0  0.33282  0.43551  0.02407  1.0000
  H   H368      1.0  0.09526  0.24518  0.48648  1.0000
  C   C463      1.0  0.18187  0.41962  0.43717  1.0000
  C   C464      1.0  0.26064  0.41175  0.03323  1.0000
  C   C465      1.0  0.34382  0.44615  0.08997  1.0000
  C   C466      1.0  0.16060  0.34906  0.14598  1.0000
  H   H369      1.0  0.99408  0.25979  0.03379  1.0000
  C   C467      1.0  0.26820  0.42085  0.38532  1.0000
  C   C468      1.0  0.25316  0.45650  0.37387  1.0000
  H   H370      1.0  0.28716  0.40289  0.36032  1.0000
  H   H371      1.0  0.16524  0.39098  0.42564  1.0000
  H   H372      1.0  0.44944  0.24697  0.43109  1.0000
  H   H373      1.0  0.16881  0.42388  0.44926  1.0000
  C   C469      1.0  0.27637  0.39873  0.02158  1.0000
  H   H374      1.0  0.14145  0.34265  0.37897  1.0000
  H   H375      1.0  0.21215  0.24517  0.18333  1.0000
  C   C470      1.0  0.23529  0.47166  0.42319  1.0000
  C   C471      1.0  0.22339  0.28849  0.19814  1.0000
  C   C472      1.0  0.01258  0.30131  0.99775  1.0000
  C   C473      1.0  0.26284  0.43390  0.43839  1.0000
  C   C474      1.0  0.33504  0.43848  0.07029  1.0000
  S   S67       1.0  0.46432  0.24540  0.34533  1.0000
  C   C475      1.0  0.33066  0.45663  0.00274  1.0000
  H   H376      1.0  0.29214  0.44259  0.41845  1.0000
  C   C476      1.0  0.06042  0.36409  0.46787  1.0000
  H   H377      1.0  0.27128  0.38354  0.01419  1.0000
  H   H378      1.0  0.17304  0.36309  0.01547  1.0000
  H   H379      1.0  0.19520  0.25403  0.10331  1.0000
  H   H380      1.0  0.20461  0.47052  0.40513  1.0000
  S   S68       1.0  0.10072  0.26950  0.00521  1.0000
  C   C477      1.0  0.13992  0.26471  0.17593  1.0000
  H   H381      1.0  0.11560  0.42049  0.44708  1.0000
  C   C478      1.0  0.35450  0.26365  0.23879  1.0000
  Fe  Fe35      1.0  0.22423  0.46954  0.99939  1.0000
  H   H382      1.0  0.41434  0.25866  0.45070  1.0000
  H   H383      1.0  0.33719  0.44055  0.10600  1.0000
  C   C479      1.0  0.02530  0.25332  0.07977  1.0000
  H   H384      1.0  0.31735  0.29877  0.22254  1.0000
  H   H385      1.0  0.17320  0.30077  0.22345  1.0000
  C   C480      1.0  0.26690  0.43174  0.04214  1.0000
  C   C481      1.0  0.29547  0.47592  0.10401  1.0000
  C   C482      1.0  0.46236  0.42173  0.24199  1.0000
  C   C483      1.0  0.23235  0.25065  0.26010  1.0000
  H   H386      1.0  0.27304  0.47380  0.07649  1.0000
  C   C484      1.0  0.30489  0.42553  0.02822  1.0000
  H   H387      1.0  0.16359  0.26189  0.48467  1.0000
  H   H388      1.0  0.24340  0.40676  0.03475  1.0000
  C   C485      1.0  0.11589  0.41176  0.46285  1.0000
  C   C486      1.0  0.38610  0.40202  0.99575  1.0000
  C   C487      1.0  0.20506  0.30453  0.23816  1.0000
  H   H389      1.0  0.06168  0.38002  0.47555  1.0000
  C   C488      1.0  0.46025  0.44888  0.21213  1.0000
  S   S69       1.0  0.22314  0.38463  0.48580  1.0000
  C   C489      1.0  0.28723  0.48206  0.08291  1.0000
  H   H390      1.0  0.23766  0.42516  0.46327  1.0000
  C   C490      1.0  0.30111  0.42883  0.45012  1.0000
  C   C491      1.0  0.29347  0.42028  0.47061  1.0000
  C   C492      1.0  0.15349  0.33685  0.43370  1.0000
  C   C493      1.0  0.15581  0.33489  0.41064  1.0000
  C   C494      1.0  0.13983  0.34456  0.39684  1.0000
  C   C495      1.0  0.12187  0.35668  0.40611  1.0000
  C   C496      1.0  0.12013  0.35968  0.42926  1.0000
  C   C497      1.0  0.13565  0.34904  0.44298  1.0000
  P   P17       1.0  0.09748  0.37582  0.44158  1.0000
  C   C498      1.0  0.08700  0.39565  0.42143  1.0000
  C   C499      1.0  0.07559  0.35760  0.45086  1.0000
  C   C500      1.0  0.37718  0.25849  0.27121  1.0000
  H   H391      1.0  0.24371  0.47150  0.37731  1.0000
  C   C501      1.0  0.12305  0.24048  0.20377  1.0000
  C   C502      1.0  0.25531  0.42600  0.45928  1.0000
  S   S70       1.0  0.05787  0.27615  0.48333  1.0000
  C   C503      1.0  0.06397  0.39953  0.41949  1.0000
  C   C504      1.0  0.05600  0.41489  0.40384  1.0000
  C   C505      1.0  0.07093  0.42651  0.39006  1.0000
  C   C506      1.0  0.09387  0.42279  0.39189  1.0000
  C   C507      1.0  0.10189  0.40743  0.40750  1.0000
  H   H392      1.0  0.31008  0.39582  0.00904  1.0000
  C   C508      1.0  0.35280  0.41414  0.01644  1.0000
  C   C509      1.0  0.17209  0.37945  0.00810  1.0000
  C   C510      1.0  0.27060  0.41899  0.47522  1.0000
  H   H393      1.0  0.16579  0.32920  0.44443  1.0000
  H   H394      1.0  0.25449  0.44222  0.05040  1.0000
  C   C511      1.0  0.18789  0.41654  0.00315  1.0000
  H   H395      1.0  0.10946  0.36370  0.39519  1.0000
  H   H396      1.0  0.13416  0.35025  0.46089  1.0000
  C   C512      1.0  0.12233  0.25133  0.18309  1.0000
  H   H397      1.0  0.43884  0.28126  0.32634  1.0000
  C   C513      1.0  0.34316  0.44628  0.04955  1.0000
  H   H398      1.0  0.17003  0.32585  0.40357  1.0000
  H   H399      1.0  0.40901  0.44124  0.23643  1.0000
  H   H400      1.0  0.05207  0.39075  0.42997  1.0000
  H   H401      1.0  0.03821  0.41779  0.40243  1.0000
  H   H402      1.0  0.06472  0.43843  0.37798  1.0000
  H   H403      1.0  0.10546  0.43183  0.38124  1.0000
  H   H404      1.0  0.11974  0.40479  0.40878  1.0000
  H   H405      1.0  0.19135  0.48412  0.09227  1.0000
  H   H406      1.0  0.28274  0.43218  0.33127  1.0000
  C   C514      1.0  0.25573  0.44007  0.39039  1.0000
  H   H407      1.0  0.48557  0.42486  0.13919  1.0000
  C   C515      1.0  0.14595  0.33849  0.16096  1.0000
  H   H408      1.0  0.13943  0.27243  0.15954  1.0000
  Fe  Fe36      1.0  0.12216  0.33016  0.99622  1.0000
  C   C516      1.0  0.27522  0.43442  0.34773  1.0000
  H   H409      1.0  0.15547  0.36428  0.13769  1.0000
  C   C517      1.0  0.10905  0.37947  0.48608  1.0000
  S   S71       1.0  0.32420  0.47694  0.13921  1.0000
  C   C518      1.0  0.15232  0.31856  0.17123  1.0000
  H   H410      1.0  0.39008  0.26417  0.28190  1.0000
  H   H411      1.0  0.01269  0.24470  0.11261  1.0000
  C   C519      1.0  0.46757  0.24236  0.46127  1.0000
  C   C520      1.0  0.34221  0.24510  0.24506  1.0000
  C   C521      1.0  0.36072  0.46163  0.08911  1.0000
  H   H412      1.0  0.04245  0.25448  0.08480  1.0000
  H   H413      1.0  0.30525  0.41467  0.48294  1.0000
  C   C522      1.0  0.01995  0.25756  0.05760  1.0000
  C   C523      1.0  0.21514  0.48042  0.41516  1.0000
  C   C524      1.0  0.42902  0.25467  0.46020  1.0000
  H   H414      1.0  0.37167  0.43454  0.99304  1.0000
  H   H415      1.0  0.36703  0.46795  0.10446  1.0000
  C   C525      1.0  0.19960  0.25270  0.12069  1.0000
  H   H416      1.0  0.36742  0.46729  0.03298  1.0000
  C   C526      1.0  0.99787  0.25626  0.05103  1.0000
  C   C527      1.0  0.15437  0.38506  0.99422  1.0000
  H   H417      1.0  0.30170  0.48017  0.37876  1.0000
  C   C528      1.0  0.00852  0.24784  0.09540  1.0000
  H   H418      1.0  0.00242  0.34795  0.01279  1.0000
  C   C529      1.0  0.20899  0.24779  0.16582  1.0000
  C   C530      1.0  0.31393  0.48641  0.11288  1.0000
  H   H419      1.0  0.10355  0.36267  0.48834  1.0000
  H   H420      1.0  0.48981  0.47328  0.23896  1.0000
  H   H421      1.0  0.11428  0.24018  0.29328  1.0000
  H   H422      1.0  0.03231  0.35468  0.48880  1.0000
  H   H423      1.0  0.18210  0.40888  0.64109  1.0000
  H   H424      1.0  0.30725  0.45505  0.90116  1.0000
  Fe  Fe37      1.0  0.02634  0.25575  0.49159  1.0000
  H   H425      1.0  0.25816  0.40373  0.90632  1.0000
  H   H426      1.0  0.03615  0.24824  0.54846  1.0000
  C   C531      1.0  0.07966  0.30045  0.51552  1.0000
  H   H427      1.0  0.25099  0.37079  0.61148  1.0000
  H   H428      1.0  0.11914  0.38152  0.52010  1.0000
  S   S72       1.0  0.10148  0.31276  0.97099  1.0000
  S   S73       1.0  0.14565  0.26448  0.95130  1.0000
  Fe  Fe38      1.0  0.36584  0.46733  0.78745  1.0000
  S   S74       1.0  0.38237  0.47318  0.82013  1.0000
  S   S75       1.0  0.35976  0.43075  0.78071  1.0000
  C   C532      1.0  0.17003  0.48204  0.49374  1.0000
  H   H429      1.0  0.18890  0.27189  0.82062  1.0000
  H   H430      1.0  0.41675  0.47568  0.70493  1.0000
  H   H431      1.0  0.15371  0.36382  0.88736  1.0000
  H   H432      1.0  0.02871  0.24826  0.63256  1.0000
  H   H433      1.0  0.46423  0.24407  0.72871  1.0000
  Fe  Fe39      1.0  0.31599  0.33910  0.69352  1.0000
  S   S76       1.0  0.28360  0.32073  0.69375  1.0000
  S   S77       1.0  0.31586  0.37544  0.70390  1.0000
  Fe  Fe40      1.0  0.34106  0.30218  0.66728  1.0000
  S   S78       1.0  0.31037  0.28176  0.66552  1.0000
  S   S79       1.0  0.37599  0.29511  0.65168  1.0000
  Fe  Fe41      1.0  0.29176  0.31360  0.65765  1.0000
  S   S80       1.0  0.26215  0.31590  0.63424  1.0000
  Fe  Fe42      1.0  0.30405  0.29025  0.70166  1.0000
  S   S81       1.0  0.29608  0.26136  0.72566  1.0000
  S   S82       1.0  0.32279  0.33359  0.65689  1.0000
  S   S83       1.0  0.33618  0.30905  0.70398  1.0000
  Fe  Fe43      1.0  0.21804  0.36191  0.51575  1.0000
  S   S84       1.0  0.24947  0.35583  0.53608  1.0000
  S   S85       1.0  0.18555  0.37846  0.52644  1.0000
  C   C533      1.0  0.11791  0.39011  0.50420  1.0000
  S   S86       1.0  0.99896  0.25799  0.51823  1.0000
  C   C534      1.0  0.25944  0.32632  0.60657  1.0000
  C   C535      1.0  0.27728  0.33540  0.59434  1.0000
  C   C536      1.0  0.27387  0.34446  0.57286  1.0000
  C   C537      1.0  0.25268  0.34446  0.56332  1.0000
  C   C538      1.0  0.23496  0.33511  0.57543  1.0000
  C   C539      1.0  0.23838  0.32602  0.59687  1.0000
  H   H434      1.0  0.29361  0.33567  0.60151  1.0000
  H   H435      1.0  0.28772  0.35158  0.56360  1.0000
  H   H436      1.0  0.21863  0.33483  0.56828  1.0000
  H   H437      1.0  0.22453  0.31887  0.60610  1.0000
  C   C540      1.0  0.25347  0.26943  0.74451  1.0000
  C   C541      1.0  0.27147  0.25458  0.74162  1.0000
  H   H438      1.0  0.42104  0.24750  0.56966  1.0000
  H   H439      1.0  0.25409  0.28554  0.73657  1.0000
  C   C542      1.0  0.47551  0.27604  0.54533  1.0000
  C   C543      1.0  0.34876  0.41595  0.75825  1.0000
  C   C544      1.0  0.33692  0.42634  0.74116  1.0000
  C   C545      1.0  0.32734  0.41367  0.72451  1.0000
  C   C546      1.0  0.32970  0.39051  0.72451  1.0000
  C   C547      1.0  0.34204  0.38017  0.74128  1.0000
  C   C548      1.0  0.35133  0.39281  0.75812  1.0000
  H   H440      1.0  0.33474  0.44408  0.74103  1.0000
  H   H441      1.0  0.31784  0.42188  0.71165  1.0000
  H   H442      1.0  0.34397  0.36241  0.74159  1.0000
  H   H443      1.0  0.36042  0.38458  0.77125  1.0000
  C   C549      1.0  0.09715  0.31379  0.52260  1.0000
  C   C550      1.0  0.14873  0.33907  0.91298  1.0000
  C   C551      1.0  0.39035  0.27102  0.64170  1.0000
  C   C552      1.0  0.41253  0.27284  0.63372  1.0000
  Fe  Fe44      1.0  0.12366  0.28287  0.97767  1.0000
  H   H444      1.0  0.42020  0.28880  0.63336  1.0000
  C   C553      1.0  0.48949  0.47689  0.80373  1.0000
  H   H445      1.0  0.09658  0.32001  0.53938  1.0000
  H   H446      1.0  0.21492  0.37344  0.64290  1.0000
  H   H447      1.0  0.13988  0.35010  0.92439  1.0000
  H   H448      1.0  0.48033  0.36471  0.67932  1.0000
  H   H449      1.0  0.17054  0.33977  0.96994  1.0000
  H   H450      1.0  0.46245  0.28860  0.54532  1.0000
  C   C554      1.0  0.25727  0.38333  0.62208  1.0000
  C   C555      1.0  0.20514  0.36949  0.62866  1.0000
  C   C556      1.0  0.26459  0.28844  0.53561  1.0000
  C   C557      1.0  0.47172  0.25481  0.53739  1.0000
  H   H451      1.0  0.27994  0.42730  0.66119  1.0000
  C   C558      1.0  0.38518  0.24697  0.71275  1.0000
  C   C559      1.0  0.41568  0.26192  0.56029  1.0000
  H   H452      1.0  0.22954  0.42708  0.84891  1.0000
  H   H453      1.0  0.48799  0.45918  0.72874  1.0000
  C   C560      1.0  0.25351  0.41623  0.96934  1.0000
  C   C561      1.0  0.42132  0.46629  0.71965  1.0000
  C   C562      1.0  0.24453  0.40705  0.56875  1.0000
  H   H454      1.0  0.25292  0.30237  0.53580  1.0000
  C   C563      1.0  0.45616  0.24200  0.76366  1.0000
  C   C564      1.0  0.42508  0.25417  0.62659  1.0000
  C   C565      1.0  0.44440  0.46067  0.75179  1.0000
  H   H455      1.0  0.32573  0.46244  0.94646  1.0000
  H   H456      1.0  0.47808  0.28713  0.65537  1.0000
  S   S87       1.0  0.17841  0.43686  0.49484  1.0000
  C   C566      1.0  0.21161  0.27674  0.90146  1.0000
  C   C567      1.0  0.20328  0.27158  0.88059  1.0000
  H   H457      1.0  0.45724  0.46288  0.68814  1.0000
  P   P18       1.0  0.18680  0.29156  0.86519  1.0000
  C   C568      1.0  0.17178  0.31021  0.88381  1.0000
  C   C569      1.0  0.20508  0.30681  0.84640  1.0000
  C   C570      1.0  0.22792  0.30819  0.85061  1.0000
  C   C571      1.0  0.24218  0.31914  0.83550  1.0000
  C   C572      1.0  0.23376  0.32881  0.81612  1.0000
  C   C573      1.0  0.21100  0.32781  0.81197  1.0000
  C   C574      1.0  0.19668  0.31697  0.82709  1.0000
  C   C575      1.0  0.20482  0.38349  0.60980  1.0000
  C   C576      1.0  0.42425  0.26640  0.53868  1.0000
  C   C577      1.0  0.16804  0.33239  0.87766  1.0000
  C   C578      1.0  0.16688  0.27655  0.84960  1.0000
  C   C579      1.0  0.14608  0.27114  0.85924  1.0000
  C   C580      1.0  0.44701  0.25011  0.49589  1.0000
  C   C581      1.0  0.22602  0.41614  0.58038  1.0000
  C   C582      1.0  0.17991  0.35836  0.59220  1.0000
  C   C583      1.0  0.17256  0.26902  0.82812  1.0000
  H   H458      1.0  0.12551  0.24127  0.81728  1.0000
  S   S88       1.0  0.20134  0.33572  0.49633  1.0000
  C   C584      1.0  0.18663  0.46522  0.49304  1.0000
  H   H459      1.0  0.20779  0.29252  0.90887  1.0000
  H   H460      1.0  0.06587  0.29664  0.52679  1.0000
  H   H461      1.0  0.23489  0.30037  0.86525  1.0000
  H   H462      1.0  0.25990  0.31958  0.83849  1.0000
  H   H463      1.0  0.24492  0.33676  0.80411  1.0000
  H   H464      1.0  0.20453  0.33502  0.79676  1.0000
  H   H465      1.0  0.17913  0.31608  0.82348  1.0000
  H   H466      1.0  0.17374  0.33865  0.86160  1.0000
  C   C585      1.0  0.28055  0.28631  0.55205  1.0000
  C   C586      1.0  0.13111  0.25875  0.84744  1.0000
  H   H467      1.0  0.26752  0.26882  0.63997  1.0000
  C   C587      1.0  0.13679  0.25158  0.82602  1.0000
  H   H468      1.0  0.44017  0.29788  0.66973  1.0000
  Fe  Fe45      1.0  0.16889  0.35349  0.50485  1.0000
  C   C588      1.0  0.15283  0.25968  0.49928  1.0000
  C   C589      1.0  0.18066  0.34434  0.61085  1.0000
  C   C590      1.0  0.15372  0.40651  0.98478  1.0000
  H   H469      1.0  0.34129  0.25879  0.53049  1.0000
  H   H470      1.0  0.33162  0.43370  0.97546  1.0000
  C   C591      1.0  0.23658  0.40314  0.93595  1.0000
  C   C592      1.0  0.32991  0.45077  0.98026  1.0000
  P   P19       1.0  0.21205  0.39365  0.92266  1.0000
  C   C593      1.0  0.20662  0.36667  0.93458  1.0000
  C   C594      1.0  0.18939  0.41328  0.92724  1.0000
  C   C595      1.0  0.16745  0.40746  0.92281  1.0000
  Fe  Fe46      1.0  0.18977  0.39994  0.49549  1.0000
  H   H471      1.0  0.36340  0.24869  0.64731  1.0000
  C   C596      1.0  0.41255  0.43756  0.74679  1.0000
  C   C597      1.0  0.19358  0.43492  0.93379  1.0000
  C   C598      1.0  0.22151  0.34904  0.93005  1.0000
  C   C599      1.0  0.21772  0.32812  0.93937  1.0000
  C   C600      1.0  0.19914  0.32469  0.95344  1.0000
  C   C601      1.0  0.18469  0.34231  0.95861  1.0000
  C   C602      1.0  0.18849  0.36325  0.94940  1.0000
  C   C603      1.0  0.21589  0.39298  0.89274  1.0000
  C   C604      1.0  0.22216  0.41221  0.88104  1.0000
  C   C605      1.0  0.22466  0.41218  0.85782  1.0000
  C   C606      1.0  0.22056  0.39307  0.84608  1.0000
  C   C607      1.0  0.21376  0.37404  0.85754  1.0000
  C   C608      1.0  0.21129  0.37400  0.88077  1.0000
  H   H472      1.0  0.15270  0.47758  0.49534  1.0000
  C   C609      1.0  0.17444  0.44282  0.64779  1.0000
  H   H473      1.0  0.16074  0.43903  0.65924  1.0000
  H   H474      1.0  0.16387  0.39103  0.91742  1.0000
  H   H475      1.0  0.08994  0.25859  0.77423  1.0000
  H   H476      1.0  0.16224  0.25075  0.79996  1.0000
  H   H477      1.0  0.28658  0.42896  0.96510  1.0000
  H   H478      1.0  0.21033  0.44016  0.93689  1.0000
  H   H479      1.0  0.23606  0.35155  0.91936  1.0000
  H   H480      1.0  0.01368  0.24593  0.86809  1.0000
  H   H481      1.0  0.13289  0.41792  0.92306  1.0000
  C   C610      1.0  0.07988  0.29240  0.49379  1.0000
  H   H482      1.0  0.17735  0.37667  0.95420  1.0000
  H   H483      1.0  0.22505  0.42726  0.88992  1.0000
  H   H484      1.0  0.19597  0.30849  0.96062  1.0000
  H   H485      1.0  0.22238  0.39312  0.82806  1.0000
  H   H486      1.0  0.21019  0.35938  0.84840  1.0000
  H   H487      1.0  0.20551  0.35924  0.88921  1.0000
  C   C611      1.0  0.14297  0.24736  0.92752  1.0000
  H   H488      1.0  0.13645  0.28619  0.54654  1.0000
  H   H489      1.0  0.16543  0.28547  0.90950  1.0000
  C   C612      1.0  0.30243  0.25453  0.59661  1.0000
  H   H490      1.0  0.14048  0.45580  0.93535  1.0000
  C   C613      1.0  0.27604  0.37857  0.63472  1.0000
  H   H491      1.0  0.19120  0.38835  0.57694  1.0000
  C   C614      1.0  0.40781  0.44897  0.72704  1.0000
  H   H492      1.0  0.09958  0.24802  0.62032  1.0000
  H   H493      1.0  0.14157  0.27573  0.87612  1.0000
  H   H494      1.0  0.47159  0.24937  0.76838  1.0000
  C   C615      1.0  0.13760  0.27329  0.53425  1.0000
  H   H495      1.0  0.28958  0.42035  0.92495  1.0000
  C   C616      1.0  0.27859  0.25464  0.51900  1.0000
  H   H496      1.0  0.27761  0.24224  0.50631  1.0000
  H   H497      1.0  0.17174  0.32900  0.61105  1.0000
  C   C617      1.0  0.38050  0.25034  0.64148  1.0000
  P   P20       1.0  0.22040  0.40870  0.60922  1.0000
  C   C618      1.0  0.19187  0.37790  0.59167  1.0000
  C   C619      1.0  0.12585  0.41147  0.50165  1.0000
  H   H498      1.0  0.17856  0.24332  0.92287  1.0000
  C   C620      1.0  0.28418  0.39441  0.64881  1.0000
  H   H499      1.0  0.11331  0.25323  0.55107  1.0000
  C   C621      1.0  0.43077  0.44350  0.75921  1.0000
  C   C622      1.0  0.11532  0.31917  0.50825  1.0000
  S   S89       1.0  0.27853  0.47510  0.93456  1.0000
  H   H500      1.0  0.19419  0.33887  0.64340  1.0000
  C   C623      1.0  0.36215  0.24988  0.71058  1.0000
  H   H501      1.0  0.25136  0.27446  0.50619  1.0000
  H   H502      1.0  0.12438  0.24062  0.75862  1.0000
  H   H503      1.0  0.35329  0.26317  0.71910  1.0000
  C   C624      1.0  0.00715  0.30210  0.97519  1.0000
  C   C625      1.0  0.28977  0.26788  0.61120  1.0000
  P   P21       1.0  0.31690  0.26668  0.57291  1.0000
  C   C626      1.0  0.32740  0.29349  0.57906  1.0000
  C   C627      1.0  0.40199  0.30041  0.53801  1.0000
  C   C628      1.0  0.44223  0.24476  0.68906  1.0000
  C   C629      1.0  0.04532  0.24275  0.63703  1.0000
  C   C630      1.0  0.19324  0.34993  0.62909  1.0000
  H   H504      1.0  0.24659  0.43581  0.63938  1.0000
  C   C631      1.0  0.46821  0.27547  0.66502  1.0000
  C   C632      1.0  0.32709  0.31050  0.56288  1.0000
  C   C633      1.0  0.33542  0.33120  0.56760  1.0000
  C   C634      1.0  0.34469  0.33490  0.58824  1.0000
  C   C635      1.0  0.34581  0.31784  0.60406  1.0000
  C   C636      1.0  0.33717  0.29720  0.59959  1.0000
  C   C637      1.0  0.29625  0.26881  0.55161  1.0000
  C   C638      1.0  0.46370  0.48069  0.65756  1.0000
  C   C639      1.0  0.27361  0.41509  0.65015  1.0000
  C   C640      1.0  0.21076  0.42967  0.56881  1.0000
  C   C641      1.0  0.23475  0.26354  0.75799  1.0000
  H   H505      1.0  0.11548  0.25388  0.85533  1.0000
  C   C642      1.0  0.15747  0.25683  0.81633  1.0000
  C   C643      1.0  0.14987  0.42272  0.92579  1.0000
  C   C644      1.0  0.24787  0.41171  0.54602  1.0000
  H   H506      1.0  0.28953  0.28563  0.60907  1.0000
  H   H507      1.0  0.17930  0.46671  0.94204  1.0000
  H   H508      1.0  0.22019  0.40434  0.96850  1.0000
  C   C645      1.0  0.44692  0.28150  0.67312  1.0000
  H   H509      1.0  0.39692  0.31553  0.52956  1.0000
  H   H510      1.0  0.20201  0.48668  0.62539  1.0000
  H   H511      1.0  0.32030  0.30793  0.54665  1.0000
  H   H512      1.0  0.33454  0.34442  0.55529  1.0000
  H   H513      1.0  0.35105  0.35095  0.59203  1.0000
  H   H514      1.0  0.35337  0.32067  0.61989  1.0000
  H   H515      1.0  0.33818  0.28422  0.61218  1.0000
  C   C646      1.0  0.20918  0.25119  0.87111  1.0000
  H   H516      1.0  0.28403  0.36240  0.63395  1.0000
  H   H517      1.0  0.28066  0.29842  0.56508  1.0000
  C   C647      1.0  0.30092  0.36312  0.78898  1.0000
  C   C648      1.0  0.29495  0.37691  0.77118  1.0000
  C   C649      1.0  0.29343  0.39968  0.77403  1.0000
  C   C650      1.0  0.29774  0.40874  0.79470  1.0000
  C   C651      1.0  0.30336  0.39500  0.81284  1.0000
  C   C652      1.0  0.30523  0.37211  0.80970  1.0000
  P   P22       1.0  0.30990  0.40641  0.83950  1.0000
  C   C653      1.0  0.29960  0.38836  0.86156  1.0000
  C   C654      1.0  0.33967  0.40954  0.84136  1.0000
  C   C655      1.0  0.35459  0.39864  0.82666  1.0000
  C   C656      1.0  0.37749  0.40229  0.82749  1.0000
  C   C657      1.0  0.38566  0.41678  0.84299  1.0000
  C   C658      1.0  0.37095  0.42745  0.85790  1.0000
  C   C659      1.0  0.34807  0.42381  0.85713  1.0000
  C   C660      1.0  0.31114  0.38568  0.88148  1.0000
  C   C661      1.0  0.30291  0.37186  0.89852  1.0000
  C   C662      1.0  0.28317  0.36056  0.89580  1.0000
  C   C663      1.0  0.27146  0.36326  0.87611  1.0000
  C   C664      1.0  0.27952  0.37725  0.85912  1.0000
  C   C665      1.0  0.29712  0.43347  0.84282  1.0000
  C   C666      1.0  0.30608  0.45163  0.83115  1.0000
  C   C667      1.0  0.29695  0.47278  0.83431  1.0000
  H   H518      1.0  0.16154  0.29062  0.51358  1.0000
  C   C668      1.0  0.27023  0.45813  0.86124  1.0000
  C   C669      1.0  0.27915  0.43690  0.85798  1.0000
  H   H519      1.0  0.30281  0.34553  0.78646  1.0000
  H   H520      1.0  0.29234  0.37006  0.75488  1.0000
  H   H521      1.0  0.28976  0.41039  0.75992  1.0000
  H   H522      1.0  0.29718  0.42646  0.79613  1.0000
  H   H523      1.0  0.31048  0.36125  0.82312  1.0000
  H   H524      1.0  0.34866  0.38814  0.81382  1.0000
  H   H525      1.0  0.38878  0.39469  0.81535  1.0000
  H   H526      1.0  0.40331  0.42025  0.84301  1.0000
  H   H527      1.0  0.37723  0.43911  0.86956  1.0000
  H   H528      1.0  0.33687  0.43243  0.86857  1.0000
  H   H529      1.0  0.32651  0.39417  0.88397  1.0000
  H   H530      1.0  0.31194  0.36987  0.91383  1.0000
  H   H531      1.0  0.27699  0.34972  0.90897  1.0000
  H   H532      1.0  0.25617  0.35449  0.87398  1.0000
  H   H533      1.0  0.27013  0.37939  0.84407  1.0000
  H   H534      1.0  0.32041  0.44955  0.81989  1.0000
  C   C670      1.0  0.32647  0.46695  0.96380  1.0000
  C   C671      1.0  0.13968  0.24098  0.50160  1.0000
  H   H535      1.0  0.48460  0.45985  0.80346  1.0000
  H   H536      1.0  0.27232  0.42344  0.86775  1.0000
  C   C672      1.0  0.43391  0.26620  0.68496  1.0000
  H   H537      1.0  0.23499  0.42855  0.51704  1.0000
  H   H538      1.0  0.17035  0.35395  0.57793  1.0000
  C   C673      1.0  0.23355  0.24265  0.76855  1.0000
  H   H539      1.0  0.40155  0.42474  0.75295  1.0000
  H   H540      1.0  0.22367  0.45671  0.60710  1.0000
  H   H541      1.0  0.14560  0.31087  0.93501  1.0000
  C   C674      1.0  0.25466  0.41984  0.63768  1.0000
  C   C675      1.0  0.21420  0.43432  0.54613  1.0000
  C   C676      1.0  0.27463  0.41615  0.93446  1.0000
  H   H542      1.0  0.19587  0.43621  0.57710  1.0000
  C   C677      1.0  0.15663  0.34676  0.89223  1.0000
  H   H543      1.0  0.22925  0.31457  0.93588  1.0000
  H   H544      1.0  0.39308  0.44495  0.71800  1.0000
  H   H545      1.0  0.38104  0.30649  0.56713  1.0000
  C   C678      1.0  0.27909  0.47604  0.84937  1.0000
  C   C679      1.0  0.41774  0.28614  0.52791  1.0000
  C   C680      1.0  0.40008  0.27628  0.57039  1.0000
  C   C681      1.0  0.15413  0.44406  0.93272  1.0000
  H   H546      1.0  0.13336  0.41949  0.51552  1.0000
  C   C682      1.0  0.20438  0.43055  0.62257  1.0000
  H   H547      1.0  0.43378  0.43547  0.77513  1.0000
  H   H548      1.0  0.23038  0.26510  0.92956  1.0000
  C   C683      1.0  0.15199  0.31696  0.91903  1.0000
  C   C684      1.0  0.17599  0.45020  0.93653  1.0000
  H   H549      1.0  0.41222  0.25925  0.49177  1.0000
  C   C685      1.0  0.23271  0.42531  0.53472  1.0000
  H   H550      1.0  0.39357  0.27262  0.58706  1.0000
  S   S90       1.0  0.13705  0.33603  0.51841  1.0000
  H   H551      1.0  0.45778  0.46565  0.76222  1.0000
  H   H552      1.0  0.02040  0.30232  0.96262  1.0000
  C   C686      1.0  0.20987  0.45265  0.61836  1.0000
  H   H553      1.0  0.29854  0.39054  0.65890  1.0000
  C   C687      1.0  0.24619  0.40386  0.62368  1.0000
  C   C688      1.0  0.39307  0.29540  0.55918  1.0000
  H   H554      1.0  0.16916  0.43851  0.98206  1.0000
  C   C689      1.0  0.25655  0.40708  0.92389  1.0000
  C   C690      1.0  0.23542  0.40726  0.95886  1.0000
  H   H555      1.0  0.26185  0.40411  0.53705  1.0000
  H   H556      1.0  0.44222  0.25588  0.62088  1.0000
  H   H557      1.0  0.25606  0.39585  0.57692  1.0000
  H   H558      1.0  0.09682  0.24125  0.69348  1.0000
  H   H559      1.0  0.20225  0.44457  0.53724  1.0000
  H   H560      1.0  0.41729  0.27116  0.69054  1.0000
  C   C691      1.0  0.16335  0.30259  0.90452  1.0000
  C   C692      1.0  0.34138  0.25024  0.56564  1.0000
  H   H561      1.0  0.46338  0.46608  0.64746  1.0000
  C   C693      1.0  0.15177  0.27583  0.51560  1.0000
  C   C694      1.0  0.22464  0.26132  0.91314  1.0000
  C   C695      1.0  0.99218  0.36346  0.98217  1.0000
  H   H562      1.0  0.25698  0.46091  0.87357  1.0000
  H   H563      1.0  0.06165  0.26136  0.61067  1.0000
  C   C696      1.0  0.26371  0.27270  0.51897  1.0000
  H   H564      1.0  0.22110  0.27527  0.76026  1.0000
  C   C697      1.0  0.29468  0.25255  0.53540  1.0000
  C   C698      1.0  0.27717  0.25838  0.62864  1.0000
  H   H565      1.0  0.30434  0.48685  0.82581  1.0000
  C   C699      1.0  0.12440  0.25463  0.53664  1.0000
  H   H566      1.0  0.33142  0.47013  0.87032  1.0000
  H   H567      1.0  0.26471  0.41237  0.49113  1.0000
  C   C700      1.0  0.34937  0.24926  0.54348  1.0000
  C   C701      1.0  0.09259  0.24098  0.77631  1.0000
  S   S91       1.0  0.13317  0.36593  0.98725  1.0000
  C   C702      1.0  0.18660  0.42575  0.63742  1.0000
  C   C703      1.0  0.44004  0.47194  0.73173  1.0000
  C   C704      1.0  0.30849  0.47267  0.89884  1.0000
  C   C705      1.0  0.27302  0.42094  0.95714  1.0000
  C   C706      1.0  0.06387  0.25008  0.62466  1.0000
  H   H568      1.0  0.39396  0.25822  0.72304  1.0000
  C   C707      1.0  0.47672  0.25426  0.66919  1.0000
  C   C708      1.0  0.29622  0.48685  0.91320  1.0000
  C   C709      1.0  0.19768  0.46967  0.62873  1.0000
  H   H569      1.0  0.00064  0.24231  0.82951  1.0000
  C   C710      1.0  0.08523  0.24257  0.63011  1.0000
  H   H570      1.0  0.39945  0.40543  0.98374  1.0000
  H   H571      1.0  0.00856  0.36174  0.97425  1.0000
  H   H572      1.0  0.13297  0.24781  0.71070  1.0000
  H   H573      1.0  0.14017  0.41120  0.97408  1.0000
  S   S92       1.0  0.39032  0.48803  0.76797  1.0000
  H   H574      1.0  0.42508  0.29079  0.51191  1.0000
  H   H575      1.0  0.20345  0.24688  0.85483  1.0000
  C   C711      1.0  0.17996  0.46477  0.64344  1.0000
  C   C712      1.0  0.32219  0.48110  0.88128  1.0000
  C   C713      1.0  0.46004  0.47896  0.68062  1.0000
  H   H576      1.0  0.25197  0.42035  0.98678  1.0000
  C   C714      1.0  0.12233  0.24186  0.91909  1.0000
  H   H577      1.0  0.10715  0.24786  0.92725  1.0000
  P   P23       1.0  0.44515  0.24813  0.52603  1.0000
  S   S93       1.0  0.44394  0.48612  0.80387  1.0000
  H   H578      1.0  0.06739  0.24252  0.52153  1.0000
  H   H579      1.0  0.34834  0.24070  0.59979  1.0000
  Fe  Fe47      1.0  0.25916  0.48840  0.96559  1.0000
  H   H580      1.0  0.17055  0.47798  0.65150  1.0000
  H   H581      1.0  0.22202  0.45898  0.49047  1.0000
  C   C715      1.0  0.32295  0.48894  0.96971  1.0000
  C   C716      1.0  0.20895  0.47149  0.49105  1.0000
  C   C717      1.0  0.17028  0.42208  0.98917  1.0000
  C   C718      1.0  0.22994  0.24086  0.90382  1.0000
  S   S94       1.0  0.09491  0.72052  0.00626  1.0000
  H   H582      1.0  0.18649  0.58575  0.42160  1.0000
  H   H583      1.0  0.42359  0.70462  0.38919  1.0000
  P   P24       1.0  0.24744  0.55859  0.09442  1.0000
  H   H584      1.0  0.39257  0.68740  0.37068  1.0000
  Fe  Fe48      1.0  0.11003  0.69824  0.03257  1.0000
  S   S95       1.0  0.11607  0.70454  0.06962  1.0000
  S   S96       1.0  0.08851  0.66935  0.02456  1.0000
  Fe  Fe49      1.0  0.35216  0.68704  0.31843  1.0000
  S   S97       1.0  0.33612  0.68184  0.28522  1.0000
  S   S98       1.0  0.38919  0.69544  0.32110  1.0000
  Fe  Fe50      1.0  0.30999  0.67231  0.34526  1.0000
  S   S99       1.0  0.29113  0.66649  0.31427  1.0000
  S   S100      1.0  0.29850  0.66687  0.38175  1.0000
  Fe  Fe51      1.0  0.32290  0.65031  0.30060  1.0000
  S   S101      1.0  0.32060  0.61494  0.28786  1.0000
  Fe  Fe52      1.0  0.30547  0.69832  0.30086  1.0000
  S   S102      1.0  0.22376  0.59875  0.48302  1.0000
  S   S103      1.0  0.34089  0.65438  0.33262  1.0000
  S   S104      1.0  0.32255  0.70534  0.33310  1.0000
  Fe  Fe53      1.0  0.36395  0.52318  0.19729  1.0000
  S   S105      1.0  0.35901  0.56005  0.20448  1.0000
  S   S106      1.0  0.37510  0.51555  0.16189  1.0000
  Fe  Fe54      1.0  0.20067  0.61965  0.46255  1.0000
  S   S107      1.0  0.17203  0.59641  0.46850  1.0000
  S   S108      1.0  0.20748  0.63155  0.42649  1.0000
  H   H585      1.0  0.24957  0.56020  0.01203  1.0000
  C   C719      1.0  0.39421  0.53867  0.25536  1.0000
  H   H586      1.0  0.03649  0.68130  0.38145  1.0000
  H   H587      1.0  0.23181  0.70798  0.03728  1.0000
  H   H588      1.0  0.01674  0.68907  0.02811  1.0000
  H   H589      1.0  0.25025  0.69447  0.28687  1.0000
  C   C720      1.0  0.27454  0.53825  0.38837  1.0000
  C   C721      1.0  0.27318  0.65646  0.39366  1.0000
  C   C722      1.0  0.25521  0.65076  0.38072  1.0000
  C   C723      1.0  0.23534  0.64303  0.39101  1.0000
  C   C724      1.0  0.23324  0.64058  0.41434  1.0000
  C   C725      1.0  0.25132  0.64599  0.42725  1.0000
  C   C726      1.0  0.27103  0.65408  0.41697  1.0000
  H   H590      1.0  0.25665  0.65232  0.36281  1.0000
  H   H591      1.0  0.22152  0.63884  0.38082  1.0000
  H   H592      1.0  0.25002  0.64424  0.44519  1.0000
  H   H593      1.0  0.28475  0.65851  0.42719  1.0000
  C   C727      1.0  0.33228  0.60005  0.26484  1.0000
  C   C728      1.0  0.34374  0.61032  0.24706  1.0000
  C   C729      1.0  0.35194  0.59778  0.22887  1.0000
  C   C730      1.0  0.34898  0.57484  0.22826  1.0000
  C   C731      1.0  0.33791  0.56451  0.24624  1.0000
  C   C732      1.0  0.32955  0.57706  0.26433  1.0000
  H   H594      1.0  0.34607  0.62794  0.24719  1.0000
  H   H595      1.0  0.36055  0.60594  0.21510  1.0000
  H   H596      1.0  0.33548  0.54691  0.24604  1.0000
  H   H597      1.0  0.32076  0.56891  0.27798  1.0000
  S   S109      1.0  0.22522  0.49972  0.02150  1.0000
  C   C733      1.0  0.22278  0.63730  0.29122  1.0000
  C   C734      1.0  0.28191  0.56603  0.02503  1.0000
  H   H598      1.0  0.01404  0.62347  0.34942  1.0000
  C   C735      1.0  0.48264  0.49209  0.16006  1.0000
  H   H599      1.0  0.27686  0.70125  0.24746  1.0000
  P   P25       1.0  0.03465  0.66784  0.42878  1.0000
  H   H600      1.0  0.35486  0.68720  0.38842  1.0000
  H   H601      1.0  0.46129  0.69608  0.44976  1.0000
  H   H602      1.0  0.41124  0.60481  0.21815  1.0000
  C   C736      1.0  0.40172  0.71784  0.33463  1.0000
  C   C737      1.0  0.42041  0.57004  0.21885  1.0000
  C   C738      1.0  0.46675  0.70257  0.43371  1.0000
  C   C739      1.0  0.48189  0.71884  0.39229  1.0000
  C   C740      1.0  0.18498  0.67515  0.37527  1.0000
  H   H603      1.0  0.43510  0.70551  0.32770  1.0000
  H   H604      1.0  0.27783  0.58833  0.11593  1.0000
  C   C741      1.0  0.46099  0.72548  0.40092  1.0000
  H   H605      1.0  0.28251  0.53231  0.42297  1.0000
  H   H606      1.0  0.33792  0.51179  0.10687  1.0000
  C   C742      1.0  0.39951  0.63109  0.28300  1.0000
  H   H607      1.0  0.20719  0.64504  0.04646  1.0000
  H   H608      1.0  0.10578  0.70225  0.47909  1.0000
  C   C743      1.0  0.22110  0.51463  0.43413  1.0000
  C   C744      1.0  0.29748  0.49870  0.07013  1.0000
  C   C745      1.0  0.22836  0.59091  0.12222  1.0000
  C   C746      1.0  0.26099  0.56186  0.06729  1.0000
  C   C747      1.0  0.21518  0.71371  0.03329  1.0000
  C   C748      1.0  0.02098  0.63208  0.40464  1.0000
  C   C749      1.0  0.39579  0.59284  0.27297  1.0000
  C   C750      1.0  0.26815  0.55415  0.11550  1.0000
  C   C751      1.0  0.41332  0.58988  0.20868  1.0000
  H   H609      1.0  0.18398  0.68774  0.99885  1.0000
  H   H610      1.0  0.38436  0.54911  0.24449  1.0000
  C   C752      1.0  0.01591  0.62114  0.38516  1.0000
  C   C753      1.0  0.27245  0.53297  0.12438  1.0000
  C   C754      1.0  0.38734  0.61172  0.28359  1.0000
  C   C755      1.0  0.24181  0.63721  0.04876  1.0000
  C   C756      1.0  0.42015  0.63163  0.27170  1.0000
  C   C757      1.0  0.17534  0.71512  0.04082  1.0000
  C   C758      1.0  0.40832  0.59047  0.18605  1.0000
  C   C759      1.0  0.41065  0.57138  0.17341  1.0000
  C   C760      1.0  0.41785  0.55164  0.18339  1.0000
  H   H611      1.0  0.45761  0.57952  0.28370  1.0000
  C   C761      1.0  0.26532  0.57052  0.43844  1.0000
  C   C762      1.0  0.06413  0.63992  0.45181  1.0000
  H   H612      1.0  0.21308  0.61517  0.14391  1.0000
  H   H613      1.0  0.24945  0.68514  0.34133  1.0000
  C   C763      1.0  0.17260  0.72945  0.02259  1.0000
  H   H614      1.0  0.40655  0.57176  0.15596  1.0000
  C   C764      1.0  0.46665  0.50361  0.19535  1.0000
  H   H615      1.0  0.21738  0.58649  0.06709  1.0000
  C   C765      1.0  0.15524  0.67597  0.34889  1.0000
  C   C766      1.0  0.14881  0.58131  0.99906  1.0000
  C   C767      1.0  0.15119  0.60426  0.99619  1.0000
  H   H616      1.0  0.40231  0.60565  0.17840  1.0000
  H   H617      1.0  0.38574  0.57828  0.27338  1.0000
  C   C768      1.0  0.20202  0.49827  0.09286  1.0000
  C   C769      1.0  0.21431  0.60900  0.12708  1.0000
  H   H618      1.0  0.19039  0.63262  0.11423  1.0000
  H   H619      1.0  0.41967  0.53681  0.17363  1.0000
  C   C770      1.0  0.01038  0.69104  0.99308  1.0000
  C   C771      1.0  0.28569  0.50848  0.36349  1.0000
  H   H620      1.0  0.16481  0.54891  0.99832  1.0000
  C   C772      1.0  0.39776  0.50518  0.27753  1.0000
  C   C773      1.0  0.12879  0.72692  0.08291  1.0000
  H   H621      1.0  0.39281  0.64575  0.29115  1.0000
  H   H622      1.0  0.08700  0.61873  0.46976  1.0000
  C   C774      1.0  0.38497  0.51940  0.26429  1.0000
  H   H623      1.0  0.06373  0.70311  0.44348  1.0000
  C   C775      1.0  0.11840  0.73016  0.17827  1.0000
  H   H624      1.0  0.26948  0.53849  0.35276  1.0000
  H   H625      1.0  0.31338  0.54483  0.16024  1.0000
  C   C776      1.0  0.19775  0.54477  0.38472  1.0000
  S   S110      1.0  0.28849  0.50669  0.04287  1.0000
  C   C777      1.0  0.42869  0.61278  0.26107  1.0000
  C   C778      1.0  0.28774  0.59804  0.45537  1.0000
  H   H626      1.0  0.23435  0.59795  0.36811  1.0000
  C   C779      1.0  0.18531  0.55878  0.39877  1.0000
  H   H627      1.0  0.48786  0.72544  0.37638  1.0000
  H   H628      1.0  0.22712  0.58889  0.41873  1.0000
  H   H629      1.0  0.45238  0.50606  0.20641  1.0000
  C   C780      1.0  0.99212  0.65739  0.44557  1.0000
  H   H630      1.0  0.12068  0.63420  0.45146  1.0000
  C   C781      1.0  0.23018  0.58280  0.10043  1.0000
  C   C782      1.0  0.29407  0.49630  0.38145  1.0000
  H   H631      1.0  0.42765  0.53544  0.21362  1.0000
  C   C783      1.0  0.20079  0.71773  0.27396  1.0000
  C   C784      1.0  0.41967  0.51049  0.28223  1.0000
  Fe  Fe55      1.0  0.11635  0.65890  0.00053  1.0000
  H   H632      1.0  0.23027  0.53547  0.37210  1.0000
  C   C785      1.0  0.16970  0.68485  0.33258  1.0000
  C   C786      1.0  0.21923  0.57619  0.40945  1.0000
  C   C787      1.0  0.23191  0.56198  0.39568  1.0000
  C   C788      1.0  0.20799  0.50173  0.42085  1.0000
  H   H633      1.0  0.25251  0.70807  0.21510  1.0000
  H   H634      1.0  0.31959  0.51172  0.99683  1.0000
  H   H635      1.0  0.26370  0.51880  0.11869  1.0000
  C   C789      1.0  0.16290  0.67107  0.37020  1.0000
  H   H636      1.0  0.29343  0.60601  0.47014  1.0000
  H   H637      1.0  0.20389  0.54893  0.11589  1.0000
  C   C790      1.0  0.03389  0.69742  0.42505  1.0000
  H   H638      1.0  0.23009  0.69942  0.47305  1.0000
  C   C791      1.0  0.03050  0.66461  0.38274  1.0000
  H   H639      1.0  0.01034  0.60428  0.38610  1.0000
  C   C792      1.0  0.00405  0.68931  0.01566  1.0000
  C   C793      1.0  0.29672  0.56858  0.13897  1.0000
  C   C794      1.0  0.24977  0.70288  0.33951  1.0000
  C   C795      1.0  0.43585  0.73597  0.34580  1.0000
  H   H640      1.0  0.24694  0.69245  0.07962  1.0000
  C   C796      1.0  0.27325  0.58037  0.45746  1.0000
  C   C797      1.0  0.23332  0.71431  0.32752  1.0000
  C   C798      1.0  0.05018  0.71049  0.43427  1.0000
  H   H641      1.0  0.13019  0.70975  0.11456  1.0000
  P   P26       1.0  0.21078  0.69938  0.31582  1.0000
  H   H642      1.0  0.19234  0.61777  0.07606  1.0000
  H   H643      1.0  0.44457  0.61361  0.25211  1.0000
  H   H644      1.0  0.29000  0.56709  0.00871  1.0000
  S   S111      1.0  0.33807  0.49685  0.19835  1.0000
  C   C799      1.0  0.26682  0.71427  0.34934  1.0000
  S   S112      1.0  0.99454  0.71814  0.46973  1.0000
  H   H645      1.0  0.25112  0.51606  0.45265  1.0000
  C   C800      1.0  0.46357  0.49584  0.17384  1.0000
  C   C801      1.0  0.01409  0.66265  0.45063  1.0000
  H   H646      1.0  0.29417  0.56662  0.07973  1.0000
  H   H647      1.0  0.37114  0.61144  0.29204  1.0000
  C   C802      1.0  0.21202  0.69232  0.11351  1.0000
  Fe  Fe56      1.0  0.22501  0.52003  0.98946  1.0000
  H   H648      1.0  0.04963  0.63281  0.45999  1.0000
  H   H649      1.0  0.19101  0.67109  0.39177  1.0000
  C   C803      1.0  0.06191  0.65735  0.43628  1.0000
  C   C804      1.0  0.38248  0.71376  0.42857  1.0000
  C   C805      1.0  0.01954  0.66559  0.47291  1.0000
  C   C806      1.0  0.10223  0.65708  0.43071  1.0000
  C   C807      1.0  0.42994  0.73541  0.47833  1.0000
  C   C808      1.0  0.01573  0.70772  0.41453  1.0000
  C   C809      1.0  0.23488  0.73726  0.32454  1.0000
  C   C810      1.0  0.32379  0.50347  0.10038  1.0000
  H   H650      1.0  0.25358  0.55728  0.44043  1.0000
  H   H651      1.0  0.16079  0.71035  0.05062  1.0000
  H   H652      1.0  0.25003  0.62622  0.26970  1.0000
  C   C811      1.0  0.41669  0.59312  0.26180  1.0000
  H   H653      1.0  0.21523  0.53092  0.43910  1.0000
  Fe  Fe57      1.0  0.26259  0.49775  0.01677  1.0000
  H   H654      1.0  0.99996  0.73871  0.40517  1.0000
  C   C812      1.0  0.41614  0.54423  0.26005  1.0000
  C   C813      1.0  0.22275  0.67605  0.30102  1.0000
  C   C814      1.0  0.42884  0.52998  0.27361  1.0000
  C   C815      1.0  0.21238  0.72800  0.01498  1.0000
  C   C816      1.0  0.20897  0.72633  0.13408  1.0000
  C   C817      1.0  0.19565  0.71739  0.29693  1.0000
  S   S113      1.0  0.12699  0.62195  0.99961  1.0000
  C   C818      1.0  0.42242  0.55092  0.20606  1.0000
  H   H655      1.0  0.27917  0.70533  0.35895  1.0000
  C   C819      1.0  0.26673  0.71617  0.24652  1.0000
  H   H656      1.0  0.30634  0.58226  0.14454  1.0000
  H   H657      1.0  0.16360  0.68811  0.31602  1.0000
  H   H658      1.0  0.24050  0.62185  0.03994  1.0000
  H   H659      1.0  0.15605  0.73542  0.01833  1.0000
  C   C820      1.0  0.48777  0.69608  0.42510  1.0000
  C   C821      1.0  0.26757  0.73162  0.26350  1.0000
  C   C822      1.0  0.38910  0.73476  0.34475  1.0000
  H   H660      1.0  0.18939  0.53272  0.37502  1.0000
  C   C823      1.0  0.02791  0.65402  0.40359  1.0000
  C   C824      1.0  0.20153  0.61883  0.11040  1.0000
  H   H661      1.0  0.03598  0.67089  0.47700  1.0000
  C   C825      1.0  0.21707  0.59271  0.08383  1.0000
  C   C826      1.0  0.46787  0.57392  0.26969  1.0000
  C   C827      1.0  0.40400  0.71380  0.41870  1.0000
  C   C828      1.0  0.26823  0.73707  0.34638  1.0000
  C   C829      1.0  0.25498  0.60964  0.34094  1.0000
  C   C830      1.0  0.27599  0.60870  0.33038  1.0000
  C   C831      1.0  0.29275  0.59494  0.33893  1.0000
  C   C832      1.0  0.28842  0.58183  0.35783  1.0000
  C   C833      1.0  0.26717  0.58226  0.36823  1.0000
  C   C834      1.0  0.25058  0.59659  0.35990  1.0000
  C   C835      1.0  0.24225  0.64010  0.27827  1.0000
  H   H662      1.0  0.28025  0.66876  0.07293  1.0000
  H   H663      1.0  0.15181  0.66398  0.38281  1.0000
  C   C836      1.0  0.20330  0.70304  0.09463  1.0000
  H   H664      1.0  0.23743  0.58308  0.13563  1.0000
  C   C837      1.0  0.29449  0.60571  0.43425  1.0000
  C   C838      1.0  0.28670  0.59583  0.41517  1.0000
  C   C839      1.0  0.27214  0.57802  0.41711  1.0000
  H   H665      1.0  0.16733  0.55762  0.40004  1.0000
  S   S114      1.0  0.13820  0.68644  0.01010  1.0000
  H   H666      1.0  0.19796  0.65261  0.31246  1.0000
  H   H667      1.0  0.24225  0.62084  0.33467  1.0000
  H   H668      1.0  0.27946  0.61882  0.31571  1.0000
  H   H669      1.0  0.30917  0.59462  0.33091  1.0000
  H   H670      1.0  0.30170  0.57146  0.36438  1.0000
  H   H671      1.0  0.01944  0.62347  0.42054  1.0000
  C   C840      1.0  0.20918  0.53495  0.10596  1.0000
  H   H672      1.0  0.30541  0.61968  0.43258  1.0000
  H   H673      1.0  0.29179  0.60252  0.39906  1.0000
  H   H674      1.0  0.32367  0.52247  0.06961  1.0000
  C   C841      1.0  0.48836  0.50745  0.20285  1.0000
  C   C842      1.0  0.21299  0.65521  0.30252  1.0000
  C   C843      1.0  0.26417  0.66361  0.06735  1.0000
  H   H675      1.0  0.26710  0.66299  0.26664  1.0000
  H   H676      1.0  0.19382  0.73280  0.24207  1.0000
  C   C844      1.0  0.02541  0.65363  0.36329  1.0000
  C   C845      1.0  0.25187  0.66081  0.27650  1.0000
  H   H677      1.0  0.21109  0.73535  0.14932  1.0000
  H   H678      1.0  0.13250  0.67105  0.48580  1.0000
  C   C846      1.0  0.19194  0.68912  0.33753  1.0000
  C   C847      1.0  0.36854  0.69454  0.39693  1.0000
  C   C848      1.0  0.19548  0.51660  0.10542  1.0000
  C   C849      1.0  0.19944  0.68417  0.35907  1.0000
  C   C850      1.0  0.22098  0.54633  0.38319  1.0000
  C   C851      1.0  0.25912  0.56205  0.02689  1.0000
  C   C852      1.0  0.21484  0.70395  0.13314  1.0000
  C   C853      1.0  0.29435  0.56783  0.04420  1.0000
  H   H679      1.0  0.11704  0.66380  0.42270  1.0000
  H   H680      1.0  0.34828  0.70416  0.42534  1.0000
  C   C854      1.0  0.24139  0.50624  0.44174  1.0000
  C   C855      1.0  0.30070  0.54749  0.14786  1.0000
  C   C856      1.0  0.13369  0.72498  0.10568  1.0000
  H   H681      1.0  0.21351  0.70686  0.26685  1.0000
  C   C857      1.0  0.22940  0.53518  0.09362  1.0000
  C   C858      1.0  0.18974  0.73258  0.25977  1.0000
  C   C859      1.0  0.10431  0.64031  0.44678  1.0000
  P   P27       1.0  0.19979  0.68785  0.06932  1.0000
  C   C860      1.0  0.17503  0.67139  0.07221  1.0000
  C   C861      1.0  0.19607  0.57452  0.41104  1.0000
  H   H682      1.0  0.27715  0.63333  0.05325  1.0000
  C   C862      1.0  0.45321  0.71743  0.42167  1.0000
  C   C863      1.0  0.04990  0.73721  0.09662  1.0000
  C   C864      1.0  0.16353  0.66924  0.09282  1.0000
  C   C865      1.0  0.14421  0.65677  0.09466  1.0000
  C   C866      1.0  0.13617  0.64640  0.07599  1.0000
  C   C867      1.0  0.14738  0.64857  0.05544  1.0000
  C   C868      1.0  0.16654  0.66122  0.05348  1.0000
  H   H683      1.0  0.37928  0.72135  0.44457  1.0000
  H   H684      1.0  0.02722  0.66196  0.34727  1.0000
  H   H685      1.0  0.26777  0.57463  0.47386  1.0000
  C   C869      1.0  0.22280  0.65049  0.05263  1.0000
  H   H686      1.0  0.44589  0.53362  0.27731  1.0000
  H   H687      1.0  0.36810  0.51514  0.26028  1.0000
  C   C870      1.0  0.42441  0.72008  0.46217  1.0000
  C   C871      1.0  0.28852  0.52975  0.14062  1.0000
  H   H688      1.0  0.25163  0.51627  0.07198  1.0000
  H   H689      1.0  0.04450  0.72779  0.08263  1.0000
  C   C872      1.0  0.47174  0.56028  0.23206  1.0000
  C   C873      1.0  0.45800  0.56783  0.24982  1.0000
  H   H690      1.0  0.16891  0.67766  0.10737  1.0000
  H   H691      1.0  0.13498  0.65576  0.11037  1.0000
  H   H692      1.0  0.12085  0.63726  0.07722  1.0000
  H   H693      1.0  0.14078  0.64098  0.04086  1.0000
  H   H694      1.0  0.17441  0.66339  0.03718  1.0000
  C   C874      1.0  0.26246  0.64369  0.05623  1.0000
  H   H695      1.0  0.41365  0.68676  0.45696  1.0000
  H   H696      1.0  0.21641  0.68697  0.36360  1.0000
  H   H697      1.0  0.42944  0.64676  0.27110  1.0000
  C   C875      1.0  0.24229  0.67865  0.28798  1.0000
  C   C876      1.0  0.42515  0.71854  0.33535  1.0000
  C   C877      1.0  0.32307  0.49480  0.99210  1.0000
  C   C878      1.0  0.20276  0.61055  0.08885  1.0000
  C   C879      1.0  0.08110  0.66536  0.42523  1.0000
  C   C880      1.0  0.38983  0.69463  0.38694  1.0000
  C   C881      1.0  0.40746  0.70439  0.39763  1.0000
  S   S115      1.0  0.39042  0.50118  0.21246  1.0000
  H   H698      1.0  0.07974  0.67824  0.41262  1.0000
  H   H699      1.0  0.21656  0.67497  0.11308  1.0000
  H   H700      1.0  0.29184  0.51336  0.14736  1.0000
  H   H701      1.0  0.23125  0.55555  0.04878  1.0000
  C   C882      1.0  0.31566  0.50947  0.07917  1.0000
  C   C883      1.0  0.24874  0.55965  0.04787  1.0000
  C   C884      1.0  0.16714  0.56645  0.99616  1.0000
  H   H702      1.0  0.13812  0.67272  0.34494  1.0000
  C   C885      1.0  0.27590  0.52932  0.36691  1.0000
  P   P28       1.0  0.26170  0.56520  0.39261  1.0000
  C   C886      1.0  0.41777  0.69894  0.46910  1.0000
  C   C887      1.0  0.24519  0.67693  0.07124  1.0000
  Fe  Fe58      1.0  0.40030  0.49212  0.17748  1.0000
  C   C888      1.0  0.01803  0.63194  0.36450  1.0000
  C   C889      1.0  0.19717  0.72547  0.09582  1.0000
  H   H703      1.0  0.21534  0.62122  0.29257  1.0000
  P   P29       1.0  0.42793  0.56893  0.24777  1.0000
  C   C890      1.0  0.28054  0.57192  0.12284  1.0000
  C   C891      1.0  0.28312  0.52591  0.40630  1.0000
  C   C892      1.0  0.23598  0.51657  0.08135  1.0000
  C   C893      1.0  0.22420  0.67028  0.06434  1.0000
  C   C894      1.0  0.28397  0.56578  0.06525  1.0000
  H   H704      1.0  0.19196  0.50806  0.41554  1.0000
  H   H705      1.0  0.12569  0.71470  0.17259  1.0000
  H   H706      1.0  0.45096  0.73715  0.39154  1.0000
  H   H707      1.0  0.22156  0.69570  0.14771  1.0000
  C   C895      1.0  0.19659  0.70684  0.04609  1.0000
  C   C896      1.0  0.25294  0.72013  0.22812  1.0000
  C   C897      1.0  0.08526  0.63161  0.45716  1.0000
  H   H708      1.0  0.31217  0.57017  0.04274  1.0000
  H   H709      1.0  0.39073  0.48991  0.28382  1.0000
  C   C898      1.0  0.29277  0.50501  0.40283  1.0000
  H   H710      1.0  0.45385  0.73632  0.34601  1.0000
  H   H711      1.0  0.13256  0.57492  0.00349  1.0000
  H   H712      1.0  0.17973  0.51662  0.11467  1.0000
  H   H713      1.0  0.22669  0.73306  0.00493  1.0000
  S   S116      1.0  0.28476  0.72767  0.28709  1.0000
  H   H714      1.0  0.28697  0.50188  0.34684  1.0000
  P   P30       1.0  0.42640  0.72692  0.43272  1.0000
  H   H715      1.0  0.22266  0.67521  0.00607  1.0000
  H   H716      1.0  0.17599  0.73311  0.32321  1.0000
  H   H717      1.0  0.13588  0.72945  0.20917  1.0000
  C   C899      1.0  0.36486  0.70412  0.41774  1.0000
  C   C900      1.0  0.19106  0.73571  0.00953  1.0000
  H   H718      1.0  0.18986  0.73412  0.08180  1.0000
  H   H719      1.0  0.00239  0.69805  0.40825  1.0000
  H   H720      1.0  0.09929  0.73511  0.14901  1.0000
  H   H721      1.0  0.42963  0.49936  0.29236  1.0000
  H   H722      1.0  0.46484  0.55525  0.21656  1.0000
  C   C901      1.0  0.10021  0.68781  0.48826  1.0000
  H   H723      1.0  0.37110  0.73442  0.34451  1.0000
  H   H724      1.0  0.29941  0.49564  0.41676  1.0000
  Fe  Fe59      1.0  0.07485  0.69089  0.99690  1.0000
  C   C902      1.0  0.17972  0.73258  0.30548  1.0000
  C   C903      1.0  0.22235  0.49820  0.08096  1.0000
  C   C904      1.0  0.04859  0.73346  0.43260  1.0000
  C   C905      1.0  0.01427  0.73071  0.41275  1.0000
  C   C906      1.0  0.12409  0.73842  0.19890  1.0000
  H   H725      1.0  0.01792  0.73693  0.11366  1.0000
  C   C907      1.0  0.20021  0.73706  0.11542  1.0000
  C   C908      1.0  0.17241  0.61215  0.99043  1.0000
  S   S117      1.0  0.20603  0.53935  0.48835  1.0000
  C   C909      1.0  0.18826  0.57425  0.99005  1.0000
  H   H726      1.0  0.20416  0.73086  0.48135  1.0000
  C   C910      1.0  0.22148  0.70039  0.48912  1.0000
  C   C911      1.0  0.21537  0.67203  0.99019  1.0000
  H   H727      1.0  0.23177  0.49859  0.48877  1.0000
  H   H728      1.0  0.49039  0.51320  0.21957  1.0000
  S   S118      1.0  0.19054  0.64166  0.49116  1.0000
  C   C912      1.0  0.26497  0.73417  0.74898  1.0000
  H   H729      1.0  0.18455  0.73302  0.51797  1.0000
  C   C913      1.0  0.17684  0.70322  0.87112  1.0000
  H   H730      1.0  0.45606  0.57676  0.74012  1.0000
  H   H731      1.0  0.00110  0.72269  0.58968  1.0000
  C   C914      1.0  0.15876  0.71881  0.55623  1.0000
  S   S119      1.0  0.03892  0.69336  0.98344  1.0000
  S   S120      1.0  0.10140  0.67861  0.97218  1.0000
  Fe  Fe60      1.0  0.36668  0.51685  0.77489  1.0000
  S   S121      1.0  0.38416  0.52552  0.80634  1.0000
  S   S122      1.0  0.35684  0.53842  0.74460  1.0000
  Fe  Fe61      1.0  0.21202  0.61903  0.51240  1.0000
  S   S123      1.0  0.18428  0.59576  0.52145  1.0000
  S   S124      1.0  0.24026  0.63190  0.53357  1.0000
  C   C915      1.0  0.17148  0.72580  0.79181  1.0000
  C   C916      1.0  0.39520  0.72489  0.62780  1.0000
  C   C917      1.0  0.23705  0.70869  0.59934  1.0000
  Fe  Fe62      1.0  0.19485  0.57634  0.49081  1.0000
  Fe  Fe63      1.0  0.32658  0.69169  0.66048  1.0000
  S   S125      1.0  0.32206  0.69528  0.69754  1.0000
  S   S126      1.0  0.35721  0.70212  0.63936  1.0000
  Fe  Fe64      1.0  0.28153  0.66836  0.65596  1.0000
  S   S127      1.0  0.27459  0.67007  0.69311  1.0000
  S   S128      1.0  0.25198  0.65559  0.63634  1.0000
  Fe  Fe65      1.0  0.28636  0.70492  0.69075  1.0000
  C   C918      1.0  0.19071  0.59725  0.98728  1.0000
  Fe  Fe66      1.0  0.31070  0.65984  0.69732  1.0000
  S   S129      1.0  0.32174  0.63784  0.72686  1.0000
  S   S130      1.0  0.29162  0.70377  0.65338  1.0000
  S   S131      1.0  0.31695  0.65570  0.66042  1.0000
  S   S132      1.0  0.22145  0.48997  0.96759  1.0000
  C   C919      1.0  0.22514  0.68398  0.50526  1.0000
  C   C920      1.0  0.24850  0.66648  0.85916  1.0000
  C   C921      1.0  0.21191  0.71213  0.68336  1.0000
  H   H732      1.0  0.47639  0.58633  0.70490  1.0000
  Fe  Fe67      1.0  0.35927  0.50272  0.82372  1.0000
  C   C922      1.0  0.17939  0.72920  0.70171  1.0000
  C   C923      1.0  0.24310  0.63790  0.56237  1.0000
  C   C924      1.0  0.22589  0.63477  0.57822  1.0000
  C   C925      1.0  0.22898  0.64001  0.60078  1.0000
  C   C926      1.0  0.24929  0.64842  0.60783  1.0000
  C   C927      1.0  0.26647  0.65150  0.59199  1.0000
  C   C928      1.0  0.26338  0.64636  0.56944  1.0000
  H   H733      1.0  0.21027  0.62819  0.57311  1.0000
  H   H734      1.0  0.21557  0.63747  0.61287  1.0000
  H   H735      1.0  0.28217  0.65775  0.59725  1.0000
  H   H736      1.0  0.27686  0.64878  0.55739  1.0000
  H   H737      1.0  0.18087  0.68181  0.60158  1.0000
  H   H738      1.0  0.20669  0.68133  0.66725  1.0000
  C   C929      1.0  0.34709  0.56617  0.74020  1.0000
  C   C930      1.0  0.34524  0.58150  0.75734  1.0000
  C   C931      1.0  0.33766  0.60331  0.75282  1.0000
  C   C932      1.0  0.33165  0.61013  0.73121  1.0000
  C   C933      1.0  0.33359  0.59482  0.71406  1.0000
  C   C934      1.0  0.34131  0.57305  0.71854  1.0000
  H   H739      1.0  0.34971  0.57658  0.77405  1.0000
  H   H740      1.0  0.33648  0.61504  0.76616  1.0000
  H   H741      1.0  0.32910  0.59973  0.69736  1.0000
  H   H742      1.0  0.34269  0.56141  0.70511  1.0000
  H   H743      1.0  0.46716  0.52873  0.80495  1.0000
  H   H744      1.0  0.29967  0.66285  0.75844  1.0000
  C   C935      1.0  0.37704  0.72316  0.64305  1.0000
  H   H745      1.0  0.22108  0.68276  0.58251  1.0000
  C   C936      1.0  0.01699  0.69352  0.57551  1.0000
  H   H746      1.0  0.39700  0.71325  0.61441  1.0000
  H   H747      1.0  0.47171  0.53593  0.65290  1.0000
  C   C937      1.0  0.46009  0.49787  0.69377  1.0000
  H   H748      1.0  0.42112  0.70426  0.52527  1.0000
  H   H749      1.0  0.28886  0.52080  0.92071  1.0000
  C   C938      1.0  0.05420  0.72869  0.54690  1.0000
  C   C939      1.0  0.32748  0.70826  0.77303  1.0000
  C   C940      1.0  0.31372  0.71516  0.79085  1.0000
  H   H750      1.0  0.18642  0.67764  0.76927  1.0000
  H   H751      1.0  0.20691  0.60359  0.98261  1.0000
  S   S133      1.0  0.34107  0.49542  0.79234  1.0000
  C   C941      1.0  0.07780  0.68694  0.49592  1.0000
  H   H752      1.0  0.45284  0.51580  0.76724  1.0000
  H   H753      1.0  0.07732  0.62576  0.58231  1.0000
  C   C942      1.0  0.17554  0.50466  0.49251  1.0000
  H   H754      1.0  0.24893  0.69757  0.60730  1.0000
  H   H755      1.0  0.41132  0.67697  0.49700  1.0000
  H   H756      1.0  0.02737  0.66433  0.55719  1.0000
  Fe  Fe68      1.0  0.02242  0.72245  0.49396  1.0000
  S   S134      1.0  0.05927  0.70985  0.49010  1.0000
  C   C943      1.0  0.00362  0.66232  0.48999  1.0000
  C   C944      1.0  0.07099  0.66805  0.50775  1.0000
  H   H757      1.0  0.25070  0.65515  0.87309  1.0000
  C   C945      1.0  0.29484  0.70314  0.79711  1.0000
  H   H758      1.0  0.14982  0.70569  0.52436  1.0000
  C   C946      1.0  0.21374  0.68488  0.52584  1.0000
  C   C947      1.0  0.99870  0.70738  0.58108  1.0000
  H   H759      1.0  0.01416  0.68929  0.62098  1.0000
  C   C948      1.0  0.46842  0.52003  0.66064  1.0000
  C   C949      1.0  0.11546  0.67008  0.49203  1.0000
  C   C950      1.0  0.09900  0.64886  0.56558  1.0000
  C   C951      1.0  0.99199  0.66932  0.55675  1.0000
  C   C952      1.0  0.21856  0.65741  0.95299  1.0000
  C   C953      1.0  0.19617  0.66333  0.94924  1.0000
  C   C954      1.0  0.18379  0.67449  0.96586  1.0000
  P   P31       1.0  0.18417  0.65853  0.92255  1.0000
  C   C955      1.0  0.18664  0.68294  0.90490  1.0000
  C   C956      1.0  0.19820  0.63457  0.91049  1.0000
  C   C957      1.0  0.20523  0.63440  0.88797  1.0000
  C   C958      1.0  0.21627  0.61584  0.87909  1.0000
  C   C959      1.0  0.22049  0.59733  0.89261  1.0000
  C   C960      1.0  0.21376  0.59739  0.91504  1.0000
  C   C961      1.0  0.20276  0.61590  0.92395  1.0000
  C   C962      1.0  0.19711  0.70179  0.91252  1.0000
  C   C963      1.0  0.15119  0.73168  0.57423  1.0000
  C   C964      1.0  0.06671  0.71521  0.64510  1.0000
  C   C965      1.0  0.02883  0.69675  0.62742  1.0000
  C   C966      1.0  0.17652  0.68384  0.88405  1.0000
  C   C967      1.0  0.15495  0.65222  0.92681  1.0000
  C   C968      1.0  0.14865  0.63224  0.93709  1.0000
  C   C969      1.0  0.12616  0.62698  0.93964  1.0000
  C   C970      1.0  0.10971  0.64149  0.93181  1.0000
  C   C971      1.0  0.11571  0.66164  0.92205  1.0000
  C   C972      1.0  0.13816  0.66723  0.92004  1.0000
  H   H760      1.0  0.05038  0.71022  0.67714  1.0000
  C   C973      1.0  0.12435  0.72774  0.53718  1.0000
  C   C974      1.0  0.14489  0.71644  0.53796  1.0000
  H   H761      1.0  0.22880  0.64964  0.94012  1.0000
  H   H762      1.0  0.16678  0.68004  0.96304  1.0000
  H   H763      1.0  0.20244  0.64849  0.87715  1.0000
  H   H764      1.0  0.22157  0.61578  0.86170  1.0000
  H   H765      1.0  0.22902  0.58294  0.88575  1.0000
  H   H766      1.0  0.21709  0.58309  0.92564  1.0000
  H   H767      1.0  0.19815  0.61564  0.94150  1.0000
  H   H768      1.0  0.27655  0.72033  0.74787  1.0000
  S   S135      1.0  0.21195  0.55620  0.98503  1.0000
  H   H769      1.0  0.20439  0.70197  0.92879  1.0000
  C   C975      1.0  0.37495  0.73841  0.66025  1.0000
  H   H770      1.0  0.16762  0.66981  0.87820  1.0000
  H   H771      1.0  0.16087  0.62078  0.94364  1.0000
  H   H772      1.0  0.12148  0.61186  0.94827  1.0000
  H   H773      1.0  0.09226  0.63757  0.93424  1.0000
  C   C976      1.0  0.04926  0.70837  0.65929  1.0000
  H   H774      1.0  0.14214  0.68347  0.91361  1.0000
  C   C977      1.0  0.26897  0.60407  0.77345  1.0000
  C   C978      1.0  0.28800  0.59632  0.78424  1.0000
  C   C979      1.0  0.29939  0.61027  0.79804  1.0000
  C   C980      1.0  0.29199  0.63209  0.80079  1.0000
  C   C981      1.0  0.27287  0.64003  0.79002  1.0000
  C   C982      1.0  0.26135  0.62581  0.77637  1.0000
  P   P32       1.0  0.26470  0.66877  0.79229  1.0000
  C   C983      1.0  0.25410  0.67553  0.81986  1.0000
  H   H775      1.0  0.18685  0.73711  0.86915  1.0000
  C   C984      1.0  0.20379  0.67880  0.76410  1.0000
  C   C985      1.0  0.41653  0.69329  0.49177  1.0000
  H   H776      1.0  0.34202  0.71760  0.76807  1.0000
  H   H777      1.0  0.99803  0.69220  0.95980  1.0000
  H   H778      1.0  0.31271  0.53565  0.88960  1.0000
  C   C986      1.0  0.25654  0.66074  0.83790  1.0000
  H   H779      1.0  0.22958  0.71229  0.67898  1.0000
  H   H780      1.0  0.08877  0.70374  0.55995  1.0000
  C   C987      1.0  0.03037  0.69908  0.65046  1.0000
  C   C988      1.0  0.24315  0.69595  0.82335  1.0000
  C   C989      1.0  0.24312  0.67536  0.77265  1.0000
  C   C990      1.0  0.22055  0.67352  0.77914  1.0000
  H   H781      1.0  0.46554  0.53301  0.69367  1.0000
  C   C991      1.0  0.20943  0.68592  0.74248  1.0000
  C   C992      1.0  0.23181  0.68745  0.73581  1.0000
  C   C993      1.0  0.24859  0.68187  0.75068  1.0000
  H   H782      1.0  0.26052  0.59336  0.76233  1.0000
  H   H783      1.0  0.29428  0.57966  0.78145  1.0000
  H   H784      1.0  0.31442  0.60432  0.80598  1.0000
  H   H785      1.0  0.30152  0.64293  0.81085  1.0000
  H   H786      1.0  0.24692  0.63156  0.76738  1.0000
  C   C994      1.0  0.06598  0.68086  0.57607  1.0000
  C   C995      1.0  0.99341  0.69120  0.97728  1.0000
  Fe  Fe69      1.0  0.12194  0.70689  0.98301  1.0000
  H   H787      1.0  0.16249  0.51722  0.49306  1.0000
  C   C996      1.0  0.18730  0.72184  0.87883  1.0000
  H   H788      1.0  0.26470  0.64484  0.83572  1.0000
  C   C997      1.0  0.15064  0.72804  0.78210  1.0000
  C   C998      1.0  0.31165  0.51801  0.89215  1.0000
  C   C999      1.0  0.48593  0.57280  0.75899  1.0000
  S   S136      1.0  0.26525  0.73482  0.70249  1.0000
  H   H789      1.0  0.21586  0.66803  0.79582  1.0000
  C   C1000     1.0  0.16837  0.64957  0.59616  1.0000
  H   H790      1.0  0.16835  0.70412  0.85544  1.0000
  H   H791      1.0  0.23632  0.69308  0.71911  1.0000
  H   H792      1.0  0.26574  0.68286  0.74488  1.0000
  C   C1001     1.0  0.30347  0.67740  0.76764  1.0000
  H   H793      1.0  0.35480  0.72189  0.59438  1.0000
  C   C1002     1.0  0.20230  0.72911  0.69611  1.0000
  C   C1003     1.0  0.23781  0.73133  0.60292  1.0000
  C   C1004     1.0  0.04944  0.72762  0.56986  1.0000
  H   H794      1.0  0.16850  0.64493  0.61365  1.0000
  H   H795      1.0  0.28454  0.70886  0.81095  1.0000
  C   C1005     1.0  0.28933  0.68436  0.78523  1.0000
  C   C1006     1.0  0.04613  0.70395  0.61304  1.0000
  H   H796      1.0  0.08051  0.63568  0.52022  1.0000
  H   H797      1.0  0.48573  0.52907  0.74081  1.0000
  C   C1007     1.0  0.48560  0.58276  0.71985  1.0000
  H   H798      1.0  0.05543  0.71375  0.53728  1.0000
  C   C1008     1.0  0.22797  0.66140  0.97353  1.0000
  C   C1009     1.0  0.06335  0.65881  0.58295  1.0000
  C   C1010     1.0  0.07969  0.64285  0.57750  1.0000
  H   H799      1.0  0.20700  0.72870  0.78669  1.0000
  H   H800      1.0  0.31951  0.50132  0.95696  1.0000
  C   C1011     1.0  0.19345  0.67886  0.98622  1.0000
  C   C1012     1.0  0.19785  0.51096  0.49057  1.0000
  C   C1013     1.0  0.19080  0.73029  0.77921  1.0000
  C   C1014     1.0  0.46477  0.51835  0.68369  1.0000
  C   C1015     1.0  0.17631  0.67618  0.56646  1.0000
  C   C1016     1.0  0.20514  0.71442  0.57561  1.0000
  C   C1017     1.0  0.32243  0.68926  0.76155  1.0000
  C   C1018     1.0  0.29796  0.70164  0.57439  1.0000
  C   C1019     1.0  0.21444  0.49410  0.48995  1.0000
  S   S137      1.0  0.33987  0.51542  0.85496  1.0000
  P   P33       1.0  0.45594  0.49582  0.72355  1.0000
  C   C1020     1.0  0.23515  0.70163  0.84460  1.0000
  C   C1021     1.0  0.16139  0.64049  0.55797  1.0000
  C   C1022     1.0  0.16879  0.66120  0.55091  1.0000
  H   H801      1.0  0.21680  0.67209  0.53821  1.0000
  S   S138      1.0  0.26270  0.51906  0.98556  1.0000
  P   P34       1.0  0.04462  0.70123  0.58327  1.0000
  H   H802      1.0  0.27276  0.49261  0.85247  1.0000
  C   C1023     1.0  0.08616  0.65023  0.51129  1.0000
  H   H803      1.0  0.19651  0.69030  0.73091  1.0000
  H   H804      1.0  0.33309  0.68367  0.74779  1.0000
  H   H805      1.0  0.15576  0.62894  0.54588  1.0000
  H   H806      1.0  0.16859  0.66543  0.53332  1.0000
  H   H807      1.0  0.11139  0.63643  0.56077  1.0000
  C   C1024     1.0  0.20678  0.71801  0.49379  1.0000
  H   H808      1.0  0.42164  0.52513  0.70401  1.0000
  S   S139      1.0  0.12676  0.62762  0.50826  1.0000
  H   H809      1.0  0.00785  0.66504  0.50712  1.0000
  C   C1025     1.0  0.29810  0.50962  0.90987  1.0000
  C   C1026     1.0  0.16668  0.71114  0.69576  1.0000
  C   C1027     1.0  0.42426  0.53013  0.72092  1.0000
  C   C1028     1.0  0.41088  0.54714  0.72983  1.0000
  C   C1029     1.0  0.41271  0.55287  0.75213  1.0000
  C   C1030     1.0  0.42812  0.54174  0.76549  1.0000
  C   C1031     1.0  0.44164  0.52488  0.75654  1.0000
  H   H810      1.0  0.34982  0.68262  0.58738  1.0000
  C   C1032     1.0  0.48378  0.49420  0.73424  1.0000
  C   C1033     1.0  0.32361  0.50384  0.87755  1.0000
  H   H811      1.0  0.39815  0.55512  0.71985  1.0000
  H   H812      1.0  0.40147  0.56527  0.75923  1.0000
  H   H813      1.0  0.42899  0.54554  0.78301  1.0000
  H   H814      1.0  0.23664  0.67035  0.50180  1.0000
  Fe  Fe70      1.0  0.40620  0.49511  0.80065  1.0000
  C   C1034     1.0  0.17564  0.67038  0.58920  1.0000
  C   C1035     1.0  0.42879  0.72968  0.50097  1.0000
  C   C1036     1.0  0.33627  0.69425  0.58418  1.0000
  C   C1037     1.0  0.31583  0.68678  0.57710  1.0000
  H   H815      1.0  0.25027  0.73769  0.61374  1.0000
  H   H816      1.0  0.16656  0.68016  0.67858  1.0000
  C   C1038     1.0  0.32137  0.73176  0.58498  1.0000
  C   C1039     1.0  0.12859  0.73446  0.92002  1.0000
  H   H817      1.0  0.31373  0.66937  0.57424  1.0000
  C   C1040     1.0  0.19551  0.71904  0.51449  1.0000
  C   C1041     1.0  0.42205  0.70865  0.50770  1.0000
  H   H818      1.0  0.04853  0.65393  0.59231  1.0000
  C   C1042     1.0  0.19899  0.69462  0.67685  1.0000
  H   H819      1.0  0.20501  0.73577  0.90567  1.0000
  S   S140      1.0  0.99912  0.71737  0.52332  1.0000
  C   C1043     1.0  0.08582  0.68685  0.56478  1.0000
  C   C1044     1.0  0.44002  0.51911  0.73417  1.0000
  C   C1045     1.0  0.17641  0.69404  0.68319  1.0000
  H   H820      1.0  0.08138  0.72231  0.65196  1.0000
  C   C1046     1.0  0.16132  0.63460  0.58054  1.0000
  H   H821      1.0  0.10288  0.67336  0.91697  1.0000
  C   C1047     1.0  0.10216  0.67088  0.55944  1.0000
  H   H822      1.0  0.24508  0.65637  0.97647  1.0000
  C   C1048     1.0  0.47412  0.57740  0.73969  1.0000
  H   H823      1.0  0.28651  0.73529  0.57691  1.0000
  H   H824      1.0  0.24106  0.70765  0.80967  1.0000
  H   H825      1.0  0.47052  0.50256  0.62968  1.0000
  C   C1049     1.0  0.10852  0.65100  0.50344  1.0000
  P   P35       1.0  0.18475  0.70333  0.55745  1.0000
  H   H826      1.0  0.47704  0.56842  0.77435  1.0000
  H   H827      1.0  0.15595  0.61836  0.58585  1.0000
  C   C1050     1.0  0.22100  0.70030  0.58551  1.0000
  H   H828      1.0  0.07884  0.71827  0.61120  1.0000
  H   H829      1.0  0.05400  0.66709  0.51409  1.0000
  C   C1051     1.0  0.01354  0.67463  0.56292  1.0000
  C   C1052     1.0  0.47961  0.51560  0.80446  1.0000
  H   H830      1.0  0.11709  0.67543  0.55006  1.0000
  H   H831      1.0  0.14932  0.71018  0.70103  1.0000
  C   C1053     1.0  0.19844  0.70208  0.53040  1.0000
  Fe  Fe71      1.0  0.16322  0.61749  0.49840  1.0000
  H   H832      1.0  0.16098  0.73277  0.58903  1.0000
  C   C1054     1.0  0.06521  0.71293  0.62206  1.0000
  H   H833      1.0  0.17464  0.62967  0.98812  1.0000
  H   H834      1.0  0.28194  0.69568  0.56947  1.0000
  H   H835      1.0  0.13565  0.72474  0.79197  1.0000
  C   C1055     1.0  0.19753  0.72107  0.89944  1.0000
  H   H836      1.0  0.01690  0.69366  0.66147  1.0000
  H   H837      1.0  0.11600  0.72281  0.92519  1.0000
  C   C1056     1.0  0.23787  0.68693  0.86251  1.0000
  H   H838      1.0  0.26290  0.73351  0.78492  1.0000
  H   H839      1.0  0.22708  0.71759  0.84716  1.0000
  H   H840      1.0  0.36112  0.73734  0.67212  1.0000
  H   H841      1.0  0.17267  0.72098  0.80919  1.0000
  H   H842      1.0  0.31758  0.72994  0.79971  1.0000
  S   S141      1.0  0.14659  0.72803  0.96223  1.0000
  C   C1057     1.0  0.47281  0.49364  0.80413  1.0000
  H   H843      1.0  0.11373  0.72584  0.52301  1.0000
  H   H844      1.0  0.48147  0.73546  0.55110  1.0000
  C   C1058     1.0  0.14908  0.73511  0.75988  1.0000
  H   H845      1.0  0.99701  0.73380  0.94832  1.0000
  H   H846      1.0  0.13278  0.73664  0.75273  1.0000
  C   C1059     1.0  0.18928  0.73736  0.75703  1.0000
  H   H847      1.0  0.23190  0.69146  0.87901  1.0000
  C   C1060     1.0  0.33906  0.71665  0.58810  1.0000
  C   C1061     1.0  0.46778  0.50123  0.64756  1.0000
  C   C1062     1.0  0.20653  0.73725  0.57860  1.0000
  C   C1063     1.0  0.30064  0.72404  0.57854  1.0000
  C   C1064     1.0  0.48567  0.79056  0.47838  1.0000
  S   S142      1.0  0.43564  0.77594  0.36835  1.0000
  C   C1065     1.0  0.13333  0.74674  0.07167  1.0000
  H   H848      1.0  0.02555  0.90158  0.23652  1.0000
  H   H849      1.0  0.45956  0.81961  0.31524  1.0000
  S   S143      1.0  0.01117  0.84027  0.35894  1.0000
  H   H850      1.0  0.23421  0.86242  0.22148  1.0000
  H   H851      1.0  0.13424  0.82858  0.13466  1.0000
  H   H852      1.0  0.42225  0.82009  0.41934  1.0000
  C   C1066     1.0  0.40558  0.76677  0.41980  1.0000
  C   C1067     1.0  0.04125  0.76704  0.18775  1.0000
  H   H853      1.0  0.19512  0.86563  0.23405  1.0000
  H   H854      1.0  0.28005  0.90356  0.19595  1.0000
  C   C1068     1.0  0.48831  0.90851  0.30057  1.0000
  Fe  Fe72      1.0  0.47176  0.78514  0.37510  1.0000
  C   C1069     1.0  0.14297  0.74264  0.11709  1.0000
  S   S144      1.0  0.47695  0.82054  0.38490  1.0000
  Fe  Fe73      1.0  0.17240  0.79129  0.15385  1.0000
  S   S145      1.0  0.20944  0.79013  0.15817  1.0000
  S   S146      1.0  0.15826  0.78576  0.11931  1.0000
  Fe  Fe74      1.0  0.16345  0.80679  0.20156  1.0000
  S   S147      1.0  0.20028  0.80681  0.20893  1.0000
  S   S148      1.0  0.13922  0.81295  0.23134  1.0000
  Fe  Fe75      1.0  0.20529  0.82298  0.17509  1.0000
  S   S149      1.0  0.23389  0.84646  0.16533  1.0000
  Fe  Fe76      1.0  0.20254  0.77439  0.19180  1.0000
  C   C1070     1.0  0.03170  0.81086  0.19866  1.0000
  S   S150      1.0  0.16834  0.82525  0.16885  1.0000
  S   S151      1.0  0.16559  0.77311  0.18615  1.0000
  S   S152      1.0  0.99709  0.83196  0.29409  1.0000
  H   H855      1.0  0.45604  0.80216  0.43479  1.0000
  H   H856      1.0  0.99284  0.92425  0.22478  1.0000
  C   C1071     1.0  0.10293  0.83884  0.12082  1.0000
  C   C1072     1.0  0.02098  0.79385  0.21032  1.0000
  H   H857      1.0  0.06990  0.84433  0.10850  1.0000
  Fe  Fe77      1.0  0.01644  0.85787  0.27479  1.0000
  S   S153      1.0  0.03938  0.85235  0.24387  1.0000
  S   S154      1.0  0.02211  0.87856  0.30496  1.0000
  H   H858      1.0  0.17900  0.83801  0.26037  1.0000
  Fe  Fe78      1.0  0.32965  0.98538  0.12673  1.0000
  H   H859      1.0  0.20259  0.80698  0.27425  1.0000
  H   H860      1.0  0.43105  0.95655  0.23037  1.0000
  H   H861      1.0  0.30056  0.85636  0.26076  1.0000
  C   C1073     1.0  0.23585  0.91124  0.01963  1.0000
  C   C1074     1.0  0.25426  0.92119  0.00931  1.0000
  S   S155      1.0  0.25810  0.94902  0.15835  1.0000
  S   S156      1.0  0.30971  0.95796  0.11201  1.0000
  C   C1075     1.0  0.02136  0.96373  0.25077  1.0000
  H   H862      1.0  0.04547  0.74997  0.18428  1.0000
  C   C1076     1.0  0.30280  0.78449  0.28519  1.0000
  C   C1077     1.0  0.22627  0.98210  0.06716  1.0000
  H   H863      1.0  0.00034  0.92271  0.35097  1.0000
  H   H864      1.0  0.06086  0.74344  0.44036  1.0000
  C   C1078     1.0  0.23912  0.87527  0.16235  1.0000
  C   C1079     1.0  0.22625  0.89139  0.17345  1.0000
  C   C1080     1.0  0.23219  0.91382  0.17184  1.0000
  C   C1081     1.0  0.25078  0.92057  0.15878  1.0000
  C   C1082     1.0  0.26352  0.90446  0.14751  1.0000
  C   C1083     1.0  0.25788  0.88200  0.14953  1.0000
  H   H865      1.0  0.21196  0.88654  0.18360  1.0000
  H   H866      1.0  0.22227  0.92604  0.18077  1.0000
  H   H867      1.0  0.27790  0.90925  0.13746  1.0000
  H   H868      1.0  0.26809  0.86971  0.14101  1.0000
  C   C1084     1.0  0.11136  0.82384  0.23418  1.0000
  C   C1085     1.0  0.09930  0.83193  0.21604  1.0000
  C   C1086     1.0  0.07741  0.84063  0.21936  1.0000
  C   C1087     1.0  0.06716  0.84126  0.24077  1.0000
  C   C1088     1.0  0.07919  0.83308  0.25885  1.0000
  C   C1089     1.0  0.10109  0.82448  0.25555  1.0000
  H   H869      1.0  0.10690  0.83166  0.19950  1.0000
  H   H870      1.0  0.06843  0.84706  0.20524  1.0000
  H   H871      1.0  0.07164  0.83339  0.27541  1.0000
  H   H872      1.0  0.11018  0.81829  0.26973  1.0000
  H   H873      1.0  0.24189  0.80336  0.26199  1.0000
  H   H874      1.0  0.38983  0.76526  0.36274  1.0000
  H   H875      1.0  0.23008  0.76964  0.24266  1.0000
  C   C1090     1.0  0.11663  0.82523  0.13378  1.0000
  H   H876      1.0  0.01744  0.80451  0.43330  1.0000
  H   H877      1.0  0.39015  0.79747  0.40938  1.0000
  C   C1091     1.0  0.14726  0.76256  0.10587  1.0000
  H   H878      1.0  0.27331  0.83276  0.28127  1.0000
  H   H879      1.0  0.14561  0.77976  0.07425  1.0000
  C   C1092     1.0  0.06427  0.76128  0.13293  1.0000
  C   C1093     1.0  0.04132  0.92862  0.25215  1.0000
  C   C1094     1.0  0.12863  0.93043  0.25191  1.0000
  H   H880      1.0  0.48219  0.77996  0.46470  1.0000
  C   C1095     1.0  0.47454  0.89474  0.31388  1.0000
  H   H881      1.0  0.47237  0.86543  0.33502  1.0000
  H   H882      1.0  0.45697  0.89885  0.31578  1.0000
  C   C1096     1.0  0.03070  0.74357  0.42177  1.0000
  C   C1097     1.0  0.99767  0.96753  0.31798  1.0000
  S   S157      1.0  0.48981  0.96483  0.22871  1.0000
  C   C1098     1.0  0.02570  0.77194  0.20483  1.0000
  C   C1099     1.0  0.16881  0.74749  0.29123  1.0000
  C   C1100     1.0  0.00609  0.93174  0.23360  1.0000
  H   H883      1.0  0.26625  0.86579  0.19895  1.0000
  C   C1101     1.0  0.14241  0.76443  0.08311  1.0000
  S   S158      1.0  0.28638  0.97705  0.05131  1.0000
  H   H884      1.0  0.99881  0.74290  0.17196  1.0000
  H   H885      1.0  0.02857  0.83010  0.40234  1.0000
  H   H886      1.0  0.00953  0.79768  0.22405  1.0000
  H   H887      1.0  0.10991  0.85293  0.11203  1.0000
  C   C1102     1.0  0.37385  0.84550  0.17714  1.0000
  C   C1103     1.0  0.35675  0.83893  0.19192  1.0000
  C   C1104     1.0  0.34644  0.85428  0.20613  1.0000
  C   C1105     1.0  0.35315  0.87622  0.20551  1.0000
  C   C1106     1.0  0.37020  0.88300  0.19060  1.0000
  C   C1107     1.0  0.38062  0.86744  0.17649  1.0000
  P   P36       1.0  0.37834  0.91152  0.18990  1.0000
  C   C1108     1.0  0.35301  0.92819  0.18997  1.0000
  C   C1109     1.0  0.39539  0.91752  0.21333  1.0000
  C   C1110     1.0  0.40765  0.93697  0.21312  1.0000
  C   C1111     1.0  0.42159  0.94152  0.23066  1.0000
  C   C1112     1.0  0.42351  0.92665  0.24852  1.0000
  C   C1113     1.0  0.41140  0.90723  0.24889  1.0000
  C   C1114     1.0  0.39738  0.90263  0.23137  1.0000
  C   C1115     1.0  0.35108  0.94774  0.20213  1.0000
  C   C1116     1.0  0.33120  0.96025  0.20205  1.0000
  C   C1117     1.0  0.31322  0.95337  0.18980  1.0000
  C   C1118     1.0  0.31516  0.93415  0.17742  1.0000
  C   C1119     1.0  0.33487  0.92152  0.17759  1.0000
  C   C1120     1.0  0.39457  0.91720  0.16473  1.0000
  C   C1121     1.0  0.38458  0.92651  0.14582  1.0000
  C   C1122     1.0  0.39740  0.93096  0.12655  1.0000
  C   C1123     1.0  0.42027  0.92616  0.12596  1.0000
  C   C1124     1.0  0.43035  0.91680  0.14466  1.0000
  C   C1125     1.0  0.41757  0.91229  0.16396  1.0000
  H   H888      1.0  0.38183  0.83359  0.16612  1.0000
  H   H889      1.0  0.35150  0.82194  0.19236  1.0000
  H   H890      1.0  0.33323  0.84918  0.21761  1.0000
  H   H891      1.0  0.34504  0.88796  0.21660  1.0000
  H   H892      1.0  0.39380  0.87216  0.16485  1.0000
  H   H893      1.0  0.40652  0.94858  0.19929  1.0000
  C   C1126     1.0  0.21952  0.90204  0.00672  1.0000
  H   H894      1.0  0.43450  0.93015  0.26202  1.0000
  H   H895      1.0  0.41310  0.89567  0.26272  1.0000
  H   H896      1.0  0.38844  0.88735  0.23193  1.0000
  H   H897      1.0  0.36488  0.95358  0.21144  1.0000
  H   H898      1.0  0.25382  0.76611  0.33104  1.0000
  H   H899      1.0  0.29785  0.96307  0.18951  1.0000
  H   H900      1.0  0.30141  0.92915  0.16747  1.0000
  H   H901      1.0  0.33606  0.90674  0.16772  1.0000
  H   H902      1.0  0.36703  0.93095  0.14589  1.0000
  H   H903      1.0  0.38960  0.93880  0.11230  1.0000
  H   H904      1.0  0.43017  0.93000  0.11111  1.0000
  H   H905      1.0  0.44813  0.91327  0.14428  1.0000
  H   H906      1.0  0.42568  0.90512  0.17834  1.0000
  H   H907      1.0  0.30428  0.91794  0.22500  1.0000
  S   S159      1.0  0.47620  0.93236  0.28712  1.0000
  H   H908      1.0  0.15662  0.75923  0.29790  1.0000
  H   H909      1.0  0.00946  0.88783  0.37119  1.0000
  C   C1127     1.0  0.08803  0.95072  0.26516  1.0000
  Fe  Fe79      1.0  0.00072  0.85345  0.32407  1.0000
  H   H910      1.0  0.29832  0.78975  0.22922  1.0000
  H   H911      1.0  0.08046  0.95043  0.23011  1.0000
  H   H912      1.0  0.99236  0.85027  0.21687  1.0000
  C   C1128     1.0  0.28122  0.97790  0.00561  1.0000
  H   H913      1.0  0.45799  0.76173  0.43996  1.0000
  H   H914      1.0  0.48858  0.76432  0.24772  1.0000
  C   C1129     1.0  0.04209  0.75440  0.13223  1.0000
  C   C1130     1.0  0.25431  0.75099  0.26184  1.0000
  H   H915      1.0  0.31443  0.89413  0.25734  1.0000
  C   C1131     1.0  0.11515  0.75866  0.20597  1.0000
  C   C1132     1.0  0.47951  0.76316  0.29178  1.0000
  C   C1133     1.0  0.05822  0.96647  0.34179  1.0000
  C   C1134     1.0  0.29163  0.80383  0.29181  1.0000
  C   C1135     1.0  0.42321  0.75305  0.35559  1.0000
  C   C1136     1.0  0.05620  0.95677  0.30276  1.0000
  H   H916      1.0  0.30905  0.77282  0.29752  1.0000
  H   H917      1.0  0.20528  0.89424  0.01475  1.0000
  H   H918      1.0  0.19889  0.95978  0.06744  1.0000
  C   C1137     1.0  0.10791  0.80678  0.14491  1.0000
  C   C1138     1.0  0.40466  0.78967  0.41669  1.0000
  C   C1139     1.0  0.29055  0.81285  0.16949  1.0000
  C   C1140     1.0  0.27725  0.79475  0.16573  1.0000
  C   C1141     1.0  0.26212  0.78763  0.18224  1.0000
  C   C1142     1.0  0.25973  0.79898  0.20224  1.0000
  C   C1143     1.0  0.27266  0.81746  0.20602  1.0000
  C   C1144     1.0  0.28859  0.82393  0.18971  1.0000
  P   P37       1.0  0.27074  0.83074  0.23274  1.0000
  C   C1145     1.0  0.24161  0.83319  0.24152  1.0000
  C   C1146     1.0  0.28504  0.81359  0.25304  1.0000
  C   C1147     1.0  0.28269  0.81828  0.27584  1.0000
  H   H919      1.0  0.43427  0.78776  0.31711  1.0000
  H   H920      1.0  0.02915  0.76138  0.42095  1.0000
  C   C1148     1.0  0.30535  0.77976  0.26259  1.0000
  C   C1149     1.0  0.29661  0.79423  0.24654  1.0000
  C   C1150     1.0  0.23220  0.81746  0.25625  1.0000
  C   C1151     1.0  0.20984  0.81943  0.26332  1.0000
  C   C1152     1.0  0.19656  0.83697  0.25558  1.0000
  C   C1153     1.0  0.20564  0.85251  0.24071  1.0000
  C   C1154     1.0  0.22799  0.85059  0.23359  1.0000
  C   C1155     1.0  0.28199  0.85820  0.23028  1.0000
  C   C1156     1.0  0.27666  0.87177  0.21191  1.0000
  C   C1157     1.0  0.28463  0.89320  0.21006  1.0000
  C   C1158     1.0  0.29819  0.90128  0.22645  1.0000
  C   C1159     1.0  0.30387  0.88786  0.24465  1.0000
  C   C1160     1.0  0.29585  0.86639  0.24657  1.0000
  H   H921      1.0  0.30223  0.81841  0.15665  1.0000
  H   H922      1.0  0.27858  0.78626  0.15002  1.0000
  H   H923      1.0  0.26547  0.97022  0.00952  1.0000
  H   H924      1.0  0.24793  0.79318  0.21480  1.0000
  H   H925      1.0  0.29938  0.83759  0.19237  1.0000
  H   H926      1.0  0.12951  0.74859  0.05424  1.0000
  H   H927      1.0  0.23867  0.96935  0.07079  1.0000
  C   C1161     1.0  0.24050  0.75493  0.24345  1.0000
  C   C1162     1.0  0.08044  0.83396  0.11883  1.0000
  C   C1163     1.0  0.45073  0.78604  0.30931  1.0000
  H   H928      1.0  0.26696  0.92833  0.01936  1.0000
  H   H929      1.0  0.25467  0.76297  0.27494  1.0000
  C   C1164     1.0  0.42278  0.80242  0.42218  1.0000
  C   C1165     1.0  0.45793  0.76572  0.30087  1.0000
  C   C1166     1.0  0.17382  0.74750  0.26838  1.0000
  C   C1167     1.0  0.38457  0.98586  0.15818  1.0000
  H   H930      1.0  0.22301  0.74650  0.31468  1.0000
  H   H931      1.0  0.41433  0.97451  0.14059  1.0000
  H   H932      1.0  0.47844  0.97691  0.31425  1.0000
  H   H933      1.0  0.23431  0.91060  0.03766  1.0000
  H   H934      1.0  0.06174  0.97843  0.35435  1.0000
  C   C1168     1.0  0.29520  0.98330  0.02313  1.0000
  H   H935      1.0  0.13657  0.93067  0.28665  1.0000
  Fe  Fe80      1.0  0.29654  0.98382  0.08760  1.0000
  S   S160      1.0  0.36691  0.98058  0.13523  1.0000
  P   P38       1.0  0.07395  0.77726  0.15576  1.0000
  H   H936      1.0  0.09391  0.78637  0.19815  1.0000
  C   C1169     1.0  0.44188  0.79228  0.43076  1.0000
  H   H937      1.0  0.11612  0.93235  0.21866  1.0000
  C   C1170     1.0  0.02448  0.91901  0.24023  1.0000
  C   C1171     1.0  0.10411  0.94525  0.28098  1.0000
  C   C1172     1.0  0.04872  0.93581  0.30936  1.0000
  C   C1173     1.0  0.42472  0.75646  0.42846  1.0000
  H   H938      1.0  0.10106  0.94862  0.29845  1.0000
  C   C1174     1.0  0.04716  0.80604  0.18149  1.0000
  C   C1175     1.0  0.48323  0.87570  0.32483  1.0000
  C   C1176     1.0  0.10048  0.77060  0.19246  1.0000
  S   S161      1.0  0.22251  0.74354  0.20284  1.0000
  H   H939      1.0  0.04033  0.91402  0.33683  1.0000
  H   H940      1.0  0.01779  0.75876  0.21428  1.0000
  H   H941      1.0  0.04823  0.94142  0.36565  1.0000
  C   C1177     1.0  0.07168  0.81542  0.12977  1.0000
  C   C1178     1.0  0.00456  0.95407  0.23881  1.0000
  H   H942      1.0  0.28944  0.80729  0.30938  1.0000
  C   C1179     1.0  0.44293  0.76939  0.43368  1.0000
  C   C1180     1.0  0.46496  0.80397  0.30826  1.0000
  H   H943      1.0  0.11906  0.79618  0.15435  1.0000
  C   C1181     1.0  0.48649  0.80155  0.29897  1.0000
  C   C1182     1.0  0.11281  0.93606  0.23604  1.0000
  H   H944      1.0  0.31342  0.76438  0.25760  1.0000
  H   H945      1.0  0.16558  0.75923  0.25733  1.0000
  H   H946      1.0  0.14419  0.92235  0.24683  1.0000
  H   H947      1.0  0.09605  0.76206  0.11484  1.0000
  C   C1183     1.0  0.08532  0.80181  0.14304  1.0000
  Fe  Fe81      1.0  0.28186  0.96906  0.13544  1.0000
  H   H948      1.0  0.05434  0.81152  0.12770  1.0000
  C   C1184     1.0  0.03990  0.95108  0.25758  1.0000
  C   C1185     1.0  0.20390  0.97674  0.06519  1.0000
  C   C1186     1.0  0.05190  0.78407  0.17574  1.0000
  C   C1187     1.0  0.09260  0.94624  0.24260  1.0000
  C   C1188     1.0  0.04605  0.93026  0.33194  1.0000
  H   H949      1.0  0.25207  0.77337  0.17947  1.0000
  H   H950      1.0  0.44685  0.75184  0.30181  1.0000
  C   C1189     1.0  0.23987  0.73960  0.22633  1.0000
  C   C1190     1.0  0.01428  0.81979  0.40054  1.0000
  H   H951      1.0  0.28192  0.74571  0.35341  1.0000
  H   H952      1.0  0.12001  0.76547  0.22166  1.0000
  H   H953      1.0  0.04494  0.92366  0.29715  1.0000
  H   H954      1.0  0.48496  0.74714  0.28579  1.0000
  C   C1191     1.0  0.06134  0.97192  0.31922  1.0000
  C   C1192     1.0  0.39980  0.75222  0.35512  1.0000
  H   H955      1.0  0.05525  0.91834  0.25740  1.0000
  H   H956      1.0  0.25985  0.98291  0.21266  1.0000
  C   C1193     1.0  0.09439  0.76226  0.17186  1.0000
  C   C1194     1.0  0.07182  0.74442  0.09697  1.0000
  C   C1195     1.0  0.12432  0.93510  0.27435  1.0000
  P   P39       1.0  0.06155  0.96311  0.27358  1.0000
  H   H957      1.0  0.05597  0.81951  0.17350  1.0000
  C   C1196     1.0  0.00803  0.80517  0.41821  1.0000
  H   H958      1.0  0.03013  0.75853  0.14531  1.0000
  C   C1197     1.0  0.05059  0.94565  0.34816  1.0000
  C   C1198     1.0  0.03500  0.74229  0.11418  1.0000
  C   C1199     1.0  0.00230  0.82121  0.38065  1.0000
  H   H959      1.0  0.18871  0.74646  0.99513  1.0000
  H   H960      1.0  0.02868  0.82780  0.20353  1.0000
  H   H961      1.0  0.19552  0.75439  0.11622  1.0000
  H   H962      1.0  0.44003  0.98206  0.17123  1.0000
  H   H963      1.0  0.32989  0.97551  0.21114  1.0000
  H   H964      1.0  0.01945  0.98089  0.25501  1.0000
  H   H965      1.0  0.39158  0.75725  0.41487  1.0000
  H   H966      1.0  0.43516  0.75182  0.47371  1.0000
  C   C1200     1.0  0.40768  0.98125  0.15600  1.0000
  C   C1201     1.0  0.42237  0.98555  0.17341  1.0000
  C   C1202     1.0  0.99229  0.89361  0.37019  1.0000
  H   H967      1.0  0.00440  0.95464  0.32852  1.0000
  C   C1203     1.0  0.25234  0.74854  0.33388  1.0000
  C   C1204     1.0  0.10351  0.74195  0.16481  1.0000
  Fe  Fe82      1.0  0.48730  0.96294  0.26637  1.0000
  H   H968      1.0  0.14669  0.74090  0.13455  1.0000
  C   C1205     1.0  0.07898  0.75649  0.11497  1.0000
  H   H969      1.0  0.08328  0.74062  0.08323  1.0000
  H   H970      1.0  0.06775  0.98797  0.31474  1.0000
  H   H971      1.0  0.48630  0.89365  0.37286  1.0000
  H   H972      1.0  0.48956  0.76194  0.20695  1.0000
  H   H973      1.0  0.17072  0.98910  0.05897  1.0000
  C   C1206     1.0  0.04878  0.76769  0.57071  1.0000
  C   C1207     1.0  0.27107  0.91665  0.93367  1.0000
  H   H974      1.0  0.24554  0.86758  0.95728  1.0000
  H   H975      1.0  0.29288  0.81725  0.52190  1.0000
  C   C1208     1.0  0.28651  0.76925  0.65828  1.0000
  C   C1209     1.0  0.21914  0.88921  0.91208  1.0000
  C   C1210     1.0  0.21087  0.86971  0.90373  1.0000
  C   C1211     1.0  0.23569  0.86840  0.94243  1.0000
  S   S162      1.0  0.02184  0.93637  0.69571  1.0000
  C   C1212     1.0  0.47528  0.76527  0.69853  1.0000
  C   C1213     1.0  0.02012  0.74405  0.92255  1.0000
  C   C1214     1.0  0.12843  0.74400  0.89838  1.0000
  Fe  Fe83      1.0  0.02029  0.85377  0.70985  1.0000
  S   S163      1.0  0.03979  0.83201  0.73458  1.0000
  S   S164      1.0  0.03126  0.87275  0.67908  1.0000
  Fe  Fe84      1.0  0.45927  0.78741  0.62872  1.0000
  S   S165      1.0  0.42767  0.77913  0.64928  1.0000
  S   S166      1.0  0.46265  0.81771  0.60649  1.0000
  C   C1215     1.0  0.28832  0.77465  0.61822  1.0000
  H   H976      1.0  0.33441  0.74674  0.63644  1.0000
  C   C1216     1.0  0.20775  0.94549  0.94449  1.0000
  H   H977      1.0  0.00573  0.81583  0.76356  1.0000
  C   C1217     1.0  0.28124  0.96240  0.72974  1.0000
  H   H978      1.0  0.20869  0.89572  0.97372  1.0000
  Fe  Fe85      1.0  0.28923  0.96537  0.87545  1.0000
  S   S167      1.0  0.28177  0.92916  0.86787  1.0000
  S   S168      1.0  0.32340  0.97272  0.88855  1.0000
  Fe  Fe86      1.0  0.16483  0.79365  0.84115  1.0000
  S   S169      1.0  0.20082  0.80296  0.84396  1.0000
  S   S170      1.0  0.14355  0.77048  0.86352  1.0000
  Fe  Fe87      1.0  0.16078  0.81651  0.79477  1.0000
  S   S171      1.0  0.19687  0.82659  0.79435  1.0000
  S   S172      1.0  0.14189  0.82653  0.76320  1.0000
  Fe  Fe88      1.0  0.20456  0.79254  0.80793  1.0000
  S   S173      1.0  0.23300  0.76818  0.79884  1.0000
  Fe  Fe89      1.0  0.19069  0.83657  0.83000  1.0000
  S   S174      1.0  0.19762  0.87225  0.84062  1.0000
  S   S175      1.0  0.16914  0.78177  0.80578  1.0000
  S   S176      1.0  0.15405  0.82794  0.82976  1.0000
  C   C1218     1.0  0.24343  0.76329  0.73140  1.0000
  H   H979      1.0  0.10371  0.75889  0.66804  1.0000
  H   H980      1.0  0.26522  0.96039  0.72219  1.0000
  H   H981      1.0  0.27097  0.92964  0.97872  1.0000
  C   C1219     1.0  0.99158  0.81057  0.79654  1.0000
  S   S177      1.0  0.99160  0.76596  0.56047  1.0000
  C   C1220     1.0  0.25813  0.91380  0.86000  1.0000
  C   C1221     1.0  0.26056  0.89084  0.85730  1.0000
  C   C1222     1.0  0.24246  0.87791  0.85107  1.0000
  C   C1223     1.0  0.22150  0.88774  0.84760  1.0000
  C   C1224     1.0  0.21903  0.91071  0.85044  1.0000
  C   C1225     1.0  0.23720  0.92367  0.85641  1.0000
  H   H982      1.0  0.27660  0.88294  0.86003  1.0000
  H   H983      1.0  0.24469  0.86030  0.84916  1.0000
  H   H984      1.0  0.20292  0.91854  0.84794  1.0000
  H   H985      1.0  0.23498  0.94126  0.85827  1.0000
  S   S178      1.0  0.47791  0.76552  0.60478  1.0000
  H   H986      1.0  0.00346  0.84457  0.57854  1.0000
  C   C1226     1.0  0.31328  0.77803  0.56939  1.0000
  C   C1227     1.0  0.25762  0.74458  0.72951  1.0000
  H   H987      1.0  0.17365  0.77648  0.90095  1.0000
  C   C1228     1.0  0.31615  0.92128  0.92108  1.0000
  C   C1229     1.0  0.21503  0.84960  0.91460  1.0000
  C   C1230     1.0  0.47388  0.74887  0.68263  1.0000
  C   C1231     1.0  0.06806  0.83238  0.74299  1.0000
  C   C1232     1.0  0.07357  0.82339  0.76397  1.0000
  C   C1233     1.0  0.09595  0.82184  0.77071  1.0000
  C   C1234     1.0  0.11321  0.82880  0.75629  1.0000
  C   C1235     1.0  0.10768  0.83771  0.73532  1.0000
  C   C1236     1.0  0.08528  0.83979  0.72881  1.0000
  H   H988      1.0  0.06044  0.81750  0.77507  1.0000
  H   H989      1.0  0.09988  0.81492  0.78688  1.0000
  H   H990      1.0  0.12089  0.84288  0.72393  1.0000
  H   H991      1.0  0.08141  0.84652  0.71254  1.0000
  Fe  Fe90      1.0  0.48345  0.79588  0.58321  1.0000
  H   H992      1.0  0.33350  0.92317  0.91610  1.0000
  C   C1237     1.0  0.19494  0.96301  0.93583  1.0000
  H   H993      1.0  0.36328  0.75200  0.56191  1.0000
  C   C1238     1.0  0.99455  0.78912  0.57842  1.0000
  S   S179      1.0  0.47875  0.93456  0.70389  1.0000
  Fe  Fe91      1.0  0.48904  0.96626  0.72219  1.0000
  C   C1239     1.0  0.01203  0.96450  0.69271  1.0000
  C   C1240     1.0  0.99108  0.97017  0.68434  1.0000
  S   S180      1.0  0.99986  0.88231  0.72336  1.0000
  S   S181      1.0  0.00135  0.84828  0.62631  1.0000
  C   C1241     1.0  0.28177  0.93667  0.93672  1.0000
  C   C1242     1.0  0.05698  0.74904  0.53608  1.0000
  H   H994      1.0  0.48802  0.94901  0.65328  1.0000
  H   H995      1.0  0.04549  0.78284  0.57966  1.0000
  C   C1243     1.0  0.00414  0.75714  0.88808  1.0000
  C   C1244     1.0  0.22748  0.84893  0.93393  1.0000
  C   C1245     1.0  0.04659  0.96257  0.78167  1.0000
  C   C1246     1.0  0.39771  0.78170  0.59325  1.0000
  H   H996      1.0  0.29977  0.77753  0.51460  1.0000
  C   C1247     1.0  0.24010  0.91273  0.97287  1.0000
  C   C1248     1.0  0.14463  0.75925  0.89122  1.0000
  H   H997      1.0  0.45802  0.74570  0.67515  1.0000
  C   C1249     1.0  0.03114  0.86831  0.77578  1.0000
  C   C1250     1.0  0.03327  0.86277  0.79827  1.0000
  C   C1251     1.0  0.05100  0.87086  0.81005  1.0000
  C   C1252     1.0  0.06662  0.88445  0.79932  1.0000
  C   C1253     1.0  0.06493  0.88965  0.77652  1.0000
  C   C1254     1.0  0.04694  0.88160  0.76488  1.0000
  P   P40       1.0  0.08434  0.90843  0.76317  1.0000
  C   C1255     1.0  0.08838  0.90214  0.73395  1.0000
  C   C1256     1.0  0.07283  0.93615  0.76498  1.0000
  C   C1257     1.0  0.05672  0.94158  0.78150  1.0000
  C   C1258     1.0  0.99487  0.80356  0.61663  1.0000
  H   H998      1.0  0.04093  0.74714  0.59898  1.0000
  H   H999      1.0  0.00633  0.76343  0.87120  1.0000
  C   C1259     1.0  0.07919  0.95228  0.74913  1.0000
  C   C1260     1.0  0.10800  0.89157  0.72597  1.0000
  C   C1261     1.0  0.11119  0.88768  0.70319  1.0000
  H   H1000     1.0  0.01609  0.92622  0.74484  1.0000
  C   C1262     1.0  0.07558  0.90530  0.69593  1.0000
  C   C1263     1.0  0.07220  0.90897  0.71868  1.0000
  C   C1264     1.0  0.11065  0.90578  0.77706  1.0000
  C   C1265     1.0  0.11962  0.88471  0.78185  1.0000
  C   C1266     1.0  0.13987  0.88233  0.79265  1.0000
  C   C1267     1.0  0.15126  0.90094  0.79901  1.0000
  C   C1268     1.0  0.14245  0.92199  0.79435  1.0000
  C   C1269     1.0  0.12224  0.92445  0.78334  1.0000
  H   H1001     1.0  0.01753  0.86185  0.76656  1.0000
  H   H1002     1.0  0.02127  0.85205  0.80645  1.0000
  H   H1003     1.0  0.05277  0.86649  0.82749  1.0000
  H   H1004     1.0  0.08005  0.89080  0.80887  1.0000
  H   H1005     1.0  0.04513  0.88522  0.74734  1.0000
  H   H1006     1.0  0.13279  0.77760  0.74173  1.0000
  C   C1270     1.0  0.05414  0.76855  0.54794  1.0000
  C   C1271     1.0  0.30434  0.93877  0.93100  1.0000
  H   H1007     1.0  0.26071  0.78530  0.63948  1.0000
  H   H1008     1.0  0.09165  0.94854  0.73627  1.0000
  H   H1009     1.0  0.12087  0.88610  0.73714  1.0000
  C   C1272     1.0  0.99293  0.78585  0.60173  1.0000
  H   H1010     1.0  0.46772  0.86478  0.66449  1.0000
  H   H1011     1.0  0.05702  0.91741  0.72426  1.0000
  H   H1012     1.0  0.11102  0.87007  0.77709  1.0000
  H   H1013     1.0  0.14680  0.86600  0.79601  1.0000
  H   H1014     1.0  0.16691  0.89894  0.80756  1.0000
  H   H1015     1.0  0.15135  0.93638  0.79928  1.0000
  H   H1016     1.0  0.11573  0.94087  0.77985  1.0000
  C   C1273     1.0  0.16109  0.76480  0.90610  1.0000
  C   C1274     1.0  0.28300  0.89916  0.92354  1.0000
  H   H1017     1.0  0.27507  0.88379  0.92016  1.0000
  H   H1018     1.0  0.31264  0.95407  0.93406  1.0000
  C   C1275     1.0  0.47308  0.89540  0.68161  1.0000
  H   H1019     1.0  0.14110  0.74525  0.67844  1.0000
  H   H1020     1.0  0.48118  0.85421  0.74881  1.0000
  C   C1276     1.0  0.99848  0.81049  0.57029  1.0000
  C   C1277     1.0  0.27697  0.77724  0.63870  1.0000
  C   C1278     1.0  0.25644  0.92193  0.98606  1.0000
  H   H1021     1.0  0.22332  0.97109  0.88666  1.0000
  H   H1022     1.0  0.21606  0.90446  0.90300  1.0000
  S   S182      1.0  0.01797  0.75966  0.49482  1.0000
  H   H1023     1.0  0.27272  0.95061  0.94375  1.0000
  H   H1024     1.0  0.20873  0.83454  0.90788  1.0000
  C   C1279     1.0  0.41111  0.74155  0.62971  1.0000
  C   C1280     1.0  0.16133  0.75515  0.92771  1.0000
  C   C1281     1.0  0.13102  0.75441  0.69043  1.0000
  C   C1282     1.0  0.45102  0.91275  0.75755  1.0000
  H   H1025     1.0  0.01348  0.91336  0.78428  1.0000
  C   C1283     1.0  0.38490  0.98337  0.82980  1.0000
  H   H1026     1.0  0.00664  0.80283  0.80283  1.0000
  H   H1027     1.0  0.38874  0.76706  0.67521  1.0000
  C   C1284     1.0  0.44908  0.92342  0.77796  1.0000
  H   H1028     1.0  0.21295  0.74192  0.70178  1.0000
  C   C1285     1.0  0.04623  0.74732  0.58163  1.0000
  C   C1286     1.0  0.29855  0.80633  0.53513  1.0000
  C   C1287     1.0  0.00007  0.92324  0.77732  1.0000
  H   H1029     1.0  0.43403  0.93275  0.78232  1.0000
  C   C1288     1.0  0.39070  0.75524  0.66199  1.0000
  C   C1289     1.0  0.48479  0.79732  0.51872  1.0000
  H   H1030     1.0  0.42854  0.96029  0.74505  1.0000
  H   H1031     1.0  0.23085  0.83328  0.94224  1.0000
  H   H1032     1.0  0.05531  0.78434  0.53935  1.0000
  H   H1033     1.0  0.34907  0.78678  0.62300  1.0000
  H   H1034     1.0  0.09738  0.89145  0.67055  1.0000
  C   C1290     1.0  0.40887  0.75696  0.64675  1.0000
  H   H1035     1.0  0.27630  0.97822  0.96997  1.0000
  H   H1036     1.0  0.05170  0.92959  0.79406  1.0000
  H   H1037     1.0  0.46041  0.77469  0.70331  1.0000
  H   H1038     1.0  0.31355  0.80744  0.58926  1.0000
  C   C1291     1.0  0.09498  0.89451  0.68818  1.0000
  H   H1039     1.0  0.43316  0.74160  0.51331  1.0000
  H   H1040     1.0  0.19066  0.98580  0.90825  1.0000
  C   C1292     1.0  0.05262  0.97833  0.76551  1.0000
  H   H1041     1.0  0.47231  0.89459  0.73505  1.0000
  C   C1293     1.0  0.38255  0.78820  0.61006  1.0000
  C   C1294     1.0  0.36044  0.78144  0.60979  1.0000
  H   H1042     1.0  0.06308  0.91087  0.68429  1.0000
  C   C1295     1.0  0.26399  0.98307  0.79238  1.0000
  C   C1296     1.0  0.31858  0.75567  0.63695  1.0000
  C   C1297     1.0  0.30723  0.75834  0.65738  1.0000
  H   H1043     1.0  0.99985  0.81345  0.55251  1.0000
  H   H1044     1.0  0.33837  0.92547  0.84679  1.0000
  C   C1298     1.0  0.23140  0.88873  0.93167  1.0000
  S   S183      1.0  0.99076  0.83871  0.69356  1.0000
  H   H1045     1.0  0.24689  0.96329  0.81737  1.0000
  Fe  Fe92      1.0  0.00062  0.85913  0.66325  1.0000
  H   H1046     1.0  0.38818  0.79806  0.62363  1.0000
  C   C1299     1.0  0.30248  0.81470  0.55617  1.0000
  C   C1300     1.0  0.24269  0.76004  0.77188  1.0000
  Fe  Fe93      1.0  0.00886  0.90087  0.69170  1.0000
  C   C1301     1.0  0.46695  0.92288  0.79237  1.0000
  C   C1302     1.0  0.30543  0.90155  0.91717  1.0000
  C   C1303     1.0  0.10522  0.78027  0.71987  1.0000
  C   C1304     1.0  0.25739  0.74178  0.76999  1.0000
  H   H1047     1.0  0.27772  0.77114  0.67417  1.0000
  C   C1305     1.0  0.18214  0.77596  0.71622  1.0000
  C   C1306     1.0  0.18246  0.79051  0.73413  1.0000
  C   C1307     1.0  0.19255  0.81097  0.73151  1.0000
  C   C1308     1.0  0.20256  0.81699  0.71112  1.0000
  C   C1309     1.0  0.20202  0.80276  0.69311  1.0000
  C   C1310     1.0  0.19152  0.78246  0.69552  1.0000
  H   H1048     1.0  0.31349  0.75273  0.54429  1.0000
  H   H1049     1.0  0.99345  0.80063  0.63441  1.0000
  C   C1311     1.0  0.30995  0.76986  0.54802  1.0000
  H   H1050     1.0  0.03947  0.75504  0.89394  1.0000
  H   H1051     1.0  0.18054  0.96928  0.94517  1.0000
  H   H1052     1.0  0.37549  0.97189  0.84007  1.0000
  H   H1053     1.0  0.06063  0.74965  0.51831  1.0000
  C   C1312     1.0  0.22158  0.90282  0.98346  1.0000
  C   C1313     1.0  0.09696  0.77513  0.69913  1.0000
  H   H1054     1.0  0.41498  0.78657  0.59387  1.0000
  H   H1055     1.0  0.40997  0.95917  0.81965  1.0000
  H   H1056     1.0  0.23801  0.77184  0.71650  1.0000
  C   C1314     1.0  0.35332  0.76802  0.59265  1.0000
  C   C1315     1.0  0.99874  0.74054  0.93152  1.0000
  H   H1057     1.0  0.17461  0.78632  0.75006  1.0000
  H   H1058     1.0  0.19240  0.82222  0.74534  1.0000
  H   H1059     1.0  0.21049  0.83281  0.70929  1.0000
  H   H1060     1.0  0.20954  0.80757  0.67723  1.0000
  H   H1061     1.0  0.19062  0.77196  0.68121  1.0000
  H   H1062     1.0  0.31429  0.75152  0.67251  1.0000
  C   C1316     1.0  0.06902  0.97323  0.74935  1.0000
  C   C1317     1.0  0.02581  0.98174  0.69909  1.0000
  C   C1318     1.0  0.36854  0.76194  0.57553  1.0000
  H   H1063     1.0  0.09540  0.79062  0.73113  1.0000
  H   H1064     1.0  0.07359  0.98542  0.73673  1.0000
  C   C1319     1.0  0.11735  0.74119  0.55480  1.0000
  H   H1065     1.0  0.08073  0.78155  0.69440  1.0000
  H   H1066     1.0  0.17418  0.75955  0.93899  1.0000
  C   C1320     1.0  0.20057  0.97227  0.91502  1.0000
  C   C1321     1.0  0.38656  0.93802  0.71647  1.0000
  C   C1322     1.0  0.40827  0.94326  0.72206  1.0000
  C   C1323     1.0  0.41173  0.95646  0.74042  1.0000
  C   C1324     1.0  0.39358  0.96478  0.75292  1.0000
  C   C1325     1.0  0.37171  0.95980  0.74732  1.0000
  C   C1326     1.0  0.36831  0.94618  0.72909  1.0000
  P   P41       1.0  0.34854  0.97122  0.76353  1.0000
  C   C1327     1.0  0.34605  0.95740  0.79040  1.0000
  H   H1067     1.0  0.43748  0.91374  0.74604  1.0000
  P   P42       1.0  0.32444  0.76052  0.59112  1.0000
  C   C1328     1.0  0.12636  0.77260  0.72591  1.0000
  H   H1068     1.0  0.22356  0.76323  0.59485  1.0000
  P   P43       1.0  0.24229  0.91374  0.94269  1.0000
  H   H1069     1.0  0.47222  0.76830  0.50353  1.0000
  C   C1329     1.0  0.32609  0.95945  0.80306  1.0000
  C   C1330     1.0  0.32338  0.94785  0.82319  1.0000
  C   C1331     1.0  0.34058  0.93426  0.83104  1.0000
  C   C1332     1.0  0.36052  0.93213  0.81863  1.0000
  C   C1333     1.0  0.36326  0.94358  0.79835  1.0000
  C   C1334     1.0  0.32258  0.96764  0.74960  1.0000
  C   C1335     1.0  0.31140  0.94758  0.75183  1.0000
  C   C1336     1.0  0.29080  0.94502  0.74198  1.0000
  C   C1337     1.0  0.48761  0.91284  0.68535  1.0000
  H   H1070     1.0  0.28046  0.78055  0.60322  1.0000
  C   C1338     1.0  0.13920  0.75907  0.71150  1.0000
  H   H1071     1.0  0.38392  0.92764  0.70231  1.0000
  H   H1072     1.0  0.42247  0.93708  0.71226  1.0000
  H   H1073     1.0  0.22525  0.78541  0.75372  1.0000
  H   H1074     1.0  0.39661  0.97521  0.76694  1.0000
  H   H1075     1.0  0.35167  0.94195  0.72444  1.0000
  H   H1076     1.0  0.30789  0.94932  0.83276  1.0000
  H   H1077     1.0  0.29999  0.83214  0.55922  1.0000
  C   C1339     1.0  0.10990  0.76230  0.68436  1.0000
  C   C1340     1.0  0.23609  0.77103  0.75245  1.0000
  C   C1341     1.0  0.30238  0.78394  0.53104  1.0000
  H   H1078     1.0  0.31254  0.96994  0.79737  1.0000
  H   H1079     1.0  0.20137  0.87016  0.88862  1.0000
  C   C1342     1.0  0.30948  0.76428  0.61729  1.0000
  H   H1080     1.0  0.37396  0.92176  0.82484  1.0000
  H   H1081     1.0  0.37888  0.94165  0.78916  1.0000
  H   H1082     1.0  0.31854  0.93397  0.76136  1.0000
  H   H1083     1.0  0.28219  0.92954  0.74392  1.0000
  C   C1343     1.0  0.40453  0.97621  0.81815  1.0000
  C   C1344     1.0  0.31003  0.80065  0.57318  1.0000
  S   S184      1.0  0.27116  0.98619  0.90120  1.0000
  H   H1084     1.0  0.12622  0.87922  0.69724  1.0000
  C   C1345     1.0  0.21895  0.96398  0.90284  1.0000
  H   H1085     1.0  0.20440  0.74062  0.74746  1.0000
  H   H1086     1.0  0.03387  0.96657  0.79418  1.0000
  H   H1087     1.0  0.20293  0.93840  0.96048  1.0000
  C   C1346     1.0  0.22642  0.93724  0.93243  1.0000
  C   C1347     1.0  0.23178  0.94649  0.91146  1.0000
  C   C1348     1.0  0.47916  0.87798  0.66705  1.0000
  Fe  Fe94      1.0  0.99327  0.75424  0.52365  1.0000
  H   H1088     1.0  0.45691  0.89533  0.69002  1.0000
  H   H1089     1.0  0.31442  0.88821  0.90892  1.0000
  H   H1090     1.0  0.24584  0.94010  0.90166  1.0000
  H   H1091     1.0  0.19529  0.74858  0.57017  1.0000
  H   H1092     1.0  0.27216  0.96902  0.78453  1.0000
  P   P44       1.0  0.16710  0.75061  0.71903  1.0000
  C   C1349     1.0  0.31301  0.98492  0.73702  1.0000
  C   C1350     1.0  0.48668  0.91142  0.78652  1.0000
  C   C1351     1.0  0.00153  0.93041  0.75514  1.0000
  C   C1352     1.0  0.47080  0.90156  0.75150  1.0000
  H   H1093     1.0  0.40254  0.76363  0.56296  1.0000
  H   H1094     1.0  0.04204  0.97772  0.70558  1.0000
  S   S185      1.0  0.44157  0.98048  0.78995  1.0000
  C   C1353     1.0  0.48015  0.78394  0.50051  1.0000
  H   H1095     1.0  0.46570  0.93202  0.80773  1.0000
  C   C1354     1.0  0.28732  0.98241  0.98307  1.0000
  H   H1096     1.0  0.45533  0.96886  0.66965  1.0000
  C   C1355     1.0  0.00050  0.82818  0.58517  1.0000
  C   C1356     1.0  0.99867  0.82497  0.60847  1.0000
  C   C1357     1.0  0.24964  0.97981  0.81081  1.0000
  C   C1358     1.0  0.39070  0.76862  0.57596  1.0000
  S   S186      1.0  0.47722  0.78799  0.54631  1.0000
  C   C1359     1.0  0.02284  0.75240  0.90086  1.0000
  H   H1097     1.0  0.47618  0.82957  0.71702  1.0000
  C   C1360     1.0  0.48800  0.96682  0.65403  1.0000
  C   C1361     1.0  0.29238  0.98232  0.72721  1.0000
  C   C1362     1.0  0.46943  0.97804  0.66311  1.0000
  H   H1098     1.0  0.10144  0.74995  0.55418  1.0000
  H   H1099     1.0  0.42489  0.74266  0.61779  1.0000
  H   H1100     1.0  0.11560  0.73955  0.88708  1.0000
  C   C1363     1.0  0.22269  0.74564  0.59239  1.0000
  H   H1101     1.0  0.12498  0.75314  0.58719  1.0000
  C   C1364     1.0  0.16842  0.74037  0.74737  1.0000
  C   C1365     1.0  0.99110  0.81788  0.77438  1.0000
  C   C1366     1.0  0.14508  0.73996  0.93487  1.0000
  C   C1367     1.0  0.13066  0.74302  0.57339  1.0000
  C   C1368     1.0  0.48861  0.90037  0.76617  1.0000
  H   H1102     1.0  0.03459  0.74009  0.93245  1.0000
  S   S187      1.0  0.48998  0.79446  0.64795  1.0000
  H   H1103     1.0  0.82955  0.04853  0.00611  1.0000
  Fe  Fe95      1.0  0.69923  0.02681  0.11399  1.0000
  S   S188      1.0  0.70519  0.06325  0.12139  1.0000
  S   S189      1.0  0.66842  0.01798  0.09528  1.0000
  Fe  Fe96      1.0  0.97681  0.11020  0.27581  1.0000
  S   S190      1.0  0.96699  0.09689  0.31003  1.0000
  S   S191      1.0  0.95633  0.11985  0.24495  1.0000
  Fe  Fe97      1.0  0.80199  0.14806  0.15985  1.0000
  S   S192      1.0  0.79311  0.18275  0.14899  1.0000
  S   S193      1.0  0.79354  0.11565  0.14290  1.0000
  Fe  Fe98      1.0  0.83533  0.16412  0.19470  1.0000
  S   S194      1.0  0.82864  0.20007  0.18591  1.0000
  S   S195      1.0  0.85579  0.15210  0.22471  1.0000
  Fe  Fe99      1.0  0.79229  0.19100  0.18583  1.0000
  S   S196      1.0  0.76174  0.21121  0.19886  1.0000
  Fe  Fe100     1.0  0.82980  0.18959  0.14982  1.0000
  S   S197      1.0  0.85041  0.20267  0.11964  1.0000
  S   S198      1.0  0.79873  0.15563  0.19643  1.0000
  S   S199      1.0  0.83893  0.15431  0.15890  1.0000
  H   H1104     1.0  0.73065  0.06405  0.28129  1.0000
  C   C1369     1.0  0.74050  0.05446  0.26938  1.0000
  C   C1370     1.0  0.51678  0.18585  0.47327  1.0000
  H   H1105     1.0  0.74691  0.14319  0.21049  1.0000
  H   H1106     1.0  0.78166  0.99203  0.07444  1.0000
  S   S200      1.0  0.49223  0.03991  0.29933  1.0000
  Fe  Fe101     1.0  0.53504  0.20557  0.36899  1.0000
  S   S201      1.0  0.57186  0.21564  0.36730  1.0000
  S   S202      1.0  0.52657  0.17206  0.38391  1.0000
  H   H1107     1.0  0.78616  0.18991  0.00092  1.0000
  H   H1108     1.0  0.81150  0.21939  0.06265  1.0000
  C   C1371     1.0  0.80159  0.02902  0.01697  1.0000
  C   C1372     1.0  0.81535  0.21868  0.02663  1.0000
  C   C1373     1.0  0.83333  0.99651  0.02790  1.0000
  C   C1374     1.0  0.49477  0.06835  0.30687  1.0000
  C   C1375     1.0  0.81063  0.99254  0.03155  1.0000
  C   C1376     1.0  0.50842  0.99968  0.35491  1.0000
  C   C1377     1.0  0.90988  0.22769  0.10772  1.0000
  H   H1109     1.0  0.52946  0.18606  0.46014  1.0000
  C   C1378     1.0  0.82098  0.17987  0.99881  1.0000
  C   C1379     1.0  0.68206  0.00946  0.00705  1.0000
  Fe  Fe102     1.0  0.68988  0.99159  0.07873  1.0000
  C   C1380     1.0  0.79924  0.18211  0.99084  1.0000
  H   H1110     1.0  0.76170  0.06977  0.07860  1.0000
  S   S203      1.0  0.50082  0.14151  0.32865  1.0000
  C   C1381     1.0  0.84016  0.01672  0.01887  1.0000
  H   H1111     1.0  0.78138  0.03950  0.05878  1.0000
  C   C1382     1.0  0.82429  0.03294  0.01332  1.0000
  C   C1383     1.0  0.96503  0.22324  0.02345  1.0000
  C   C1384     1.0  0.84858  0.22625  0.10158  1.0000
  C   C1385     1.0  0.75357  0.01436  0.16856  1.0000
  H   H1112     1.0  0.67860  0.02164  0.01968  1.0000
  C   C1386     1.0  0.49483  0.07375  0.32962  1.0000
  H   H1113     1.0  0.97535  0.21462  0.03542  1.0000
  H   H1114     1.0  0.72072  0.07428  0.07646  1.0000
  C   C1387     1.0  0.92825  0.12890  0.23985  1.0000
  C   C1388     1.0  0.91192  0.13088  0.25683  1.0000
  C   C1389     1.0  0.88997  0.13799  0.25183  1.0000
  C   C1390     1.0  0.88394  0.14335  0.22983  1.0000
  C   C1391     1.0  0.90027  0.14134  0.21283  1.0000
  C   C1392     1.0  0.92220  0.13415  0.21783  1.0000
  H   H1115     1.0  0.91618  0.12693  0.27384  1.0000
  H   H1116     1.0  0.87756  0.13943  0.26516  1.0000
  H   H1117     1.0  0.89600  0.14530  0.19584  1.0000
  H   H1118     1.0  0.93459  0.13267  0.20450  1.0000
  C   C1393     1.0  0.92439  0.19612  0.08759  1.0000
  H   H1119     1.0  0.85678  0.10059  0.22379  1.0000
  C   C1394     1.0  0.73001  0.07741  0.12741  1.0000
  C   C1395     1.0  0.72855  0.10007  0.13210  1.0000
  C   C1396     1.0  0.74765  0.11197  0.13738  1.0000
  C   C1397     1.0  0.76860  0.10144  0.13746  1.0000
  C   C1398     1.0  0.77014  0.07894  0.13212  1.0000
  C   C1399     1.0  0.75097  0.06689  0.12746  1.0000
  H   H1120     1.0  0.71248  0.10846  0.13187  1.0000
  H   H1121     1.0  0.74619  0.12931  0.14115  1.0000
  H   H1122     1.0  0.78631  0.07075  0.13165  1.0000
  H   H1123     1.0  0.75244  0.04956  0.12366  1.0000
  H   H1124     1.0  0.71063  0.22304  0.34175  1.0000
  H   H1125     1.0  0.49513  0.07594  0.18691  1.0000
  H   H1126     1.0  0.72671  0.21320  0.15915  1.0000
  C   C1400     1.0  0.69917  0.23668  0.16043  1.0000
  H   H1127     1.0  0.85775  0.01978  0.01604  1.0000
  H   H1128     1.0  0.54555  0.06526  0.28922  1.0000
  H   H1129     1.0  0.95649  0.14605  0.48485  1.0000
  H   H1130     1.0  0.76226  0.00277  0.26213  1.0000
  C   C1401     1.0  0.67353  0.20536  0.30449  1.0000
  H   H1131     1.0  0.77217  0.11202  0.21916  1.0000
  H   H1132     1.0  0.49646  0.08190  0.27358  1.0000
  H   H1133     1.0  0.56804  0.21844  0.42283  1.0000
  H   H1134     1.0  0.53778  0.22493  0.45116  1.0000
  H   H1135     1.0  0.77139  0.00017  0.14058  1.0000
  H   H1136     1.0  0.98947  0.14953  0.45960  1.0000
  H   H1137     1.0  0.49350  0.06070  0.34204  1.0000
  C   C1402     1.0  0.58689  0.23511  0.35040  1.0000
  H   H1138     1.0  0.89992  0.22550  0.00795  1.0000
  H   H1139     1.0  0.93460  0.01579  0.25475  1.0000
  C   C1403     1.0  0.75755  0.10908  0.20955  1.0000
  C   C1404     1.0  0.87009  0.17700  0.03813  1.0000
  C   C1405     1.0  0.89160  0.21208  0.01658  1.0000
  S   S204      1.0  0.51315  0.20161  0.33976  1.0000
  C   C1406     1.0  0.52123  0.05061  0.18631  1.0000
  H   H1140     1.0  0.86214  0.16303  0.04617  1.0000
  P   P45       1.0  0.54345  0.06838  0.19437  1.0000
  C   C1407     1.0  0.56958  0.05835  0.18220  1.0000
  C   C1408     1.0  0.53777  0.09621  0.18440  1.0000
  C   C1409     1.0  0.52171  0.10956  0.19547  1.0000
  C   C1410     1.0  0.51724  0.13107  0.18788  1.0000
  C   C1411     1.0  0.52871  0.13942  0.16914  1.0000
  C   C1412     1.0  0.54465  0.12627  0.15797  1.0000
  C   C1413     1.0  0.54919  0.10476  0.16554  1.0000
  C   C1414     1.0  0.58928  0.05888  0.19426  1.0000
  C   C1415     1.0  0.60947  0.05124  0.18470  1.0000
  C   C1416     1.0  0.61013  0.04307  0.16307  1.0000
  C   C1417     1.0  0.59061  0.04244  0.15100  1.0000
  C   C1418     1.0  0.57041  0.05011  0.16045  1.0000
  C   C1419     1.0  0.54516  0.06754  0.22441  1.0000
  C   C1420     1.0  0.54295  0.04742  0.23598  1.0000
  C   C1421     1.0  0.54313  0.04661  0.25925  1.0000
  C   C1422     1.0  0.54603  0.06585  0.27116  1.0000
  C   C1423     1.0  0.54923  0.08585  0.25978  1.0000
  C   C1424     1.0  0.54909  0.08668  0.23647  1.0000
  C   C1425     1.0  0.76104  0.05210  0.23403  1.0000
  C   C1426     1.0  0.97819  0.16949  0.39022  1.0000
  H   H1141     1.0  0.97328  0.19080  0.41871  1.0000
  C   C1427     1.0  0.49925  0.05878  0.18430  1.0000
  C   C1428     1.0  0.86839  0.21085  0.01623  1.0000
  H   H1142     1.0  0.51263  0.10332  0.21002  1.0000
  H   H1143     1.0  0.50487  0.14126  0.19655  1.0000
  H   H1144     1.0  0.52522  0.15609  0.16324  1.0000
  H   H1145     1.0  0.55353  0.13273  0.14340  1.0000
  H   H1146     1.0  0.56162  0.09495  0.15658  1.0000
  H   H1147     1.0  0.58912  0.06503  0.21107  1.0000
  H   H1148     1.0  0.62459  0.05137  0.19412  1.0000
  H   H1149     1.0  0.62568  0.03674  0.15578  1.0000
  H   H1150     1.0  0.59118  0.03554  0.13444  1.0000
  H   H1151     1.0  0.55545  0.04946  0.15083  1.0000
  H   H1152     1.0  0.54093  0.03231  0.22706  1.0000
  C   C1429     1.0  0.77159  0.01246  0.15349  1.0000
  H   H1153     1.0  0.78943  0.04165  0.01239  1.0000
  H   H1154     1.0  0.55154  0.10072  0.26911  1.0000
  H   H1155     1.0  0.55195  0.10227  0.22803  1.0000
  H   H1156     1.0  0.71281  0.13731  0.18901  1.0000
  H   H1157     1.0  0.73012  0.06890  0.18298  1.0000
  C   C1430     1.0  0.70104  0.22260  0.32675  1.0000
  H   H1158     1.0  0.71859  0.01761  0.03497  1.0000
  C   C1431     1.0  0.68565  0.20601  0.32400  1.0000
  H   H1159     1.0  0.70455  0.09995  0.17567  1.0000
  H   H1160     1.0  0.49968  0.12077  0.28570  1.0000
  C   C1432     1.0  0.78970  0.04246  0.17155  1.0000
  C   C1433     1.0  0.79463  0.00895  0.02647  1.0000
  C   C1434     1.0  0.74829  0.06439  0.24957  1.0000
  H   H1161     1.0  0.94647  0.99580  0.22063  1.0000
  C   C1435     1.0  0.67618  0.22176  0.28786  1.0000
  P   P46       1.0  0.66178  0.21967  0.26200  1.0000
  C   C1436     1.0  0.67925  0.20433  0.24236  1.0000
  C   C1437     1.0  0.63530  0.20688  0.26856  1.0000
  C   C1438     1.0  0.62262  0.21374  0.28736  1.0000
  C   C1439     1.0  0.60259  0.20355  0.29323  1.0000
  C   C1440     1.0  0.59498  0.18639  0.28045  1.0000
  C   C1441     1.0  0.60752  0.17929  0.26186  1.0000
  C   C1442     1.0  0.62766  0.18938  0.25599  1.0000
  C   C1443     1.0  0.67235  0.20184  0.22038  1.0000
  C   C1444     1.0  0.68684  0.19251  0.20431  1.0000
  C   C1445     1.0  0.70846  0.18602  0.20993  1.0000
  C   C1446     1.0  0.71546  0.18838  0.23172  1.0000
  C   C1447     1.0  0.70096  0.19745  0.24790  1.0000
  C   C1448     1.0  0.69184  0.23826  0.29066  1.0000
  H   H1162     1.0  0.85469  0.16837  0.99075  1.0000
  C   C1449     1.0  0.49652  0.08559  0.29113  1.0000
  C   C1450     1.0  0.75317  0.08791  0.20177  1.0000
  H   H1163     1.0  0.83600  0.11164  0.19026  1.0000
  C   C1451     1.0  0.56093  0.23487  0.42505  1.0000
  H   H1164     1.0  0.73941  0.02460  0.28925  1.0000
  H   H1165     1.0  0.62835  0.22680  0.29777  1.0000
  H   H1166     1.0  0.59304  0.20887  0.30785  1.0000
  H   H1167     1.0  0.57946  0.17850  0.28514  1.0000
  H   H1168     1.0  0.60171  0.16580  0.25214  1.0000
  H   H1169     1.0  0.63725  0.18321  0.24188  1.0000
  H   H1170     1.0  0.65604  0.20785  0.21551  1.0000
  H   H1171     1.0  0.68155  0.19087  0.18735  1.0000
  H   H1172     1.0  0.72012  0.17975  0.19732  1.0000
  H   H1173     1.0  0.73251  0.18404  0.23582  1.0000
  H   H1174     1.0  0.70720  0.19982  0.26439  1.0000
  S   S205      1.0  0.49454  0.01908  0.23359  1.0000
  C   C1452     1.0  0.98066  0.00172  0.29086  1.0000
  C   C1453     1.0  0.61281  0.99066  0.18206  1.0000
  H   H1175     1.0  0.69918  0.04792  0.05496  1.0000
  S   S206      1.0  0.72113  0.00192  0.09586  1.0000
  C   C1454     1.0  0.96546  0.21611  0.00141  1.0000
  H   H1176     1.0  0.68656  0.22427  0.15940  1.0000
  C   C1455     1.0  0.93605  0.23297  0.07647  1.0000
  H   H1177     1.0  0.87135  0.21211  0.07703  1.0000
  C   C1456     1.0  0.74545  0.03225  0.27388  1.0000
  C   C1457     1.0  0.75248  0.05869  0.06848  1.0000
  C   C1458     1.0  0.72934  0.06122  0.06736  1.0000
  C   C1459     1.0  0.71720  0.04644  0.05516  1.0000
  C   C1460     1.0  0.72824  0.02933  0.04379  1.0000
  C   C1461     1.0  0.75154  0.02710  0.04417  1.0000
  C   C1462     1.0  0.76356  0.04156  0.05711  1.0000
  H   H1178     1.0  0.49697  0.09944  0.35411  1.0000
  H   H1179     1.0  0.54067  0.03110  0.26807  1.0000
  C   C1463     1.0  0.59701  0.99030  0.20006  1.0000
  C   C1464     1.0  0.52553  0.02800  0.18338  1.0000
  C   C1465     1.0  0.75530  0.00043  0.00270  1.0000
  H   H1180     1.0  0.79942  0.09556  0.18340  1.0000
  C   C1466     1.0  0.77150  0.23075  0.23935  1.0000
  H   H1181     1.0  0.81874  0.22482  0.99094  1.0000
  C   C1467     1.0  0.81129  0.06833  0.23174  1.0000
  H   H1182     1.0  0.96112  0.17141  0.38506  1.0000
  C   C1468     1.0  0.49425  0.18557  0.46769  1.0000
  Fe  Fe103     1.0  0.50295  0.16898  0.35534  1.0000
  H   H1183     1.0  0.73954  0.00353  0.16718  1.0000
  C   C1469     1.0  0.82921  0.09935  0.20171  1.0000
  C   C1470     1.0  0.93709  0.21003  0.07368  1.0000
  C   C1471     1.0  0.79918  0.07493  0.21297  1.0000
  S   S207      1.0  0.50836  0.22359  0.38929  1.0000
  H   H1184     1.0  0.74023  0.03315  0.99954  1.0000
  H   H1185     1.0  0.80371  0.05333  0.17215  1.0000
  H   H1186     1.0  0.97576  0.20201  0.99660  1.0000
  H   H1187     1.0  0.54210  0.02116  0.18562  1.0000
  H   H1188     1.0  0.74442  0.08166  0.24651  1.0000
  H   H1189     1.0  0.98558  0.17647  0.31726  1.0000
  C   C1472     1.0  0.77162  0.04450  0.18677  1.0000
  P   P47       1.0  0.76526  0.00405  0.03051  1.0000
  C   C1473     1.0  0.73388  0.08481  0.18958  1.0000
  C   C1474     1.0  0.86124  0.22642  0.08146  1.0000
  C   C1475     1.0  0.72390  0.12354  0.19284  1.0000
  C   C1476     1.0  0.90406  0.19594  0.02779  1.0000
  H   H1190     1.0  0.98676  0.19621  0.28081  1.0000
  P   P48       1.0  0.77150  0.06482  0.20854  1.0000
  C   C1477     1.0  0.75831  0.01996  0.25860  1.0000
  C   C1478     1.0  0.75667  0.22919  0.22190  1.0000
  H   H1191     1.0  0.73939  0.03150  0.19665  1.0000
  H   H1192     1.0  0.97412  0.01472  0.28022  1.0000
  C   C1479     1.0  0.54379  0.23849  0.44086  1.0000
  H   H1193     1.0  0.51182  0.99643  0.17631  1.0000
  C   C1480     1.0  0.71921  0.10251  0.18538  1.0000
  H   H1194     1.0  0.79394  0.15593  0.02805  1.0000
  C   C1481     1.0  0.83208  0.07744  0.23553  1.0000
  S   S208      1.0  0.69118  0.00391  0.14271  1.0000
  H   H1195     1.0  0.60252  0.99290  0.21678  1.0000
  H   H1196     1.0  0.85913  0.22345  0.00717  1.0000
  H   H1197     1.0  0.78681  0.22101  0.23900  1.0000
  C   C1482     1.0  0.81639  0.17425  0.04818  1.0000
  C   C1483     1.0  0.80849  0.09025  0.19787  1.0000
  H   H1198     1.0  0.84122  0.07272  0.25022  1.0000
  Fe  Fe104     1.0  0.66159  0.99352  0.12343  1.0000
  H   H1199     1.0  0.66218  0.19197  0.30243  1.0000
  C   C1484     1.0  0.49675  0.09582  0.33657  1.0000
  C   C1485     1.0  0.75357  0.03025  0.18516  1.0000
  C   C1486     1.0  0.82408  0.17674  0.06986  1.0000
  C   C1487     1.0  0.81574  0.16374  0.08749  1.0000
  C   C1488     1.0  0.79960  0.14812  0.08370  1.0000
  C   C1489     1.0  0.79182  0.14546  0.06221  1.0000
  C   C1490     1.0  0.80017  0.15842  0.04449  1.0000
  C   C1491     1.0  0.85741  0.19339  0.02717  1.0000
  C   C1492     1.0  0.49851  0.11309  0.32087  1.0000
  H   H1200     1.0  0.90295  0.16581  0.04721  1.0000
  C   C1493     1.0  0.78965  0.02649  0.15499  1.0000
  C   C1494     1.0  0.76616  0.02985  0.23878  1.0000
  C   C1495     1.0  0.74395  0.01762  0.99153  1.0000
  S   S209      1.0  0.98318  0.14246  0.35336  1.0000
  H   H1201     1.0  0.92204  0.19695  0.02787  1.0000
  H   H1202     1.0  0.80465  0.05654  0.24372  1.0000
  C   C1496     1.0  0.50836  0.01390  0.17813  1.0000
  C   C1497     1.0  0.84095  0.09306  0.22061  1.0000
  C   C1498     1.0  0.70428  0.23851  0.31001  1.0000
  C   C1499     1.0  0.74308  0.12684  0.20490  1.0000
  C   C1500     1.0  0.89331  0.17841  0.03860  1.0000
  H   H1203     1.0  0.61723  0.22984  0.36831  1.0000
  H   H1204     1.0  0.90044  0.19429  0.11500  1.0000
  H   H1205     1.0  0.83660  0.18870  0.07322  1.0000
  H   H1206     1.0  0.82183  0.16580  0.10416  1.0000
  H   H1207     1.0  0.79317  0.13806  0.09746  1.0000
  H   H1208     1.0  0.77929  0.13330  0.05933  1.0000
  P   P49       1.0  0.82753  0.19119  0.02549  1.0000
  H   H1209     1.0  0.90958  0.99799  0.28280  1.0000
  C   C1501     1.0  0.49164  0.99740  0.33949  1.0000
  H   H1210     1.0  0.77632  0.02016  0.22722  1.0000
  H   H1211     1.0  0.92503  0.17847  0.08523  1.0000
  C   C1502     1.0  0.92870  0.99930  0.25200  1.0000
  C   C1503     1.0  0.49835  0.10771  0.29809  1.0000
  H   H1212     1.0  0.68325  0.19352  0.33689  1.0000
  H   H1213     1.0  0.94762  0.20275  0.06083  1.0000
  C   C1504     1.0  0.98506  0.18055  0.40941  1.0000
  C   C1505     1.0  0.81334  0.23134  0.00694  1.0000
  H   H1214     1.0  0.63015  0.99361  0.18512  1.0000
  H   H1215     1.0  0.80351  0.02519  0.14312  1.0000
  C   C1506     1.0  0.91069  0.20497  0.10450  1.0000
  C   C1507     1.0  0.72172  0.23045  0.16010  1.0000
  Fe  Fe105     1.0  0.49862  0.19013  0.40275  1.0000
  C   C1508     1.0  0.80935  0.22828  0.04711  1.0000
  H   H1216     1.0  0.89896  0.23449  0.12068  1.0000
  H   H1217     1.0  0.50868  0.01433  0.36495  1.0000
  Fe  Fe106     1.0  0.49180  0.01437  0.27083  1.0000
  C   C1509     1.0  0.60944  0.23880  0.35479  1.0000
  Fe  Fe107     1.0  0.70286  0.01297  0.85523  1.0000
  S   S210      1.0  0.67050  0.01988  0.87422  1.0000
  S   S211      1.0  0.72031  0.03827  0.83186  1.0000
  C   C1510     1.0  0.93763  0.11305  0.51421  1.0000
  H   H1218     1.0  0.67952  0.13512  0.73152  1.0000
  C   C1511     1.0  0.52301  0.18534  0.49591  1.0000
  H   H1219     1.0  0.68707  0.09329  0.88720  1.0000
  C   C1512     1.0  0.83773  0.17008  0.98522  1.0000
  H   H1220     1.0  0.65700  0.16582  0.71630  1.0000
  Fe  Fe108     1.0  0.98089  0.11947  0.70691  1.0000
  S   S212      1.0  0.97915  0.10203  0.67399  1.0000
  S   S213      1.0  0.95599  0.14368  0.72402  1.0000
  C   C1513     1.0  0.94440  0.19396  0.55157  1.0000
  H   H1221     1.0  0.95367  0.22232  0.96825  1.0000
  S   S214      1.0  0.51593  0.18399  0.54198  1.0000
  H   H1222     1.0  0.96812  0.99667  0.67544  1.0000
  H   H1223     1.0  0.65557  0.08642  0.77606  1.0000
  H   H1224     1.0  0.72605  0.17594  0.57678  1.0000
  Fe  Fe109     1.0  0.51683  0.21493  0.62034  1.0000
  H   H1225     1.0  0.76518  0.16446  0.58390  1.0000
  S   S215      1.0  0.52970  0.18286  0.60612  1.0000
  Fe  Fe110     1.0  0.79568  0.14981  0.82730  1.0000
  S   S216      1.0  0.78568  0.18602  0.82758  1.0000
  S   S217      1.0  0.77738  0.12445  0.84996  1.0000
  Fe  Fe111     1.0  0.83531  0.15794  0.79414  1.0000
  S   S218      1.0  0.82779  0.19449  0.79201  1.0000
  S   S219      1.0  0.85997  0.13593  0.77377  1.0000
  Fe  Fe112     1.0  0.82240  0.19261  0.82972  1.0000
  S   S220      1.0  0.83611  0.22114  0.85008  1.0000
  Fe  Fe113     1.0  0.79149  0.18606  0.79025  1.0000
  S   S221      1.0  0.76526  0.19808  0.76496  1.0000
  S   S222      1.0  0.83223  0.15650  0.83178  1.0000
  S   S223      1.0  0.79918  0.14943  0.79013  1.0000
  C   C1514     1.0  0.68038  0.01535  0.98419  1.0000
  C   C1515     1.0  0.93032  0.13322  0.52322  1.0000
  H   H1226     1.0  0.92842  0.15621  0.57728  1.0000
  H   H1227     1.0  0.74231  0.16523  0.73523  1.0000
  C   C1516     1.0  0.53383  0.08322  0.62824  1.0000
  C   C1517     1.0  0.98151  0.11954  0.58455  1.0000
  H   H1228     1.0  0.78130  0.16497  0.72178  1.0000
  H   H1229     1.0  0.91611  0.00601  0.74788  1.0000
  C   C1518     1.0  0.97265  0.99984  0.74281  1.0000
  H   H1230     1.0  0.65007  0.12176  0.75609  1.0000
  H   H1231     1.0  0.80686  0.13375  0.73139  1.0000
  H   H1232     1.0  0.73667  0.19987  0.80472  1.0000
  H   H1233     1.0  0.74905  0.15023  0.79538  1.0000
  C   C1519     1.0  0.63974  0.11795  0.77061  1.0000
  S   S224      1.0  0.49099  0.19848  0.64274  1.0000
  H   H1234     1.0  0.71031  0.09492  0.79304  1.0000
  H   H1235     1.0  0.59902  0.00092  0.59382  1.0000
  C   C1520     1.0  0.64263  0.09779  0.78186  1.0000
  C   C1521     1.0  0.93352  0.01025  0.74648  1.0000
  H   H1236     1.0  0.67472  0.00229  0.76025  1.0000
  C   C1522     1.0  0.81119  0.16536  0.95606  1.0000
  H   H1237     1.0  0.98691  0.12318  0.54933  1.0000
  C   C1523     1.0  0.75940  0.18105  0.58775  1.0000
  Fe  Fe114     1.0  0.51954  0.99325  0.75291  1.0000
  C   C1524     1.0  0.59648  0.99945  0.78515  1.0000
  C   C1525     1.0  0.75688  0.22337  0.75154  1.0000
  H   H1238     1.0  0.71135  0.14900  0.85696  1.0000
  H   H1239     1.0  0.70794  0.11030  0.72278  1.0000
  C   C1526     1.0  0.56957  0.00730  0.61425  1.0000
  C   C1527     1.0  0.59921  0.23415  0.65571  1.0000
  C   C1528     1.0  0.92947  0.14094  0.73813  1.0000
  C   C1529     1.0  0.91929  0.15964  0.74806  1.0000
  C   C1530     1.0  0.89823  0.15846  0.75918  1.0000
  C   C1531     1.0  0.88691  0.13852  0.76045  1.0000
  C   C1532     1.0  0.89711  0.11982  0.75053  1.0000
  C   C1533     1.0  0.91822  0.12096  0.73952  1.0000
  H   H1240     1.0  0.92773  0.17519  0.74712  1.0000
  H   H1241     1.0  0.89070  0.17300  0.76665  1.0000
  H   H1242     1.0  0.88858  0.10430  0.75136  1.0000
  H   H1243     1.0  0.92570  0.10643  0.73199  1.0000
  H   H1244     1.0  0.75421  0.10306  0.76936  1.0000
  H   H1245     1.0  0.68049  0.12996  0.79679  1.0000
  H   H1246     1.0  0.97235  0.11882  0.61945  1.0000
  C   C1534     1.0  0.50694  0.18453  0.51351  1.0000
  C   C1535     1.0  0.68447  0.99985  0.96721  1.0000
  C   C1536     1.0  0.73697  0.06160  0.83737  1.0000
  C   C1537     1.0  0.74079  0.06859  0.85901  1.0000
  C   C1538     1.0  0.75314  0.08779  0.86246  1.0000
  C   C1539     1.0  0.76206  0.10023  0.84442  1.0000
  C   C1540     1.0  0.75837  0.09315  0.82279  1.0000
  C   C1541     1.0  0.74597  0.07399  0.81933  1.0000
  H   H1247     1.0  0.73401  0.05938  0.87310  1.0000
  H   H1248     1.0  0.75588  0.09303  0.87927  1.0000
  H   H1249     1.0  0.76525  0.10240  0.80879  1.0000
  H   H1250     1.0  0.74348  0.06863  0.80253  1.0000
  C   C1542     1.0  0.77404  0.19604  0.59654  1.0000
  C   C1543     1.0  0.93904  0.03248  0.74454  1.0000
  C   C1544     1.0  0.61133  0.99612  0.80291  1.0000
  H   H1251     1.0  0.93822  0.14196  0.61464  1.0000
  H   H1252     1.0  0.71634  0.18124  0.76948  1.0000
  C   C1545     1.0  0.50118  0.11243  0.66461  1.0000
  H   H1253     1.0  0.84589  0.15585  0.95327  1.0000
  C   C1546     1.0  0.72983  0.20887  0.58883  1.0000
  C   C1547     1.0  0.95309  0.22754  0.98542  1.0000
  C   C1548     1.0  0.97807  0.02210  0.74090  1.0000
  S   S225      1.0  0.51185  0.13669  0.65067  1.0000
  C   C1549     1.0  0.92519  0.22444  0.53332  1.0000
  H   H1254     1.0  0.79313  0.10285  0.75504  1.0000
  C   C1550     1.0  0.50582  0.04874  0.61825  1.0000
  H   H1255     1.0  0.98975  0.16815  0.63060  1.0000
  H   H1256     1.0  0.55359  0.05121  0.80678  1.0000
  Fe  Fe115     1.0  0.50265  0.16632  0.62732  1.0000
  P   P50       1.0  0.95032  0.15214  0.53330  1.0000
  C   C1551     1.0  0.57396  0.99744  0.68929  1.0000
  H   H1257     1.0  0.92437  0.17855  0.50175  1.0000
  C   C1552     1.0  0.93729  0.21605  0.55121  1.0000
  C   C1553     1.0  0.90735  0.13791  0.52533  1.0000
  Fe  Fe116     1.0  0.68481  0.99760  0.90146  1.0000
  H   H1258     1.0  0.98102  0.19746  0.60251  1.0000
  C   C1554     1.0  0.94874  0.13797  0.60027  1.0000
  H   H1259     1.0  0.51727  0.99126  0.60191  1.0000
  H   H1260     1.0  0.67577  0.03212  0.97962  1.0000
  C   C1555     1.0  0.83281  0.16292  0.96391  1.0000
  C   C1556     1.0  0.92743  0.18866  0.51599  1.0000
  H   H1261     1.0  0.80753  0.16014  0.93939  1.0000
  H   H1262     1.0  0.60289  0.10465  0.82298  1.0000
  H   H1263     1.0  0.58876  0.06959  0.79669  1.0000
  H   H1264     1.0  0.75036  0.22796  0.64477  1.0000
  C   C1557     1.0  0.55411  0.03030  0.70177  1.0000
  C   C1558     1.0  0.82905  0.21549  0.89629  1.0000
  C   C1559     1.0  0.50705  0.08194  0.69170  1.0000
  H   H1265     1.0  0.77769  0.17697  0.96335  1.0000
  C   C1560     1.0  0.62358  0.13321  0.77812  1.0000
  H   H1266     1.0  0.53032  0.10804  0.68452  1.0000
  H   H1267     1.0  0.57176  0.21409  0.64581  1.0000
  S   S226      1.0  0.98807  0.03795  0.68531  1.0000
  C   C1561     1.0  0.53520  0.99298  0.60066  1.0000
  H   H1268     1.0  0.82407  0.21189  0.93197  1.0000
  C   C1562     1.0  0.83074  0.22221  0.91865  1.0000
  C   C1563     1.0  0.50075  0.07023  0.61095  1.0000
  C   C1564     1.0  0.92221  0.09813  0.50664  1.0000
  H   H1269     1.0  0.74620  0.15674  0.83570  1.0000
  H   H1270     1.0  0.67821  0.13611  0.83735  1.0000
  S   S227      1.0  0.49241  0.01905  0.75982  1.0000
  H   H1271     1.0  0.82118  0.20015  0.89262  1.0000
  H   H1272     1.0  0.79119  0.19109  0.59946  1.0000
  H   H1273     1.0  0.60931  0.22012  0.66088  1.0000
  C   C1565     1.0  0.74830  0.23113  0.81559  1.0000
  C   C1566     1.0  0.97439  0.15325  0.51468  1.0000
  H   H1274     1.0  0.88747  0.09152  0.50245  1.0000
  H   H1275     1.0  0.52329  0.23195  0.54576  1.0000
  S   S228      1.0  0.71788  0.99240  0.88304  1.0000
  C   C1567     1.0  0.54275  0.03139  0.68175  1.0000
  H   H1276     1.0  0.87426  0.12668  0.51929  1.0000
  C   C1568     1.0  0.57406  0.99293  0.78699  1.0000
  H   H1277     1.0  0.62836  0.00136  0.80123  1.0000
  S   S229      1.0  0.55613  0.99790  0.76380  1.0000
  H   H1278     1.0  0.91197  0.21767  0.50130  1.0000
  C   C1569     1.0  0.76658  0.21742  0.60157  1.0000
  H   H1279     1.0  0.70224  0.22414  0.62803  1.0000
  Fe  Fe117     1.0  0.50406  0.18765  0.57916  1.0000
  H   H1280     1.0  0.92606  0.04518  0.74469  1.0000
  H   H1281     1.0  0.71061  0.19490  0.83708  1.0000
  P   P51       1.0  0.53140  0.01661  0.64006  1.0000
  H   H1282     1.0  0.66361  0.20417  0.72767  1.0000
  H   H1283     1.0  0.57796  0.01215  0.72137  1.0000
  H   H1284     1.0  0.54433  0.09679  0.63246  1.0000
  C   C1570     1.0  0.50668  0.00156  0.64766  1.0000
  C   C1571     1.0  0.69348  0.23804  0.62053  1.0000
  C   C1572     1.0  0.51471  0.08746  0.61601  1.0000
  H   H1285     1.0  0.73605  0.99307  0.94192  1.0000
  C   C1573     1.0  0.89196  0.12295  0.51775  1.0000
  C   C1574     1.0  0.92032  0.21078  0.51568  1.0000
  H   H1286     1.0  0.52988  0.04392  0.67952  1.0000
  H   H1287     1.0  0.55011  0.04207  0.71474  1.0000
  S   S230      1.0  0.49249  0.22062  0.59257  1.0000
  C   C1575     1.0  0.53896  0.06177  0.63558  1.0000
  C   C1576     1.0  0.95739  0.14152  0.56058  1.0000
  H   H1288     1.0  0.79509  0.99469  0.89336  1.0000
  C   C1577     1.0  0.51434  0.10140  0.68061  1.0000
  C   C1578     1.0  0.93929  0.18002  0.53409  1.0000
  H   H1289     1.0  0.95472  0.18812  0.56503  1.0000
  C   C1579     1.0  0.73933  0.22315  0.73642  1.0000
  H   H1290     1.0  0.60237  0.00731  0.76990  1.0000
  H   H1291     1.0  0.69311  0.21166  0.75448  1.0000
  C   C1580     1.0  0.94338  0.14614  0.57912  1.0000
  H   H1292     1.0  0.54049  0.18543  0.49983  1.0000
  H   H1293     1.0  0.73207  0.20763  0.73243  1.0000
  P   P52       1.0  0.63333  0.06718  0.81590  1.0000
  C   C1581     1.0  0.60708  0.05506  0.82410  1.0000
  C   C1582     1.0  0.64697  0.04697  0.79823  1.0000
  C   C1583     1.0  0.63847  0.04297  0.77716  1.0000
  C   C1584     1.0  0.64851  0.02698  0.76345  1.0000
  C   C1585     1.0  0.66704  0.01484  0.77073  1.0000
  C   C1586     1.0  0.67553  0.01869  0.79170  1.0000
  C   C1587     1.0  0.66532  0.03442  0.80559  1.0000
  C   C1588     1.0  0.60594  0.03997  0.84203  1.0000
  C   C1589     1.0  0.58577  0.03005  0.84795  1.0000
  C   C1590     1.0  0.56687  0.03429  0.83540  1.0000
  C   C1591     1.0  0.56806  0.04863  0.81699  1.0000
  C   C1592     1.0  0.58807  0.05900  0.81134  1.0000
  C   C1593     1.0  0.65024  0.07469  0.83888  1.0000
  C   C1594     1.0  0.64112  0.07657  0.86058  1.0000
  C   C1595     1.0  0.65443  0.08304  0.87799  1.0000
  C   C1596     1.0  0.67667  0.08846  0.87372  1.0000
  C   C1597     1.0  0.68554  0.08760  0.85202  1.0000
  C   C1598     1.0  0.67246  0.08062  0.83470  1.0000
  H   H1294     1.0  0.62380  0.05190  0.77152  1.0000
  H   H1295     1.0  0.64163  0.02373  0.74738  1.0000
  C   C1599     1.0  0.54731  0.01586  0.66513  1.0000
  H   H1296     1.0  0.69002  0.00945  0.79732  1.0000
  H   H1297     1.0  0.67175  0.03658  0.82207  1.0000
  H   H1298     1.0  0.62073  0.03530  0.85109  1.0000
  H   H1299     1.0  0.58517  0.01810  0.86157  1.0000
  H   H1300     1.0  0.55152  0.02583  0.83945  1.0000
  H   H1301     1.0  0.62379  0.07313  0.86422  1.0000
  H   H1302     1.0  0.70266  0.09215  0.84863  1.0000
  H   H1303     1.0  0.67977  0.07971  0.81808  1.0000
  C   C1600     1.0  0.70060  0.07703  0.73255  1.0000
  C   C1601     1.0  0.69916  0.06174  0.75016  1.0000
  C   C1602     1.0  0.70249  0.06845  0.77192  1.0000
  C   C1603     1.0  0.70669  0.09050  0.77616  1.0000
  C   C1604     1.0  0.70758  0.10615  0.75866  1.0000
  C   C1605     1.0  0.70529  0.09904  0.73673  1.0000
  P   P53       1.0  0.71669  0.13378  0.76371  1.0000
  C   C1606     1.0  0.71514  0.13895  0.79320  1.0000
  C   C1607     1.0  0.74519  0.13408  0.75326  1.0000
  C   C1608     1.0  0.75975  0.11645  0.75859  1.0000
  C   C1609     1.0  0.78177  0.11614  0.75033  1.0000
  C   C1610     1.0  0.78950  0.13354  0.73692  1.0000
  C   C1611     1.0  0.77510  0.15109  0.73150  1.0000
  C   C1612     1.0  0.75296  0.15129  0.73944  1.0000
  C   C1613     1.0  0.73350  0.14695  0.80427  1.0000
  C   C1614     1.0  0.73192  0.15080  0.82714  1.0000
  C   C1615     1.0  0.71216  0.14656  0.83913  1.0000
  C   C1616     1.0  0.69359  0.13923  0.82809  1.0000
  C   C1617     1.0  0.69499  0.13565  0.80515  1.0000
  C   C1618     1.0  0.69985  0.15575  0.75160  1.0000
  C   C1619     1.0  0.68291  0.15161  0.73662  1.0000
  C   C1620     1.0  0.66990  0.16902  0.72803  1.0000
  C   C1621     1.0  0.67355  0.19065  0.73447  1.0000
  C   C1622     1.0  0.69013  0.19487  0.74959  1.0000
  C   C1623     1.0  0.70326  0.17755  0.75806  1.0000
  H   H1304     1.0  0.69886  0.07165  0.71559  1.0000
  H   H1305     1.0  0.69625  0.04457  0.74688  1.0000
  H   H1306     1.0  0.70264  0.05646  0.78551  1.0000
  C   C1624     1.0  0.74430  0.22383  0.59818  1.0000
  H   H1307     1.0  0.51731  0.07405  0.70415  1.0000
  H   H1308     1.0  0.64753  0.08377  0.89483  1.0000
  H   H1309     1.0  0.66158  0.22877  0.63497  1.0000
  C   C1625     1.0  0.61308  0.10812  0.80821  1.0000
  C   C1626     1.0  0.62893  0.09252  0.80044  1.0000
  C   C1627     1.0  0.96131  0.03839  0.74175  1.0000
  H   H1310     1.0  0.49486  0.03556  0.61412  1.0000
  H   H1311     1.0  0.71279  0.21366  0.58531  1.0000
  C   C1628     1.0  0.73717  0.01492  0.96967  1.0000
  C   C1629     1.0  0.61031  0.12832  0.79697  1.0000
  C   C1630     1.0  0.73734  0.18750  0.58379  1.0000
  H   H1312     1.0  0.62140  0.14886  0.76940  1.0000
  H   H1313     1.0  0.70758  0.22338  0.86627  1.0000
  S   S231      1.0  0.68253  0.00867  0.93845  1.0000
  C   C1631     1.0  0.72063  0.20950  0.83570  1.0000
  C   C1632     1.0  0.56973  0.01334  0.70553  1.0000
  C   C1633     1.0  0.79439  0.17486  0.96956  1.0000
  H   H1314     1.0  0.94200  0.22684  0.56439  1.0000
  C   C1634     1.0  0.74185  0.99520  0.95869  1.0000
  H   H1315     1.0  0.59789  0.14021  0.80291  1.0000
  H   H1316     1.0  0.55389  0.05886  0.64497  1.0000
  H   H1317     1.0  0.72776  0.02794  0.96133  1.0000
  C   C1635     1.0  0.96787  0.12479  0.60299  1.0000
  C   C1636     1.0  0.52474  0.04443  0.63100  1.0000
  S   S232      1.0  0.97762  0.21426  0.49556  1.0000
  C   C1637     1.0  0.54657  0.00408  0.61708  1.0000
  C   C1638     1.0  0.95032  0.99373  0.74601  1.0000
  H   H1318     1.0  0.92798  0.08266  0.49953  1.0000
  S   S233      1.0  0.51405  0.99313  0.71547  1.0000
  H   H1319     1.0  0.57845  0.01677  0.62616  1.0000
  C   C1639     1.0  0.56270  0.99859  0.66919  1.0000
  C   C1640     1.0  0.57785  0.23066  0.64715  1.0000
  H   H1320     1.0  0.77817  0.22896  0.60815  1.0000
  C   C1641     1.0  0.83765  0.22857  0.87878  1.0000
  H   H1321     1.0  0.95527  0.10884  0.51306  1.0000
  C   C1642     1.0  0.58124  0.99848  0.59586  1.0000
  H   H1322     1.0  0.98871  0.15693  0.78790  1.0000
  C   C1643     1.0  0.89939  0.10311  0.50832  1.0000
  C   C1644     1.0  0.71894  0.22554  0.85212  1.0000
  H   H1323     1.0  0.96554  0.05558  0.73957  1.0000
  C   C1645     1.0  0.73526  0.21232  0.81744  1.0000
  C   C1646     1.0  0.97240  0.14986  0.49174  1.0000
  H   H1324     1.0  0.51055  0.10424  0.61086  1.0000
  C   C1647     1.0  0.98423  0.99260  0.68219  1.0000
  H   H1325     1.0  0.90131  0.15302  0.53295  1.0000
  C   C1648     1.0  0.97621  0.12767  0.56337  1.0000
  H   H1326     1.0  0.75949  0.23300  0.80131  1.0000
  H   H1327     1.0  0.72508  0.24089  0.20959  1.0000
  C   C1649     1.0  0.86155  0.42575  0.47035  1.0000
  H   H1328     1.0  0.53085  0.34449  0.24666  1.0000
  H   H1329     1.0  0.79933  0.27316  0.23130  1.0000
  H   H1330     1.0  0.71679  0.26628  0.24116  1.0000
  C   C1650     1.0  0.55901  0.32148  0.40488  1.0000
  H   H1331     1.0  0.54948  0.43277  0.23118  1.0000
  C   C1651     1.0  0.73197  0.26873  0.16349  1.0000
  C   C1652     1.0  0.51932  0.36479  0.21936  1.0000
  H   H1332     1.0  0.58124  0.24898  0.39881  1.0000
  H   H1333     1.0  0.64637  0.30515  0.22355  1.0000
  Fe  Fe118     1.0  0.61294  0.47675  0.21011  1.0000
  S   S234      1.0  0.61784  0.44989  0.23723  1.0000
  S   S235      1.0  0.59081  0.47248  0.18081  1.0000
  S   S236      1.0  0.80422  0.44021  0.47540  1.0000
  Fe  Fe119     1.0  0.86156  0.29328  0.01947  1.0000
  S   S237      1.0  0.84814  0.28800  0.05535  1.0000
  S   S238      1.0  0.88115  0.32371  0.00975  1.0000
  H   H1334     1.0  0.50778  0.38860  0.19536  1.0000
  C   C1653     1.0  0.53880  0.27249  0.36504  1.0000
  C   C1654     1.0  0.63463  0.28077  0.24727  1.0000
  H   H1335     1.0  0.68646  0.44058  0.02511  1.0000
  H   H1336     1.0  0.84964  0.42840  0.45727  1.0000
  H   H1337     1.0  0.96466  0.35022  0.03054  1.0000
  Fe  Fe120     1.0  0.78929  0.35832  0.46773  1.0000
  S   S239      1.0  0.77157  0.33621  0.44332  1.0000
  S   S240      1.0  0.81867  0.37941  0.45854  1.0000
  Fe  Fe121     1.0  0.68399  0.33994  0.28180  1.0000
  S   S241      1.0  0.66410  0.33751  0.31399  1.0000
  S   S242      1.0  0.68266  0.36582  0.25330  1.0000
  Fe  Fe122     1.0  0.71120  0.29724  0.29254  1.0000
  S   S243      1.0  0.69290  0.29203  0.32585  1.0000
  S   S244      1.0  0.74155  0.27573  0.28134  1.0000
  Fe  Fe123     1.0  0.66169  0.30112  0.30726  1.0000
  S   S245      1.0  0.62693  0.28564  0.30766  1.0000
  Fe  Fe124     1.0  0.69666  0.32859  0.33053  1.0000
  S   S246      1.0  0.70439  0.34743  0.36238  1.0000
  S   S247      1.0  0.67989  0.30406  0.27387  1.0000
  S   S248      1.0  0.71670  0.33332  0.29858  1.0000
  C   C1655     1.0  0.61218  0.26590  0.32444  1.0000
  C   C1656     1.0  0.58971  0.26204  0.31993  1.0000
  C   C1657     1.0  0.51789  0.45069  0.23405  1.0000
  C   C1658     1.0  0.80109  0.25000  0.04778  1.0000
  C   C1659     1.0  0.83574  0.26364  0.09266  1.0000
  C   C1660     1.0  0.75334  0.33997  0.42054  1.0000
  C   C1661     1.0  0.74349  0.36039  0.41516  1.0000
  C   C1662     1.0  0.72869  0.36232  0.39729  1.0000
  C   C1663     1.0  0.72388  0.34403  0.38422  1.0000
  C   C1664     1.0  0.73387  0.32362  0.38953  1.0000
  C   C1665     1.0  0.74838  0.32163  0.40762  1.0000
  H   H1338     1.0  0.74710  0.37466  0.42488  1.0000
  H   H1339     1.0  0.72097  0.37816  0.39348  1.0000
  H   H1340     1.0  0.73030  0.30936  0.37978  1.0000
  H   H1341     1.0  0.75586  0.30573  0.41162  1.0000
  H   H1342     1.0  0.62302  0.34020  0.44858  1.0000
  H   H1343     1.0  0.82025  0.36912  0.01359  1.0000
  C   C1666     1.0  0.69294  0.25893  0.16200  1.0000
  H   H1344     1.0  0.82588  0.24516  0.12239  1.0000
  C   C1667     1.0  0.73671  0.47027  0.09798  1.0000
  H   H1345     1.0  0.90240  0.31335  0.32946  1.0000
  C   C1668     1.0  0.55305  0.46339  0.24780  1.0000
  C   C1669     1.0  0.69918  0.43423  0.26491  1.0000
  C   C1670     1.0  0.63596  0.42644  0.24104  1.0000
  C   C1671     1.0  0.65287  0.42065  0.22559  1.0000
  C   C1672     1.0  0.66686  0.40203  0.22956  1.0000
  C   C1673     1.0  0.66413  0.38886  0.24897  1.0000
  C   C1674     1.0  0.64714  0.39459  0.26436  1.0000
  C   C1675     1.0  0.63323  0.41326  0.26042  1.0000
  H   H1346     1.0  0.65509  0.43047  0.21056  1.0000
  H   H1347     1.0  0.67988  0.39778  0.21749  1.0000
  H   H1348     1.0  0.64478  0.38471  0.27935  1.0000
  H   H1349     1.0  0.62022  0.41752  0.27250  1.0000
  H   H1350     1.0  0.72364  0.44795  0.24210  1.0000
  C   C1676     1.0  0.73806  0.24641  0.16145  1.0000
  H   H1351     1.0  0.52440  0.32017  0.39567  1.0000
  C   C1677     1.0  0.84842  0.26378  0.07255  1.0000
  H   H1352     1.0  0.70412  0.29210  0.16435  1.0000
  C   C1678     1.0  0.76592  0.31096  0.33237  1.0000
  H   H1353     1.0  0.70862  0.36971  0.45096  1.0000
  H   H1354     1.0  0.68406  0.46379  0.11451  1.0000
  C   C1679     1.0  0.67205  0.42628  0.08695  1.0000
  C   C1680     1.0  0.54248  0.48278  0.25512  1.0000
  H   H1355     1.0  0.91559  0.33828  0.06508  1.0000
  C   C1681     1.0  0.54720  0.36303  0.42201  1.0000
  C   C1682     1.0  0.88715  0.31757  0.33865  1.0000
  H   H1356     1.0  0.66938  0.48113  0.05514  1.0000
  C   C1683     1.0  0.53409  0.25950  0.44302  1.0000
  H   H1357     1.0  0.79061  0.39994  0.41591  1.0000
  C   C1684     1.0  0.68195  0.43880  0.28035  1.0000
  C   C1685     1.0  0.67544  0.46061  0.28462  1.0000
  H   H1358     1.0  0.82796  0.25164  0.20986  1.0000
  H   H1359     1.0  0.51287  0.28715  0.31723  1.0000
  C   C1686     1.0  0.80410  0.37154  0.39877  1.0000
  C   C1687     1.0  0.83441  0.31817  0.44221  1.0000
  C   C1688     1.0  0.82201  0.29922  0.44606  1.0000
  C   C1689     1.0  0.80911  0.29101  0.42915  1.0000
  C   C1690     1.0  0.80871  0.30168  0.40833  1.0000
  C   C1691     1.0  0.82111  0.32078  0.40436  1.0000
  C   C1692     1.0  0.83384  0.32902  0.42153  1.0000
  P   P54       1.0  0.82159  0.33442  0.37737  1.0000
  H   H1360     1.0  0.78639  0.28182  0.32779  1.0000
  C   C1693     1.0  0.81853  0.36374  0.38175  1.0000
  H   H1361     1.0  0.75310  0.30551  0.32145  1.0000
  C   C1694     1.0  0.81588  0.38289  0.00281  1.0000
  C   C1695     1.0  0.81372  0.40915  0.38943  1.0000
  C   C1696     1.0  0.82806  0.40157  0.37235  1.0000
  C   C1697     1.0  0.83047  0.37895  0.36848  1.0000
  H   H1362     1.0  0.63520  0.30958  0.34871  1.0000
  C   C1698     1.0  0.84750  0.32812  0.36247  1.0000
  C   C1699     1.0  0.84885  0.33104  0.33922  1.0000
  C   C1700     1.0  0.87533  0.38843  0.00692  1.0000
  H   H1363     1.0  0.84438  0.32459  0.45529  1.0000
  H   H1364     1.0  0.82227  0.29107  0.46221  1.0000
  H   H1365     1.0  0.79918  0.27655  0.43223  1.0000
  H   H1366     1.0  0.79841  0.29518  0.39561  1.0000
  H   H1367     1.0  0.84344  0.34381  0.41893  1.0000
  H   H1368     1.0  0.81192  0.42666  0.39254  1.0000
  H   H1369     1.0  0.83734  0.41325  0.36213  1.0000
  H   H1370     1.0  0.84169  0.37346  0.35522  1.0000
  C   C1701     1.0  0.78014  0.33833  0.35697  1.0000
  H   H1371     1.0  0.77778  0.35404  0.36506  1.0000
  H   H1372     1.0  0.83458  0.33729  0.33020  1.0000
  C   C1702     1.0  0.80170  0.39413  0.40259  1.0000
  C   C1703     1.0  0.94080  0.27885  0.06030  1.0000
  C   C1704     1.0  0.91785  0.28282  0.05766  1.0000
  C   C1705     1.0  0.73190  0.25629  0.24082  1.0000
  H   H1373     1.0  0.75887  0.41144  0.11541  1.0000
  C   C1706     1.0  0.51700  0.44046  0.14351  1.0000
  C   C1707     1.0  0.95450  0.29660  0.06504  1.0000
  C   C1708     1.0  0.63392  0.28732  0.40101  1.0000
  H   H1374     1.0  0.74898  0.34163  0.34007  1.0000
  H   H1375     1.0  0.69544  0.29220  0.46843  1.0000
  H   H1376     1.0  0.53969  0.45141  0.19303  1.0000
  H   H1377     1.0  0.72320  0.40707  0.45288  1.0000
  C   C1709     1.0  0.63843  0.25993  0.25688  1.0000
  C   C1710     1.0  0.71752  0.31612  0.48186  1.0000
  C   C1711     1.0  0.52505  0.27100  0.34673  1.0000
  H   H1378     1.0  0.71268  0.48659  0.24983  1.0000
  C   C1712     1.0  0.54910  0.30924  0.35298  1.0000
  C   C1713     1.0  0.72280  0.36214  0.09936  1.0000
  H   H1379     1.0  0.93329  0.36705  0.01031  1.0000
  H   H1380     1.0  0.90034  0.30822  0.37052  1.0000
  H   H1381     1.0  0.68583  0.24563  0.22755  1.0000
  C   C1714     1.0  0.52457  0.37806  0.25657  1.0000
  C   C1715     1.0  0.74426  0.35844  0.10726  1.0000
  C   C1716     1.0  0.70927  0.27493  0.16338  1.0000
  C   C1717     1.0  0.64272  0.29572  0.38091  1.0000
  C   C1718     1.0  0.94966  0.36649  0.00235  1.0000
  H   H1382     1.0  0.66765  0.42232  0.10414  1.0000
  C   C1719     1.0  0.90887  0.30417  0.05950  1.0000
  P   P55       1.0  0.50259  0.43067  0.21900  1.0000
  H   H1383     1.0  0.97223  0.29417  0.06715  1.0000
  C   C1720     1.0  0.94544  0.31795  0.06672  1.0000
  C   C1721     1.0  0.60529  0.30231  0.36782  1.0000
  S   S249      1.0  0.72223  0.47105  0.00403  1.0000
  H   H1384     1.0  0.93037  0.26810  0.01735  1.0000
  H   H1385     1.0  0.59470  0.30782  0.35449  1.0000
  H   H1386     1.0  0.86580  0.31731  0.39152  1.0000
  C   C1722     1.0  0.86626  0.31991  0.37367  1.0000
  C   C1723     1.0  0.96743  0.35699  0.01395  1.0000
  C   C1724     1.0  0.70380  0.47341  0.25827  1.0000
  C   C1725     1.0  0.73749  0.44813  0.09153  1.0000
  C   C1726     1.0  0.66742  0.27590  0.22344  1.0000
  C   C1727     1.0  0.70447  0.43729  0.12781  1.0000
  C   C1728     1.0  0.59626  0.29404  0.38801  1.0000
  H   H1387     1.0  0.57088  0.46103  0.24954  1.0000
  C   C1729     1.0  0.76367  0.33133  0.34280  1.0000
  H   H1388     1.0  0.67895  0.28229  0.21086  1.0000
  H   H1389     1.0  0.52061  0.26217  0.45510  1.0000
  H   H1390     1.0  0.69477  0.25068  0.27782  1.0000
  C   C1730     1.0  0.66042  0.43229  0.04900  1.0000
  C   C1731     1.0  0.71229  0.29555  0.47319  1.0000
  H   H1391     1.0  0.73675  0.28173  0.12028  1.0000
  C   C1732     1.0  0.53119  0.35044  0.41193  1.0000
  H   H1392     1.0  0.78181  0.48907  0.06838  1.0000
  H   H1393     1.0  0.77389  0.37337  0.11902  1.0000
  C   C1733     1.0  0.65523  0.42719  0.07128  1.0000
  C   C1734     1.0  0.80132  0.30458  0.35000  1.0000
  P   P56       1.0  0.69584  0.33684  0.48581  1.0000
  H   H1394     1.0  0.86945  0.32790  0.30943  1.0000
  C   C1735     1.0  0.78471  0.29757  0.33601  1.0000
  C   C1736     1.0  0.71043  0.42576  0.14733  1.0000
  H   H1395     1.0  0.82597  0.27812  0.09720  1.0000
  P   P57       1.0  0.71594  0.42946  0.10081  1.0000
  H   H1396     1.0  0.89115  0.30708  0.05752  1.0000
  H   H1397     1.0  0.63934  0.25660  0.34549  1.0000
  H   H1398     1.0  0.53450  0.32105  0.32252  1.0000
  C   C1737     1.0  0.61081  0.28666  0.40465  1.0000
  C   C1738     1.0  0.80234  0.40047  0.01112  1.0000
  C   C1739     1.0  0.68243  0.43647  0.04236  1.0000
  S   S250      1.0  0.77919  0.44043  0.00931  1.0000
  H   H1399     1.0  0.86327  0.37657  0.01299  1.0000
  C   C1740     1.0  0.68527  0.44910  0.16924  1.0000
  C   C1741     1.0  0.75721  0.37625  0.11297  1.0000
  C   C1742     1.0  0.51247  0.38595  0.21247  1.0000
  H   H1400     1.0  0.52014  0.44318  0.12584  1.0000
  H   H1401     1.0  0.69757  0.38618  0.09103  1.0000
  C   C1743     1.0  0.54138  0.27688  0.42924  1.0000
  C   C1744     1.0  0.49756  0.43014  0.15104  1.0000
  H   H1402     1.0  0.78324  0.45018  0.05654  1.0000
  H   H1403     1.0  0.66201  0.46377  0.29662  1.0000
  C   C1745     1.0  0.67781  0.33600  0.46217  1.0000
  C   C1746     1.0  0.65456  0.33835  0.46492  1.0000
  C   C1747     1.0  0.64092  0.33825  0.44638  1.0000
  C   C1748     1.0  0.65037  0.33589  0.42500  1.0000
  C   C1749     1.0  0.67344  0.33328  0.42214  1.0000
  C   C1750     1.0  0.68711  0.33320  0.44062  1.0000
  C   C1751     1.0  0.70081  0.43166  0.16796  1.0000
  C   C1752     1.0  0.74673  0.25783  0.25827  1.0000
  C   C1753     1.0  0.69928  0.43576  0.05801  1.0000
  C   C1754     1.0  0.89129  0.40406  0.48674  1.0000
  H   H1404     1.0  0.51992  0.35144  0.20759  1.0000
  C   C1755     1.0  0.69421  0.43072  0.08048  1.0000
  C   C1756     1.0  0.55081  0.29170  0.36845  1.0000
  C   C1757     1.0  0.75447  0.44097  0.07656  1.0000
  H   H1405     1.0  0.67546  0.26378  0.16212  1.0000
  C   C1758     1.0  0.87634  0.40770  0.46959  1.0000
  C   C1759     1.0  0.54083  0.44737  0.23736  1.0000
  H   H1406     1.0  0.75320  0.28928  0.08294  1.0000
  H   H1407     1.0  0.79473  0.36013  0.40916  1.0000
  H   H1408     1.0  0.66062  0.29627  0.37798  1.0000
  C   C1760     1.0  0.87266  0.41064  0.01227  1.0000
  C   C1761     1.0  0.51961  0.48604  0.25226  1.0000
  H   H1409     1.0  0.56003  0.24379  0.32880  1.0000
  H   H1410     1.0  0.63989  0.33617  0.41057  1.0000
  H   H1411     1.0  0.68081  0.33162  0.40552  1.0000
  H   H1412     1.0  0.70501  0.33138  0.43798  1.0000
  H   H1413     1.0  0.81588  0.29406  0.35251  1.0000
  P   P58       1.0  0.95220  0.25107  0.05828  1.0000
  C   C1762     1.0  0.72727  0.40168  0.10252  1.0000
  C   C1763     1.0  0.88598  0.31468  0.36178  1.0000
  C   C1764     1.0  0.73678  0.24200  0.22286  1.0000
  H   H1414     1.0  0.70390  0.41724  0.26144  1.0000
  C   C1765     1.0  0.62839  0.30333  0.36443  1.0000
  C   C1766     1.0  0.68892  0.45480  0.12935  1.0000
  H   H1415     1.0  0.72333  0.47660  0.10863  1.0000
  C   C1767     1.0  0.74872  0.39779  0.11074  1.0000
  H   H1416     1.0  0.72229  0.41213  0.14674  1.0000
  H   H1417     1.0  0.71613  0.43936  0.05242  1.0000
  H   H1418     1.0  0.51558  0.25622  0.34440  1.0000
  H   H1419     1.0  0.70522  0.42261  0.18296  1.0000
  S   S251      1.0  0.87410  0.35049  0.48148  1.0000
  C   C1768     1.0  0.57717  0.24672  0.33272  1.0000
  C   C1769     1.0  0.71019  0.45153  0.25397  1.0000
  H   H1420     1.0  0.75493  0.42428  0.07045  1.0000
  H   H1421     1.0  0.80683  0.48274  0.45320  1.0000
  H   H1422     1.0  0.59200  0.32824  0.41658  1.0000
  H   H1423     1.0  0.67767  0.45364  0.18515  1.0000
  H   H1424     1.0  0.79648  0.39997  0.02831  1.0000
  H   H1425     1.0  0.67346  0.42534  0.28881  1.0000
  C   C1770     1.0  0.97225  0.30154  0.00730  1.0000
  H   H1426     1.0  0.75086  0.34178  0.10890  1.0000
  H   H1427     1.0  0.63973  0.48189  0.26269  1.0000
  H   H1428     1.0  0.95895  0.30161  0.01972  1.0000
  H   H1429     1.0  0.71277  0.34834  0.09491  1.0000
  C   C1771     1.0  0.79780  0.27132  0.21350  1.0000
  C   C1772     1.0  0.76655  0.24496  0.25736  1.0000
  C   C1773     1.0  0.52353  0.28846  0.33140  1.0000
  C   C1774     1.0  0.79314  0.26537  0.16788  1.0000
  C   C1775     1.0  0.77689  0.27776  0.17982  1.0000
  C   C1776     1.0  0.77930  0.28050  0.20281  1.0000
  P   P59       1.0  0.75308  0.28934  0.16549  1.0000
  H   H1430     1.0  0.87594  0.39624  0.45595  1.0000
  C   C1777     1.0  0.74115  0.31263  0.18045  1.0000
  C   C1778     1.0  0.72881  0.30903  0.20038  1.0000
  C   C1779     1.0  0.71897  0.32675  0.21186  1.0000
  C   C1780     1.0  0.72116  0.34820  0.20345  1.0000
  C   C1781     1.0  0.73326  0.35196  0.18356  1.0000
  C   C1782     1.0  0.74324  0.33427  0.17208  1.0000
  C   C1783     1.0  0.67130  0.25508  0.23307  1.0000
  C   C1784     1.0  0.71427  0.38367  0.09708  1.0000
  H   H1431     1.0  0.58149  0.36472  0.43138  1.0000
  C   C1785     1.0  0.79922  0.32507  0.36053  1.0000
  C   C1786     1.0  0.75073  0.28327  0.47625  1.0000
  C   C1787     1.0  0.76310  0.29735  0.13789  1.0000
  C   C1788     1.0  0.78324  0.30864  0.13531  1.0000
  C   C1789     1.0  0.79249  0.31277  0.11406  1.0000
  C   C1790     1.0  0.78170  0.30575  0.09520  1.0000
  C   C1791     1.0  0.76145  0.29487  0.09758  1.0000
  C   C1792     1.0  0.75214  0.29067  0.11883  1.0000
  C   C1793     1.0  0.53567  0.30753  0.33444  1.0000
  C   C1794     1.0  0.72001  0.39769  0.46810  1.0000
  S   S252      1.0  0.83582  0.29953  0.99335  1.0000
  C   C1795     1.0  0.77055  0.45564  0.06854  1.0000
  H   H1432     1.0  0.76698  0.28942  0.21273  1.0000
  H   H1433     1.0  0.72685  0.29248  0.20711  1.0000
  H   H1434     1.0  0.70966  0.32395  0.22737  1.0000
  H   H1435     1.0  0.71344  0.36187  0.21244  1.0000
  H   H1436     1.0  0.73487  0.36863  0.17707  1.0000
  H   H1437     1.0  0.75242  0.33759  0.15670  1.0000
  C   C1796     1.0  0.76974  0.47758  0.07519  1.0000
  C   C1797     1.0  0.67933  0.46065  0.14994  1.0000
  H   H1438     1.0  0.58188  0.27101  0.30643  1.0000
  C   C1798     1.0  0.86859  0.32576  0.32738  1.0000
  H   H1439     1.0  0.92171  0.34407  0.47961  1.0000
  H   H1440     1.0  0.79217  0.31360  0.14979  1.0000
  H   H1441     1.0  0.80838  0.32089  0.11216  1.0000
  H   H1442     1.0  0.78922  0.30850  0.07877  1.0000
  C   C1799     1.0  0.81162  0.25631  0.17861  1.0000
  P   P60       1.0  0.56642  0.29483  0.39353  1.0000
  C   C1800     1.0  0.92264  0.32175  0.06388  1.0000
  C   C1801     1.0  0.53704  0.32975  0.40340  1.0000
  H   H1443     1.0  0.73106  0.42331  0.48937  1.0000
  H   H1444     1.0  0.79151  0.26248  0.15026  1.0000
  C   C1802     1.0  0.68600  0.47809  0.27325  1.0000
  H   H1445     1.0  0.53317  0.29281  0.43081  1.0000
  H   H1446     1.0  0.76374  0.27090  0.47346  1.0000
  H   H1447     1.0  0.95614  0.33156  0.07015  1.0000
  H   H1448     1.0  0.51422  0.35673  0.41065  1.0000
  H   H1449     1.0  0.55794  0.32435  0.35537  1.0000
  C   C1803     1.0  0.57498  0.33418  0.41517  1.0000
  C   C1804     1.0  0.62205  0.25400  0.34187  1.0000
  C   C1805     1.0  0.89131  0.32613  0.48462  1.0000
  C   C1806     1.0  0.56907  0.35490  0.42364  1.0000
  H   H1450     1.0  0.79333  0.27942  0.02870  1.0000
  S   S253      1.0  0.62584  0.48650  0.12578  1.0000
  H   H1451     1.0  0.87086  0.24476  0.05160  1.0000
  H   H1452     1.0  0.71660  0.25102  0.31204  1.0000
  C   C1807     1.0  0.64905  0.28874  0.23050  1.0000
  C   C1808     1.0  0.71176  0.37636  0.46711  1.0000
  H   H1453     1.0  0.75540  0.24113  0.16128  1.0000
  H   H1454     1.0  0.63811  0.42427  0.07651  1.0000
  C   C1809     1.0  0.79897  0.26236  0.02810  1.0000
  C   C1810     1.0  0.81390  0.25917  0.20145  1.0000
  H   H1455     1.0  0.82403  0.24676  0.16926  1.0000
  C   C1811     1.0  0.75280  0.48490  0.08985  1.0000
  C   C1812     1.0  0.72888  0.27923  0.47032  1.0000
  Fe  Fe125     1.0  0.75967  0.47255  0.99986  1.0000
  H   H1456     1.0  0.62084  0.29101  0.25341  1.0000
  H   H1457     1.0  0.64735  0.43322  0.03690  1.0000
  H   H1458     1.0  0.54266  0.37912  0.42852  1.0000
  C   C1813     1.0  0.86155  0.44006  0.48834  1.0000
  H   H1459     1.0  0.64505  0.28140  0.41379  1.0000
  C   C1814     1.0  0.83562  0.24494  0.10698  1.0000
  H   H1460     1.0  0.72485  0.26359  0.46314  1.0000
  H   H1461     1.0  0.90685  0.26942  0.05421  1.0000
  C   C1815     1.0  0.51768  0.39922  0.24975  1.0000
  H   H1462     1.0  0.85846  0.41601  0.02251  1.0000
  H   H1463     1.0  0.79712  0.25752  0.06367  1.0000
  H   H1464     1.0  0.90250  0.38982  0.48622  1.0000
  H   H1465     1.0  0.97349  0.24290  0.10129  1.0000
  H   H1466     1.0  0.92174  0.25916  0.09697  1.0000
  H   H1467     1.0  0.63744  0.47332  0.08113  1.0000
  C   C1816     1.0  0.95204  0.24177  0.02976  1.0000
  C   C1817     1.0  0.98634  0.24674  0.08891  1.0000
  H   H1468     1.0  0.80374  0.26255  0.99237  1.0000
  C   C1818     1.0  0.50733  0.47007  0.24174  1.0000
  C   C1819     1.0  0.79621  0.41863  0.99747  1.0000
  H   H1469     1.0  0.51696  0.41233  0.26179  1.0000
  C   C1820     1.0  0.70781  0.36397  0.48674  1.0000
  C   C1821     1.0  0.93984  0.25326  0.01348  1.0000
  H   H1470     1.0  0.64690  0.34037  0.48127  1.0000
  H   H1471     1.0  0.53991  0.25856  0.37640  1.0000
  C   C1822     1.0  0.55869  0.27339  0.41337  1.0000
  H   H1472     1.0  0.60434  0.28052  0.42051  1.0000
  S   S254      1.0  0.88280  0.27071  0.99785  1.0000
  C   C1823     1.0  0.80494  0.48592  0.47081  1.0000
  C   C1824     1.0  0.53223  0.44770  0.15882  1.0000
  H   H1473     1.0  0.84954  0.45365  0.48885  1.0000
  C   C1825     1.0  0.65042  0.48409  0.08623  1.0000
  C   C1826     1.0  0.56839  0.25224  0.41141  1.0000
  H   H1474     1.0  0.54713  0.45610  0.15304  1.0000
  C   C1827     1.0  0.90591  0.41906  0.99018  1.0000
  C   C1828     1.0  0.50841  0.43452  0.18944  1.0000
  H   H1475     1.0  0.66706  0.47400  0.15086  1.0000
  Fe  Fe126     1.0  0.80517  0.40289  0.48500  1.0000
  C   C1829     1.0  0.80316  0.46794  0.48593  1.0000
  C   C1830     1.0  0.80495  0.25294  0.00768  1.0000
  H   H1476     1.0  0.52929  0.37502  0.27365  1.0000
  C   C1831     1.0  0.86105  0.24495  0.06696  1.0000
  H   H1477     1.0  0.62718  0.25450  0.27008  1.0000
  Fe  Fe127     1.0  0.83695  0.36107  0.48578  1.0000
  C   C1832     1.0  0.75592  0.30350  0.48533  1.0000
  H   H1478     1.0  0.59929  0.48570  0.26924  1.0000
  H   H1479     1.0  0.77821  0.24597  0.27069  1.0000
  C   C1833     1.0  0.66856  0.48849  0.07140  1.0000
  H   H1480     1.0  0.66807  0.48518  0.00726  1.0000
  C   C1834     1.0  0.91467  0.32803  0.48277  1.0000
  C   C1835     1.0  0.92911  0.30939  0.48487  1.0000
  C   C1836     1.0  0.88803  0.42594  0.00404  1.0000
  H   H1481     1.0  0.94697  0.31126  0.48336  1.0000
  C   C1837     1.0  0.92262  0.24164  0.09393  1.0000
  H   H1482     1.0  0.88586  0.44319  0.00812  1.0000
  C   C1838     1.0  0.98088  0.25092  0.06664  1.0000
  C   C1839     1.0  0.52544  0.36086  0.24137  1.0000
  C   C1840     1.0  0.52791  0.44493  0.18167  1.0000
  C   C1841     1.0  0.65677  0.24682  0.24985  1.0000
  C   C1842     1.0  0.51187  0.40339  0.22756  1.0000
  C   C1843     1.0  0.89301  0.38156  0.99290  1.0000
  C   C1844     1.0  0.94038  0.24613  0.99145  1.0000
  C   C1845     1.0  0.98870  0.35561  0.00393  1.0000
  C   C1846     1.0  0.72439  0.40687  0.48866  1.0000
  C   C1847     1.0  0.88258  0.30516  0.48869  1.0000
  C   C1848     1.0  0.49335  0.42701  0.17388  1.0000
  C   C1849     1.0  0.92042  0.28840  0.48868  1.0000
  C   C1850     1.0  0.73938  0.31986  0.48832  1.0000
  H   H1483     1.0  0.77296  0.30693  0.48916  1.0000
  C   C1851     1.0  0.60755  0.25554  0.65771  1.0000
  H   H1484     1.0  0.97760  0.45291  0.95448  1.0000
  C   C1852     1.0  0.85814  0.26949  0.53790  1.0000
  C   C1853     1.0  0.83908  0.43888  0.58679  1.0000
  H   H1485     1.0  0.52624  0.45703  0.74304  1.0000
  C   C1854     1.0  0.76525  0.27970  0.58289  1.0000
  C   C1855     1.0  0.77304  0.29281  0.56511  1.0000
  H   H1486     1.0  0.56238  0.28403  0.63785  1.0000
  H   H1487     1.0  0.93699  0.28451  0.53855  1.0000
  H   H1488     1.0  0.60022  0.29000  0.65248  1.0000
  H   H1489     1.0  0.91271  0.48466  0.52879  1.0000
  Fe  Fe128     1.0  0.85806  0.27856  0.97091  1.0000
  C   C1856     1.0  0.93746  0.47004  0.54972  1.0000
  S   S255      1.0  0.87705  0.30790  0.95817  1.0000
  Fe  Fe129     1.0  0.79591  0.36425  0.51797  1.0000
  S   S256      1.0  0.78899  0.35418  0.55457  1.0000
  S   S257      1.0  0.82562  0.38600  0.51144  1.0000
  Fe  Fe130     1.0  0.70205  0.29834  0.69585  1.0000
  S   S258      1.0  0.66599  0.30184  0.70734  1.0000
  S   S259      1.0  0.73027  0.28864  0.71972  1.0000
  Fe  Fe131     1.0  0.69261  0.31743  0.64870  1.0000
  S   S260      1.0  0.65593  0.32178  0.65750  1.0000
  S   S261      1.0  0.70182  0.32646  0.61201  1.0000
  Fe  Fe132     1.0  0.66663  0.33536  0.69038  1.0000
  S   S262      1.0  0.64909  0.36799  0.70089  1.0000
  Fe  Fe133     1.0  0.65775  0.28820  0.67366  1.0000
  S   S263      1.0  0.63449  0.25877  0.66928  1.0000
  S   S264      1.0  0.70314  0.33284  0.68053  1.0000
  S   S265      1.0  0.69397  0.28281  0.66322  1.0000
  C   C1857     1.0  0.49563  0.47400  0.73442  1.0000
  C   C1858     1.0  0.51345  0.36085  0.66488  1.0000
  C   C1859     1.0  0.81460  0.28247  0.62698  1.0000
  C   C1860     1.0  0.78005  0.26266  0.87018  1.0000
  H   H1490     1.0  0.72497  0.40141  0.52416  1.0000
  C   C1861     1.0  0.76034  0.27548  0.67144  1.0000
  Fe  Fe134     1.0  0.62437  0.46751  0.79114  1.0000
  S   S266      1.0  0.63611  0.43146  0.78532  1.0000
  S   S267      1.0  0.60526  0.47618  0.82323  1.0000
  H   H1491     1.0  0.71728  0.24231  0.71517  1.0000
  H   H1492     1.0  0.58858  0.25826  0.70867  1.0000
  H   H1493     1.0  0.64140  0.26133  0.61989  1.0000
  C   C1862     1.0  0.55931  0.30662  0.70286  1.0000
  C   C1863     1.0  0.64697  0.38578  0.72442  1.0000
  C   C1864     1.0  0.63690  0.40685  0.72182  1.0000
  C   C1865     1.0  0.63405  0.42130  0.74000  1.0000
  C   C1866     1.0  0.64092  0.41475  0.76124  1.0000
  C   C1867     1.0  0.65108  0.39372  0.76382  1.0000
  C   C1868     1.0  0.65423  0.37940  0.74557  1.0000
  H   H1494     1.0  0.63120  0.41205  0.70561  1.0000
  H   H1495     1.0  0.62613  0.43731  0.73765  1.0000
  H   H1496     1.0  0.65641  0.38838  0.78013  1.0000
  H   H1497     1.0  0.66192  0.36329  0.74795  1.0000
  C   C1869     1.0  0.90779  0.43559  0.55690  1.0000
  S   S268      1.0  0.84168  0.36182  0.96928  1.0000
  C   C1870     1.0  0.74039  0.26306  0.73117  1.0000
  C   C1871     1.0  0.76420  0.34758  0.57023  1.0000
  C   C1872     1.0  0.74378  0.34430  0.56019  1.0000
  C   C1873     1.0  0.72496  0.33794  0.57326  1.0000
  C   C1874     1.0  0.72617  0.33491  0.59653  1.0000
  C   C1875     1.0  0.74654  0.33847  0.60656  1.0000
  C   C1876     1.0  0.76539  0.34466  0.59348  1.0000
  H   H1498     1.0  0.74261  0.34629  0.54235  1.0000
  H   H1499     1.0  0.70934  0.33533  0.56527  1.0000
  H   H1500     1.0  0.74773  0.33658  0.62442  1.0000
  H   H1501     1.0  0.78100  0.34737  0.60147  1.0000
  H   H1502     1.0  0.85775  0.38073  0.59334  1.0000
  C   C1877     1.0  0.84802  0.25868  0.52059  1.0000
  H   H1503     1.0  0.52947  0.26907  0.56076  1.0000
  C   C1878     1.0  0.75180  0.24549  0.64716  1.0000
  H   H1504     1.0  0.89656  0.42205  0.55974  1.0000
  H   H1505     1.0  0.85747  0.27051  0.91007  1.0000
  C   C1879     1.0  0.98454  0.30267  0.96881  1.0000
  C   C1880     1.0  0.59899  0.31304  0.70401  1.0000
  C   C1881     1.0  0.74187  0.28215  0.54329  1.0000
  H   H1506     1.0  0.76694  0.30510  0.53208  1.0000
  C   C1882     1.0  0.57265  0.27000  0.64268  1.0000
  C   C1883     1.0  0.73403  0.26900  0.56108  1.0000
  C   C1884     1.0  0.76735  0.41303  0.91363  1.0000
  C   C1885     1.0  0.93540  0.28114  0.57437  1.0000
  C   C1886     1.0  0.66589  0.43139  0.84335  1.0000
  C   C1887     1.0  0.59415  0.27347  0.65095  1.0000
  H   H1507     1.0  0.69600  0.42797  0.89034  1.0000
  C   C1888     1.0  0.50499  0.36034  0.70451  1.0000
  H   H1508     1.0  0.93127  0.25536  0.97890  1.0000
  S   S269      1.0  0.77469  0.38234  0.49281  1.0000
  C   C1889     1.0  0.67398  0.47728  0.90718  1.0000
  H   H1509     1.0  0.70229  0.28551  0.59082  1.0000
  H   H1510     1.0  0.86496  0.39625  0.55540  1.0000
  H   H1511     1.0  0.75404  0.47998  0.90451  1.0000
  C   C1890     1.0  0.58903  0.39332  0.75692  1.0000
  C   C1891     1.0  0.49790  0.36225  0.68258  1.0000
  C   C1892     1.0  0.75855  0.26318  0.74555  1.0000
  C   C1893     1.0  0.86808  0.48211  0.52135  1.0000
  C   C1894     1.0  0.53612  0.35758  0.66907  1.0000
  C   C1895     1.0  0.54339  0.35580  0.69106  1.0000
  H   H1512     1.0  0.65613  0.47241  0.87675  1.0000
  P   P61       1.0  0.57238  0.35045  0.69695  1.0000
  C   C1896     1.0  0.57709  0.32136  0.70227  1.0000
  C   C1897     1.0  0.58987  0.35744  0.67301  1.0000
  C   C1898     1.0  0.60234  0.37674  0.67237  1.0000
  C   C1899     1.0  0.61685  0.38115  0.65430  1.0000
  C   C1900     1.0  0.61889  0.36644  0.63668  1.0000
  C   C1901     1.0  0.60630  0.34732  0.63704  1.0000
  C   C1902     1.0  0.59189  0.34280  0.65515  1.0000
  H   H1513     1.0  0.86117  0.26458  0.59866  1.0000
  C   C1903     1.0  0.66706  0.34814  0.52129  1.0000
  C   C1904     1.0  0.52762  0.35702  0.70875  1.0000
  C   C1905     1.0  0.82384  0.38325  0.98066  1.0000
  H   H1514     1.0  0.67760  0.29371  0.55448  1.0000
  C   C1906     1.0  0.57925  0.36709  0.72046  1.0000
  C   C1907     1.0  0.59252  0.35860  0.73763  1.0000
  C   C1908     1.0  0.57594  0.40196  0.73987  1.0000
  C   C1909     1.0  0.57103  0.38891  0.72172  1.0000
  C   C1910     1.0  0.94106  0.41100  0.94979  1.0000
  H   H1515     1.0  0.96325  0.46229  0.91708  1.0000
  C   C1911     1.0  0.75351  0.29069  0.65517  1.0000
  H   H1516     1.0  0.89005  0.27039  0.49346  1.0000
  C   C1912     1.0  0.69353  0.27247  0.59959  1.0000
  H   H1517     1.0  0.60186  0.38792  0.68621  1.0000
  H   H1518     1.0  0.62727  0.39550  0.65452  1.0000
  H   H1519     1.0  0.63072  0.36954  0.62311  1.0000
  H   H1520     1.0  0.60825  0.33564  0.62366  1.0000
  H   H1521     1.0  0.58266  0.32764  0.65543  1.0000
  C   C1913     1.0  0.51737  0.47274  0.74228  1.0000
  C   C1914     1.0  0.51246  0.48191  0.80369  1.0000
  C   C1915     1.0  0.56344  0.28394  0.70528  1.0000
  C   C1916     1.0  0.67062  0.27509  0.60383  1.0000
  H   H1522     1.0  0.61305  0.32401  0.70280  1.0000
  H   H1523     1.0  0.83241  0.43252  0.52324  1.0000
  H   H1524     1.0  0.56995  0.41889  0.74062  1.0000
  H   H1525     1.0  0.56105  0.39593  0.70854  1.0000
  P   P62       1.0  0.73318  0.45358  0.87023  1.0000
  H   H1526     1.0  0.81058  0.29664  0.76552  1.0000
  H   H1527     1.0  0.71080  0.36375  0.52270  1.0000
  C   C1917     1.0  0.77172  0.46534  0.84608  1.0000
  H   H1528     1.0  0.76974  0.41556  0.80647  1.0000
  C   C1918     1.0  0.95710  0.44799  0.92617  1.0000
  P   P63       1.0  0.93051  0.38759  0.96546  1.0000
  C   C1919     1.0  0.82398  0.26792  0.78238  1.0000
  C   C1920     1.0  0.86050  0.36982  0.57940  1.0000
  P   P64       1.0  0.87505  0.45415  0.52974  1.0000
  H   H1529     1.0  0.80784  0.42197  0.59006  1.0000
  H   H1530     1.0  0.76566  0.28118  0.68742  1.0000
  H   H1531     1.0  0.67512  0.45988  0.91117  1.0000
  H   H1532     1.0  0.79960  0.43269  0.96449  1.0000
  H   H1533     1.0  0.91744  0.43124  0.98384  1.0000
  C   C1921     1.0  0.71543  0.32320  0.82530  1.0000
  C   C1922     1.0  0.70860  0.32206  0.80327  1.0000
  C   C1923     1.0  0.71764  0.30578  0.78932  1.0000
  C   C1924     1.0  0.73369  0.29085  0.79730  1.0000
  C   C1925     1.0  0.74139  0.29249  0.81907  1.0000
  C   C1926     1.0  0.73162  0.30833  0.83328  1.0000
  P   P65       1.0  0.76177  0.27256  0.82890  1.0000
  C   C1927     1.0  0.77428  0.27942  0.85483  1.0000
  C   C1928     1.0  0.49626  0.28116  0.55375  1.0000
  H   H1534     1.0  0.87136  0.35849  0.91917  1.0000
  C   C1929     1.0  0.89970  0.29051  0.59212  1.0000
  H   H1535     1.0  0.52491  0.46877  0.80336  1.0000
  H   H1536     1.0  0.85707  0.34046  0.59941  1.0000
  C   C1930     1.0  0.80143  0.25358  0.81314  1.0000
  C   C1931     1.0  0.78090  0.30107  0.85861  1.0000
  C   C1932     1.0  0.79222  0.30601  0.87793  1.0000
  H   H1537     1.0  0.95932  0.45172  0.57143  1.0000
  H   H1538     1.0  0.86949  0.45551  0.57856  1.0000
  S   S270      1.0  0.69752  0.48217  0.94579  1.0000
  C   C1933     1.0  0.78529  0.27023  0.80968  1.0000
  C   C1934     1.0  0.78893  0.28604  0.79267  1.0000
  H   H1539     1.0  0.75326  0.30816  0.65868  1.0000
  C   C1935     1.0  0.94329  0.45220  0.56353  1.0000
  C   C1936     1.0  0.74534  0.26819  0.58125  1.0000
  C   C1937     1.0  0.75928  0.25290  0.66753  1.0000
  H   H1540     1.0  0.70806  0.33555  0.83622  1.0000
  H   H1541     1.0  0.69612  0.33360  0.79706  1.0000
  H   H1542     1.0  0.71221  0.30463  0.77228  1.0000
  C   C1938     1.0  0.84783  0.24848  0.88408  1.0000
  H   H1543     1.0  0.73625  0.30912  0.85052  1.0000
  H   H1544     1.0  0.80392  0.41797  0.54940  1.0000
  H   H1545     1.0  0.64702  0.35814  0.54988  1.0000
  C   C1939     1.0  0.65907  0.25906  0.61612  1.0000
  C   C1940     1.0  0.73032  0.44165  0.91512  1.0000
  H   H1546     1.0  0.73284  0.28319  0.52795  1.0000
  H   H1547     1.0  0.77779  0.31401  0.84640  1.0000
  C   C1941     1.0  0.70508  0.25373  0.60755  1.0000
  H   H1548     1.0  0.82104  0.25939  0.49768  1.0000
  H   H1549     1.0  0.76362  0.24121  0.68065  1.0000
  H   H1550     1.0  0.95266  0.27569  0.57552  1.0000
  H   H1551     1.0  0.77727  0.29959  0.79007  1.0000
  H   H1552     1.0  0.73007  0.25696  0.86284  1.0000
  C   C1942     1.0  0.56430  0.24857  0.64066  1.0000
  C   C1943     1.0  0.80804  0.28464  0.77884  1.0000
  S   S271      1.0  0.53675  0.24528  0.63050  1.0000
  H   H1553     1.0  0.76919  0.42027  0.87861  1.0000
  C   C1944     1.0  0.96684  0.30231  0.98477  1.0000
  C   C1945     1.0  0.68095  0.33161  0.51193  1.0000
  C   C1946     1.0  0.92846  0.43498  0.56710  1.0000
  H   H1554     1.0  0.77267  0.47922  0.85708  1.0000
  H   H1555     1.0  0.49292  0.36130  0.71824  1.0000
  H   H1556     1.0  0.73992  0.29523  0.62271  1.0000
  H   H1557     1.0  0.89438  0.36442  0.98827  1.0000
  Fe  Fe135     1.0  0.97463  0.25142  0.49119  1.0000
  C   C1947     1.0  0.93172  0.34959  0.93959  1.0000
  H   H1558     1.0  0.71619  0.45294  0.91594  1.0000
  C   C1948     1.0  0.59734  0.37169  0.75576  1.0000
  C   C1949     1.0  0.78819  0.46250  0.82937  1.0000
  H   H1559     1.0  0.72922  0.43501  0.95044  1.0000
  C   C1950     1.0  0.92657  0.28605  0.55355  1.0000
  C   C1951     1.0  0.76123  0.29424  0.54543  1.0000
  C   C1952     1.0  0.60297  0.29042  0.70694  1.0000
  H   H1560     1.0  0.92038  0.40668  0.92121  1.0000
  H   H1561     1.0  0.59329  0.40358  0.77074  1.0000
  C   C1953     1.0  0.73769  0.43144  0.93467  1.0000
  C   C1954     1.0  0.74601  0.28333  0.63482  1.0000
  C   C1955     1.0  0.65725  0.34511  0.54249  1.0000
  H   H1562     1.0  0.64998  0.42662  0.83697  1.0000
  C   C1956     1.0  0.84955  0.25519  0.90642  1.0000
  S   S272      1.0  0.84247  0.24972  0.95256  1.0000
  H   H1563     1.0  0.85450  0.25881  0.87076  1.0000
  H   H1564     1.0  0.60806  0.36528  0.76869  1.0000
  C   C1957     1.0  0.91915  0.36813  0.94656  1.0000
  H   H1565     1.0  0.78790  0.30239  0.56676  1.0000
  Fe  Fe136     1.0  0.90092  0.30142  0.98627  1.0000
  S   S273      1.0  0.93775  0.26409  0.49154  1.0000
  C   C1958     1.0  0.81772  0.40141  0.96699  1.0000
  C   C1959     1.0  0.76672  0.24354  0.75570  1.0000
  H   H1566     1.0  0.88705  0.38512  0.94449  1.0000
  C   C1960     1.0  0.74156  0.43803  0.89471  1.0000
  H   H1567     1.0  0.83604  0.25374  0.63001  1.0000
  H   H1568     1.0  0.79899  0.45923  0.52061  1.0000
  H   H1569     1.0  0.89402  0.32613  0.90646  1.0000
  C   C1961     1.0  0.79139  0.26765  0.88942  1.0000
  C   C1962     1.0  0.92204  0.28360  0.59366  1.0000
  H   H1570     1.0  0.79614  0.25459  0.90100  1.0000
  H   H1571     1.0  0.86960  0.33111  0.52906  1.0000
  C   C1963     1.0  0.90430  0.29296  0.55198  1.0000
  C   C1964     1.0  0.76006  0.42340  0.89404  1.0000
  C   C1965     1.0  0.71296  0.37309  0.50731  1.0000
  H   H1572     1.0  0.80020  0.44245  0.80211  1.0000
  H   H1573     1.0  0.80498  0.29466  0.51160  1.0000
  C   C1966     1.0  0.70689  0.44453  0.85981  1.0000
  C   C1967     1.0  0.82894  0.26784  0.51101  1.0000
  H   H1574     1.0  0.66008  0.41679  0.87581  1.0000
  H   H1575     1.0  0.71207  0.45931  0.82699  1.0000
  H   H1576     1.0  0.93303  0.42110  0.57774  1.0000
  C   C1968     1.0  0.75385  0.43222  0.83424  1.0000
  C   C1969     1.0  0.86470  0.37859  0.55809  1.0000
  C   C1970     1.0  0.97449  0.37306  0.97054  1.0000
  C   C1971     1.0  0.69207  0.43231  0.87336  1.0000
  H   H1577     1.0  0.77466  0.27878  0.59795  1.0000
  C   C1972     1.0  0.77031  0.42946  0.81752  1.0000
  H   H1578     1.0  0.93225  0.31997  0.92037  1.0000
  C   C1973     1.0  0.90832  0.39681  0.98425  1.0000
  H   H1579     1.0  0.76621  0.27867  0.74906  1.0000
  C   C1974     1.0  0.88845  0.35632  0.92433  1.0000
  C   C1975     1.0  0.68440  0.31180  0.52393  1.0000
  C   C1976     1.0  0.84734  0.27543  0.60341  1.0000
  H   H1580     1.0  0.87201  0.37131  0.52369  1.0000
  C   C1977     1.0  0.83478  0.43403  0.54094  1.0000
  C   C1978     1.0  0.93295  0.41648  0.92866  1.0000
  C   C1979     1.0  0.67450  0.30881  0.54509  1.0000
  C   C1980     1.0  0.89045  0.29442  0.57117  1.0000
  C   C1981     1.0  0.90177  0.45347  0.54299  1.0000
  P   P66       1.0  0.86167  0.30328  0.56859  1.0000
  C   C1982     1.0  0.84962  0.28993  0.54530  1.0000
  C   C1983     1.0  0.84368  0.29547  0.59193  1.0000
  H   H1581     1.0  0.88979  0.29281  0.60725  1.0000
  H   H1582     1.0  0.79741  0.32270  0.88077  1.0000
  C   C1984     1.0  0.82063  0.42822  0.57867  1.0000
  C   C1985     1.0  0.81039  0.30205  0.61513  1.0000
  C   C1986     1.0  0.82464  0.30839  0.59746  1.0000
  C   C1987     1.0  0.83036  0.29897  0.53570  1.0000
  H   H1583     1.0  0.54981  0.27254  0.70501  1.0000
  Fe  Fe137     1.0  0.85629  0.32857  0.98242  1.0000
  C   C1988     1.0  0.82080  0.25261  0.79971  1.0000
  H   H1584     1.0  0.80154  0.47419  0.82757  1.0000
  C   C1989     1.0  0.86231  0.33277  0.56451  1.0000
  C   C1990     1.0  0.86697  0.34171  0.54326  1.0000
  C   C1991     1.0  0.86840  0.36452  0.54015  1.0000
  H   H1585     1.0  0.53284  0.35528  0.72584  1.0000
  H   H1586     1.0  0.82322  0.31451  0.54146  1.0000
  C   C1992     1.0  0.85976  0.34697  0.58270  1.0000
  C   C1993     1.0  0.67163  0.42584  0.86516  1.0000
  H   H1587     1.0  0.92039  0.24174  0.53262  1.0000
  H   H1588     1.0  0.80347  0.27757  0.64063  1.0000
  H   H1589     1.0  0.83893  0.26692  0.77189  1.0000
  H   H1590     1.0  0.89788  0.29706  0.53573  1.0000
  H   H1591     1.0  0.94896  0.48340  0.54693  1.0000
  C   C1994     1.0  0.66111  0.32553  0.55446  1.0000
  C   C1995     1.0  0.95718  0.42432  0.95904  1.0000
  H   H1592     1.0  0.79585  0.31219  0.61946  1.0000
  H   H1593     1.0  0.82058  0.32325  0.58799  1.0000
  H   H1594     1.0  0.59945  0.34206  0.73711  1.0000
  C   C1996     1.0  0.73111  0.48251  0.87715  1.0000
  H   H1595     1.0  0.54781  0.35641  0.65510  1.0000
  H   H1596     1.0  0.74015  0.27801  0.78642  1.0000
  H   H1597     1.0  0.61988  0.28402  0.70810  1.0000
  C   C1997     1.0  0.89129  0.41828  0.50482  1.0000
  H   H1598     1.0  0.66434  0.36364  0.51247  1.0000
  C   C1998     1.0  0.78745  0.44461  0.81506  1.0000
  C   C1999     1.0  0.67050  0.24059  0.62454  1.0000
  C   C2000     1.0  0.80073  0.47261  0.50866  1.0000
  S   S274      1.0  0.80846  0.33881  0.49361  1.0000
  C   C2001     1.0  0.89738  0.37131  0.93890  1.0000
  C   C2002     1.0  0.51351  0.26532  0.55386  1.0000
  C   C2003     1.0  0.66302  0.48435  0.88766  1.0000
  C   C2004     1.0  0.94099  0.43489  0.91691  1.0000
  H   H1599     1.0  0.96343  0.42060  0.97546  1.0000
  C   C2005     1.0  0.81999  0.28781  0.51874  1.0000
  H   H1600     1.0  0.74077  0.42022  0.83606  1.0000
  C   C2006     1.0  0.81842  0.42594  0.55575  1.0000
  H   H1601     1.0  0.65400  0.32345  0.57114  1.0000
  C   C2007     1.0  0.70102  0.44986  0.83782  1.0000
  H   H1602     1.0  0.50793  0.36218  0.64788  1.0000
  C   C2008     1.0  0.85552  0.44693  0.57200  1.0000
  C   C2009     1.0  0.90118  0.33807  0.91724  1.0000
  H   H1603     1.0  0.87253  0.26174  0.54547  1.0000
  H   H1604     1.0  0.54230  0.31239  0.70089  1.0000
  C   C2010     1.0  0.75432  0.45030  0.84850  1.0000
  C   C2011     1.0  0.79744  0.28930  0.89333  1.0000
  C   C2012     1.0  0.58526  0.27586  0.70739  1.0000
  C   C2013     1.0  0.83297  0.26909  0.62101  1.0000
  C   C2014     1.0  0.85377  0.44404  0.54895  1.0000
  H   H1605     1.0  0.66200  0.28999  0.59840  1.0000
  C   C2015     1.0  0.68062  0.44332  0.82968  1.0000
  S   S275      1.0  0.93847  0.30311  0.97562  1.0000
  H   H1606     1.0  0.67602  0.44765  0.81278  1.0000
  H   H1607     1.0  0.78184  0.40206  0.91320  1.0000
  H   H1608     1.0  0.69503  0.29877  0.51728  1.0000
  C   C2016     1.0  0.75626  0.41718  0.93396  1.0000
  H   H1609     1.0  0.76219  0.40954  0.94922  1.0000
  H   H1610     1.0  0.82375  0.40201  0.94987  1.0000
  H   H1611     1.0  0.94819  0.34616  0.94581  1.0000
  C   C2017     1.0  0.92273  0.33464  0.92500  1.0000
  C   C2018     1.0  0.72097  0.39452  0.50825  1.0000
  H   H1612     1.0  0.97744  0.37885  0.95358  1.0000
  C   C2019     1.0  0.74673  0.24727  0.83202  1.0000
  C   C2020     1.0  0.91681  0.47068  0.53945  1.0000
  C   C2021     1.0  0.80398  0.41890  0.97525  1.0000
  H   H1613     1.0  0.98074  0.30333  0.95132  1.0000
  H   H1614     1.0  0.74390  0.33559  0.49494  1.0000
  H   H1615     1.0  0.80667  0.29295  0.90807  1.0000
  H   H1616     1.0  0.77655  0.24557  0.86701  1.0000
  C   C2022     1.0  0.96518  0.44270  0.94724  1.0000
  C   C2023     1.0  0.74560  0.26071  0.63044  1.0000
  H   H1617     1.0  0.71899  0.25972  0.55924  1.0000
  P   P67       1.0  0.73503  0.25156  0.60439  1.0000
  C   C2024     1.0  0.73101  0.24281  0.72644  1.0000
  H   H1618     1.0  0.93463  0.43906  0.90063  1.0000
  H   H1619     1.0  0.49323  0.24954  0.66284  1.0000
  C   C2025     1.0  0.84105  0.24207  0.92393  1.0000
  H   H1620     1.0  0.84052  0.44107  0.60455  1.0000
  H   H1621     1.0  0.85496  0.24315  0.51466  1.0000
  C   C2026     1.0  0.95313  0.37485  0.98062  1.0000
  C   C2027     1.0  0.73181  0.24446  0.85021  1.0000
  H   H1622     1.0  0.49894  0.29734  0.56039  1.0000
  C   C2028     1.0  0.51004  0.24440  0.54545  1.0000
  H   H1623     1.0  0.92905  0.28023  0.60983  1.0000
  H   H1624     1.0  0.79931  0.24159  0.82656  1.0000
  H   H1625     1.0  0.78057  0.24400  0.76679  1.0000
  H   H1626     1.0  0.90275  0.41477  0.51800  1.0000
  H   H1627     1.0  0.83350  0.24012  0.80302  1.0000
  H   H1628     1.0  0.86473  0.30328  0.49019  1.0000
  C   C2029     1.0  0.89704  0.28649  0.49056  1.0000
  C   C2030     1.0  0.87636  0.43642  0.50579  1.0000
  H   H1629     1.0  0.88590  0.48041  0.48951  1.0000
  H   H1630     1.0  0.56640  0.70178  0.31720  1.0000
  Fe  Fe138     1.0  0.85601  0.71595  0.01279  1.0000
  S   S276      1.0  0.87195  0.68526  0.02666  1.0000
  H   H1631     1.0  0.69696  0.52259  0.10403  1.0000
  C   C2031     1.0  0.66327  0.50158  0.00155  1.0000
  Fe  Fe139     1.0  0.61699  0.52686  0.20090  1.0000
  S   S277      1.0  0.63246  0.56039  0.20782  1.0000
  S   S278      1.0  0.59500  0.52558  0.17096  1.0000
  Fe  Fe140     1.0  0.65730  0.69789  0.31290  1.0000
  S   S279      1.0  0.66143  0.66621  0.33245  1.0000
  H   H1632     1.0  0.68745  0.55328  0.27544  1.0000
  Fe  Fe141     1.0  0.69877  0.68821  0.28288  1.0000
  S   S280      1.0  0.70581  0.65565  0.30041  1.0000
  S   S281      1.0  0.71982  0.69914  0.25219  1.0000
  Fe  Fe142     1.0  0.66878  0.65013  0.29910  1.0000
  S   S282      1.0  0.65429  0.61564  0.29466  1.0000
  Fe  Fe143     1.0  0.69813  0.67336  0.33255  1.0000
  S   S283      1.0  0.72171  0.67302  0.36229  1.0000
  S   S284      1.0  0.66209  0.68147  0.27954  1.0000
  S   S285      1.0  0.69366  0.70630  0.31488  1.0000
  P   P68       1.0  0.67749  0.50624  0.27885  1.0000
  C   C2032     1.0  0.71721  0.52635  0.33970  1.0000
  Fe  Fe144     1.0  0.85402  0.66647  0.00045  1.0000
  C   C2033     1.0  0.50746  0.50355  0.18913  1.0000
  C   C2034     1.0  0.85596  0.64178  0.06756  1.0000
  C   C2035     1.0  0.73687  0.57470  0.02529  1.0000
  Fe  Fe145     1.0  0.77587  0.61514  0.47475  1.0000
  S   S286      1.0  0.74627  0.61825  0.45102  1.0000
  S   S287      1.0  0.80781  0.59538  0.46848  1.0000
  H   H1633     1.0  0.60925  0.63804  0.99855  1.0000
  C   C2036     1.0  0.91408  0.67534  0.47725  1.0000
  C   C2037     1.0  0.49490  0.55901  0.23413  1.0000
  C   C2038     1.0  0.72806  0.65752  0.38694  1.0000
  C   C2039     1.0  0.71578  0.63930  0.39419  1.0000
  C   C2040     1.0  0.72148  0.62773  0.41390  1.0000
  C   C2041     1.0  0.73972  0.63395  0.42652  1.0000
  C   C2042     1.0  0.75195  0.65223  0.41932  1.0000
  C   C2043     1.0  0.74611  0.66392  0.39971  1.0000
  H   H1634     1.0  0.70196  0.63404  0.38458  1.0000
  H   H1635     1.0  0.71186  0.61365  0.41929  1.0000
  H   H1636     1.0  0.76598  0.65730  0.42878  1.0000
  H   H1637     1.0  0.75577  0.67797  0.39432  1.0000
  C   C2044     1.0  0.55748  0.71558  0.30967  1.0000
  C   C2045     1.0  0.73603  0.72319  0.24776  1.0000
  C   C2046     1.0  0.56572  0.72523  0.28995  1.0000
  C   C2047     1.0  0.81322  0.68626  0.05425  1.0000
  H   H1638     1.0  0.64798  0.64308  0.01069  1.0000
  C   C2048     1.0  0.98121  0.68795  0.02221  1.0000
  C   C2049     1.0  0.70094  0.57867  0.00810  1.0000
  C   C2050     1.0  0.64778  0.60092  0.27019  1.0000
  C   C2051     1.0  0.65235  0.60912  0.24868  1.0000
  C   C2052     1.0  0.64725  0.59660  0.22991  1.0000
  C   C2053     1.0  0.63758  0.57569  0.23228  1.0000
  C   C2054     1.0  0.63293  0.56752  0.25380  1.0000
  C   C2055     1.0  0.63799  0.58009  0.27258  1.0000
  H   H1639     1.0  0.65983  0.62510  0.24649  1.0000
  H   H1640     1.0  0.65093  0.60313  0.21338  1.0000
  H   H1641     1.0  0.62553  0.55151  0.25592  1.0000
  H   H1642     1.0  0.63419  0.57371  0.28910  1.0000
  H   H1643     1.0  0.59311  0.60070  0.99924  1.0000
  H   H1644     1.0  0.60908  0.54172  0.31050  1.0000
  C   C2056     1.0  0.60048  0.71420  0.35056  1.0000
  Fe  Fe146     1.0  0.57235  0.50348  0.19167  1.0000
  C   C2057     1.0  0.98201  0.65637  0.48489  1.0000
  S   S288      1.0  0.85763  0.63771  0.47578  1.0000
  H   H1645     1.0  0.60900  0.69831  0.35119  1.0000
  C   C2058     1.0  0.64583  0.67229  0.40652  1.0000
  H   H1646     1.0  0.74619  0.71403  0.21441  1.0000
  H   H1647     1.0  0.62846  0.61492  0.38568  1.0000
  C   C2059     1.0  0.69048  0.56943  0.02717  1.0000
  C   C2060     1.0  0.78421  0.71450  0.05146  1.0000
  H   H1648     1.0  0.63525  0.72987  0.38441  1.0000
  C   C2061     1.0  0.53824  0.72428  0.32011  1.0000
  H   H1649     1.0  0.51178  0.69962  0.39786  1.0000
  C   C2062     1.0  0.50456  0.56526  0.25388  1.0000
  C   C2063     1.0  0.87821  0.63996  0.06016  1.0000
  H   H1650     1.0  0.80559  0.52151  0.46620  1.0000
  C   C2064     1.0  0.68557  0.50235  0.07765  1.0000
  S   S289      1.0  0.70914  0.50846  0.05981  1.0000
  C   C2065     1.0  0.69306  0.51403  0.30267  1.0000
  H   H1651     1.0  0.69137  0.58309  0.99361  1.0000
  H   H1652     1.0  0.75879  0.70734  0.29319  1.0000
  H   H1653     1.0  0.74265  0.53628  0.31586  1.0000
  C   C2066     1.0  0.81971  0.61273  0.00351  1.0000
  H   H1654     1.0  0.95914  0.65042  0.45885  1.0000
  C   C2067     1.0  0.60829  0.73056  0.33579  1.0000
  H   H1655     1.0  0.72183  0.52487  0.28323  1.0000
  C   C2068     1.0  0.89396  0.65443  0.06784  1.0000
  C   C2069     1.0  0.63335  0.63081  0.39165  1.0000
  C   C2070     1.0  0.84984  0.73567  0.07734  1.0000
  C   C2071     1.0  0.72634  0.52917  0.31821  1.0000
  H   H1656     1.0  0.69619  0.55407  0.05940  1.0000
  C   C2072     1.0  0.70356  0.56244  0.04506  1.0000
  H   H1657     1.0  0.65065  0.57572  0.10789  1.0000
  C   C2073     1.0  0.68746  0.54671  0.25881  1.0000
  H   H1658     1.0  0.52711  0.70981  0.45924  1.0000
  S   S290      1.0  0.76143  0.50248  0.02183  1.0000
  H   H1659     1.0  0.66629  0.58410  0.07024  1.0000
  H   H1660     1.0  0.79694  0.56418  0.02284  1.0000
  H   H1661     1.0  0.73668  0.55894  0.05768  1.0000
  C   C2074     1.0  0.68168  0.67093  0.44390  1.0000
  C   C2075     1.0  0.77673  0.70940  0.07311  1.0000
  H   H1662     1.0  0.58110  0.71888  0.28233  1.0000
  S   S291      1.0  0.53451  0.50843  0.19992  1.0000
  H   H1663     1.0  0.81512  0.57918  0.09849  1.0000
  H   H1664     1.0  0.51158  0.50139  0.25726  1.0000
  H   H1665     1.0  0.67058  0.61114  0.02333  1.0000
  H   H1666     1.0  0.79454  0.61468  0.41998  1.0000
  C   C2076     1.0  0.64893  0.49336  0.10761  1.0000
  H   H1667     1.0  0.75481  0.57617  0.02424  1.0000
  C   C2077     1.0  0.59306  0.72716  0.42679  1.0000
  P   P69       1.0  0.65485  0.69821  0.41709  1.0000
  C   C2078     1.0  0.65855  0.66150  0.38990  1.0000
  S   S292      1.0  0.59339  0.50676  0.22207  1.0000
  H   H1668     1.0  0.57504  0.70534  0.37508  1.0000
  C   C2079     1.0  0.72665  0.56513  0.04414  1.0000
  C   C2080     1.0  0.65386  0.60855  0.01774  1.0000
  C   C2081     1.0  0.80222  0.70275  0.04199  1.0000
  H   H1669     1.0  0.78149  0.68905  0.10214  1.0000
  H   H1670     1.0  0.93199  0.73364  0.01100  1.0000
  H   H1671     1.0  0.62485  0.54461  0.11376  1.0000
  H   H1672     1.0  0.70027  0.70130  0.39775  1.0000
  H   H1673     1.0  0.86060  0.68561  0.10176  1.0000
  S   S293      1.0  0.83686  0.63441  0.01322  1.0000
  H   H1674     1.0  0.60620  0.63339  0.41568  1.0000
  C   C2082     1.0  0.63459  0.54021  0.05790  1.0000
  H   H1675     1.0  0.61438  0.52216  0.08192  1.0000
  C   C2083     1.0  0.93820  0.73779  0.19527  1.0000
  C   C2084     1.0  0.66461  0.51944  0.01580  1.0000
  C   C2085     1.0  0.64614  0.56589  0.09388  1.0000
  C   C2086     1.0  0.78762  0.69289  0.08544  1.0000
  H   H1676     1.0  0.69042  0.56481  0.20495  1.0000
  C   C2087     1.0  0.62560  0.53577  0.07920  1.0000
  C   C2088     1.0  0.64980  0.55732  0.05451  1.0000
  H   H1677     1.0  0.66217  0.63262  0.36962  1.0000
  C   C2089     1.0  0.65509  0.57046  0.07258  1.0000
  H   H1678     1.0  0.88299  0.62792  0.04767  1.0000
  C   C2090     1.0  0.64784  0.50871  0.28416  1.0000
  C   C2091     1.0  0.69086  0.56105  0.24065  1.0000
  C   C2092     1.0  0.61088  0.71426  0.41847  1.0000
  C   C2093     1.0  0.61011  0.60289  0.00429  1.0000
  C   C2094     1.0  0.81133  0.65386  0.13814  1.0000
  C   C2095     1.0  0.70819  0.70532  0.45746  1.0000
  C   C2096     1.0  0.88742  0.67075  0.08295  1.0000
  H   H1679     1.0  0.89251  0.66198  0.45272  1.0000
  C   C2097     1.0  0.82271  0.69041  0.12653  1.0000
  C   C2098     1.0  0.68375  0.53146  0.21546  1.0000
  Fe  Fe147     1.0  0.75730  0.52346  0.99084  1.0000
  C   C2099     1.0  0.68052  0.51703  0.23360  1.0000
  C   C2100     1.0  0.72404  0.58145  0.00728  1.0000
  C   C2101     1.0  0.59547  0.73929  0.44610  1.0000
  H   H1680     1.0  0.62962  0.53020  0.04424  1.0000
  C   C2102     1.0  0.65892  0.72939  0.14343  1.0000
  C   C2103     1.0  0.68431  0.51059  0.32434  1.0000
  C   C2104     1.0  0.65872  0.54077  0.00846  1.0000
  C   C2105     1.0  0.71316  0.68365  0.46417  1.0000
  C   C2106     1.0  0.96425  0.68825  0.00638  1.0000
  C   C2107     1.0  0.82099  0.69736  0.14858  1.0000
  H   H1681     1.0  0.85933  0.72146  0.07143  1.0000
  H   H1682     1.0  0.92116  0.73606  0.20143  1.0000
  H   H1683     1.0  0.61750  0.66940  0.42950  1.0000
  H   H1684     1.0  0.82724  0.70226  0.11360  1.0000
  H   H1685     1.0  0.80793  0.70678  0.02522  1.0000
  C   C2108     1.0  0.79030  0.59292  0.07680  1.0000
  C   C2109     1.0  0.67863  0.72588  0.13094  1.0000
  C   C2110     1.0  0.80422  0.50805  0.47815  1.0000
  C   C2111     1.0  0.68310  0.52439  0.25539  1.0000
  H   H1686     1.0  0.98235  0.70601  0.17740  1.0000
  H   H1687     1.0  0.82050  0.59493  0.03482  1.0000
  P   P70       1.0  0.66109  0.56366  0.02698  1.0000
  C   C2112     1.0  0.95081  0.71886  0.18999  1.0000
  C   C2113     1.0  0.66589  0.50735  0.11383  1.0000
  H   H1688     1.0  0.71628  0.72352  0.36705  1.0000
  H   H1689     1.0  0.50540  0.55305  0.22038  1.0000
  H   H1690     1.0  0.76255  0.71827  0.08033  1.0000
  C   C2114     1.0  0.63149  0.54848  0.09720  1.0000
  C   C2115     1.0  0.53892  0.72989  0.48560  1.0000
  H   H1691     1.0  0.72763  0.67999  0.47414  1.0000
  H   H1692     1.0  0.58365  0.51573  0.29300  1.0000
  C   C2116     1.0  0.89550  0.66332  0.47031  1.0000
  C   C2117     1.0  0.81416  0.59511  0.01814  1.0000
  H   H1693     1.0  0.83058  0.61530  0.10748  1.0000
  H   H1694     1.0  0.67342  0.66893  0.38270  1.0000
  C   C2118     1.0  0.62079  0.64128  0.40848  1.0000
  H   H1695     1.0  0.78299  0.64723  0.06428  1.0000
  H   H1696     1.0  0.84402  0.63086  0.06064  1.0000
  H   H1697     1.0  0.60885  0.70537  0.40317  1.0000
  C   C2119     1.0  0.80938  0.66092  0.16020  1.0000
  C   C2120     1.0  0.67660  0.69266  0.43691  1.0000
  H   H1698     1.0  0.53233  0.71729  0.33587  1.0000
  C   C2121     1.0  0.80073  0.57759  0.01138  1.0000
  H   H1699     1.0  0.64979  0.53766  0.30454  1.0000
  S   S294      1.0  0.93556  0.68645  0.01574  1.0000
  H   H1700     1.0  0.78391  0.73099  0.16073  1.0000
  C   C2122     1.0  0.62292  0.58466  0.01125  1.0000
  C   C2123     1.0  0.97266  0.72070  0.18163  1.0000
  H   H1701     1.0  0.80393  0.64958  0.17327  1.0000
  C   C2124     1.0  0.86518  0.67255  0.09047  1.0000
  C   C2125     1.0  0.68905  0.55342  0.21898  1.0000
  C   C2126     1.0  0.68402  0.51176  0.09896  1.0000
  Fe  Fe148     1.0  0.72376  0.50177  0.02436  1.0000
  C   C2127     1.0  0.64501  0.58731  0.01764  1.0000
  H   H1702     1.0  0.97666  0.68664  0.03971  1.0000
  H   H1703     1.0  0.61561  0.56847  0.01168  1.0000
  H   H1704     1.0  0.76823  0.61115  0.05526  1.0000
  S   S295      1.0  0.63824  0.49716  0.19083  1.0000
  H   H1705     1.0  0.66504  0.51475  0.13009  1.0000
  C   C2128     1.0  0.49105  0.57272  0.27166  1.0000
  C   C2129     1.0  0.77287  0.60335  0.39479  1.0000
  C   C2130     1.0  0.79033  0.61572  0.40254  1.0000
  C   C2131     1.0  0.80203  0.62970  0.38792  1.0000
  C   C2132     1.0  0.79619  0.63140  0.36556  1.0000
  C   C2133     1.0  0.77823  0.61951  0.35776  1.0000
  C   C2134     1.0  0.76687  0.60513  0.37249  1.0000
  P   P71       1.0  0.77218  0.62055  0.32845  1.0000
  C   C2135     1.0  0.76909  0.64829  0.31749  1.0000
  C   C2136     1.0  0.79516  0.60599  0.31493  1.0000
  C   C2137     1.0  0.81065  0.61713  0.30116  1.0000
  C   C2138     1.0  0.82860  0.60557  0.29119  1.0000
  C   C2139     1.0  0.83136  0.58292  0.29513  1.0000
  C   C2140     1.0  0.81624  0.57182  0.30916  1.0000
  C   C2141     1.0  0.79825  0.58332  0.31913  1.0000
  C   C2142     1.0  0.76599  0.65161  0.29458  1.0000
  C   C2143     1.0  0.76264  0.67288  0.28584  1.0000
  C   C2144     1.0  0.76199  0.69095  0.29994  1.0000
  C   C2145     1.0  0.76475  0.68777  0.32279  1.0000
  C   C2146     1.0  0.76827  0.66653  0.33157  1.0000
  C   C2147     1.0  0.74613  0.60771  0.32276  1.0000
  C   C2148     1.0  0.72677  0.61369  0.33505  1.0000
  C   C2149     1.0  0.70623  0.60483  0.32996  1.0000
  C   C2150     1.0  0.70481  0.59023  0.31234  1.0000
  C   C2151     1.0  0.72391  0.58457  0.29970  1.0000
  C   C2152     1.0  0.74450  0.59330  0.30482  1.0000
  H   H1706     1.0  0.76367  0.59277  0.40633  1.0000
  H   H1707     1.0  0.80564  0.64205  0.35436  1.0000
  H   H1708     1.0  0.75341  0.59522  0.36693  1.0000
  H   H1709     1.0  0.80912  0.63474  0.29826  1.0000
  H   H1710     1.0  0.84048  0.61424  0.28053  1.0000
  H   H1711     1.0  0.84534  0.57403  0.28748  1.0000
  H   H1712     1.0  0.81855  0.55433  0.31247  1.0000
  H   H1713     1.0  0.78679  0.57461  0.33022  1.0000
  H   H1714     1.0  0.76569  0.63773  0.28350  1.0000
  H   H1715     1.0  0.75980  0.67538  0.26822  1.0000
  C   C2153     1.0  0.80626  0.68151  0.07623  1.0000
  H   H1716     1.0  0.76338  0.70168  0.33385  1.0000
  H   H1717     1.0  0.76931  0.66446  0.34943  1.0000
  H   H1718     1.0  0.72748  0.62569  0.34816  1.0000
  H   H1719     1.0  0.69123  0.60996  0.33908  1.0000
  H   H1720     1.0  0.68874  0.58393  0.30803  1.0000
  H   H1721     1.0  0.72261  0.57390  0.28555  1.0000
  H   H1722     1.0  0.75890  0.58931  0.29432  1.0000
  H   H1723     1.0  0.81556  0.63927  0.39402  1.0000
  H   H1724     1.0  0.82704  0.67724  0.04648  1.0000
  H   H1725     1.0  0.78404  0.57702  0.07228  1.0000
  C   C2154     1.0  0.78131  0.61217  0.06728  1.0000
  H   H1726     1.0  0.80711  0.63711  0.13452  1.0000
  H   H1727     1.0  0.68040  0.71163  0.12034  1.0000
  C   C2155     1.0  0.81429  0.68263  0.16543  1.0000
  C   C2156     1.0  0.65232  0.64082  0.38255  1.0000
  C   C2157     1.0  0.58125  0.71826  0.36413  1.0000
  H   H1728     1.0  0.91100  0.65358  0.06134  1.0000
  C   C2158     1.0  0.69992  0.66650  0.45738  1.0000
  C   C2159     1.0  0.53126  0.72626  0.46418  1.0000
  C   C2160     1.0  0.80781  0.59416  0.09155  1.0000
  H   H1729     1.0  0.82471  0.71429  0.15251  1.0000
  H   H1730     1.0  0.94355  0.70274  0.19221  1.0000
  H   H1731     1.0  0.67219  0.65718  0.43839  1.0000
  H   H1732     1.0  0.81274  0.68810  0.18251  1.0000
  H   H1733     1.0  0.92506  0.68303  0.46500  1.0000
  C   C2161     1.0  0.62712  0.66183  0.41608  1.0000
  H   H1734     1.0  0.89952  0.68241  0.08830  1.0000
  H   H1735     1.0  0.52252  0.56428  0.25534  1.0000
  H   H1736     1.0  0.67054  0.51670  0.03247  1.0000
  H   H1737     1.0  0.69358  0.57839  0.24337  1.0000
  C   C2162     1.0  0.60154  0.51368  0.29072  1.0000
  Fe  Fe149     1.0  0.90009  0.69040  0.00137  1.0000
  H   H1738     1.0  0.68699  0.72656  0.43794  1.0000
  H   H1739     1.0  0.64546  0.71782  0.14258  1.0000
  S   S296      1.0  0.63166  0.72628  0.31732  1.0000
  C   C2163     1.0  0.63357  0.72555  0.44884  1.0000
  H   H1740     1.0  0.49857  0.57757  0.28697  1.0000
  C   C2164     1.0  0.69005  0.70982  0.44380  1.0000
  H   H1741     1.0  0.70435  0.64961  0.46188  1.0000
  C   C2165     1.0  0.78977  0.63269  0.07252  1.0000
  C   C2166     1.0  0.80734  0.63412  0.08741  1.0000
  C   C2167     1.0  0.81640  0.61465  0.09674  1.0000
  P   P72       1.0  0.82027  0.66025  0.09226  1.0000
  C   C2168     1.0  0.81826  0.66852  0.12111  1.0000
  C   C2169     1.0  0.84922  0.65799  0.08294  1.0000
  C   C2170     1.0  0.68950  0.71282  0.38894  1.0000
  H   H1742     1.0  0.77617  0.72757  0.04193  1.0000
  C   C2171     1.0  0.63139  0.71348  0.42929  1.0000
  C   C2172     1.0  0.63895  0.52583  0.29732  1.0000
  C   C2173     1.0  0.97619  0.65414  0.46270  1.0000
  C   C2174     1.0  0.61587  0.52824  0.30066  1.0000
  C   C2175     1.0  0.69629  0.51689  0.34276  1.0000
  H   H1743     1.0  0.68936  0.51441  0.35944  1.0000
  H   H1744     1.0  0.71887  0.71850  0.46225  1.0000
  C   C2176     1.0  0.61919  0.62392  0.00394  1.0000
  C   C2177     1.0  0.88067  0.65315  0.48581  1.0000
  C   C2178     1.0  0.71442  0.52283  0.29975  1.0000
  H   H1745     1.0  0.57752  0.72816  0.41793  1.0000
  H   H1746     1.0  0.72642  0.53131  0.35399  1.0000
  C   C2179     1.0  0.64102  0.62675  0.01075  1.0000
  H   H1747     1.0  0.87612  0.51864  0.47818  1.0000
  C   C2180     1.0  0.66663  0.71461  0.39441  1.0000
  C   C2181     1.0  0.74752  0.72624  0.22719  1.0000
  Fe  Fe150     1.0  0.61507  0.49492  0.16200  1.0000
  S   S297      1.0  0.71959  0.52429  0.99422  1.0000
  H   H1748     1.0  0.66825  0.50303  0.32702  1.0000
  H   H1749     1.0  0.85807  0.73026  0.11182  1.0000
  C   C2182     1.0  0.65305  0.72867  0.38148  1.0000
  C   C2183     1.0  0.69873  0.72547  0.37149  1.0000
  C   C2184     1.0  0.63333  0.49453  0.27380  1.0000
  H   H1750     1.0  0.68108  0.52596  0.19869  1.0000
  H   H1751     1.0  0.75155  0.50214  0.09418  1.0000
  H   H1752     1.0  0.64906  0.72532  0.45755  1.0000
  C   C2185     1.0  0.61029  0.49681  0.27734  1.0000
  C   C2186     1.0  0.73790  0.73915  0.26411  1.0000
  C   C2187     1.0  0.49538  0.70431  0.40445  1.0000
  H   H1753     1.0  0.72911  0.73715  0.27995  1.0000
  H   H1754     1.0  0.67539  0.50036  0.23060  1.0000
  H   H1755     1.0  0.71130  0.73749  0.12250  1.0000
  H   H1756     1.0  0.79826  0.73466  0.12173  1.0000
  C   C2188     1.0  0.56977  0.73874  0.36325  1.0000
  H   H1757     1.0  0.51869  0.49324  0.15660  1.0000
  C   C2189     1.0  0.50435  0.49601  0.16756  1.0000
  H   H1758     1.0  0.49818  0.68470  0.43446  1.0000
  H   H1759     1.0  0.73224  0.58797  0.99233  1.0000
  C   C2190     1.0  0.79242  0.57738  0.98978  1.0000
  H   H1760     1.0  0.55214  0.49556  0.26238  1.0000
  Fe  Fe151     1.0  0.82479  0.62142  0.48883  1.0000
  H   H1761     1.0  0.98710  0.65627  0.42847  1.0000
  C   C2191     1.0  0.61569  0.73847  0.45712  1.0000
  C   C2192     1.0  0.97386  0.68304  0.56265  1.0000
  H   H1762     1.0  0.85736  0.71493  0.88018  1.0000
  S   S298      1.0  0.94238  0.69132  0.50996  1.0000
  H   H1763     1.0  0.77226  0.71916  0.61210  1.0000
  C   C2193     1.0  0.68990  0.67808  0.75433  1.0000
  H   H1764     1.0  0.75454  0.66716  0.82399  1.0000
  Fe  Fe152     1.0  0.86638  0.70174  0.96476  1.0000
  S   S299      1.0  0.88324  0.66966  0.97609  1.0000
  S   S300      1.0  0.86430  0.70853  0.92700  1.0000
  H   H1765     1.0  0.81539  0.62581  0.97039  1.0000
  C   C2194     1.0  0.76073  0.71948  0.57842  1.0000
  H   H1766     1.0  0.75116  0.51921  0.91377  1.0000
  Fe  Fe153     1.0  0.72063  0.49352  0.97349  1.0000
  C   C2195     1.0  0.97062  0.68971  0.98382  1.0000
  Fe  Fe154     1.0  0.68402  0.66354  0.65246  1.0000
  S   S301      1.0  0.64754  0.66674  0.66268  1.0000
  S   S302      1.0  0.69083  0.64305  0.62118  1.0000
  Fe  Fe155     1.0  0.69856  0.69234  0.69131  1.0000
  S   S303      1.0  0.66317  0.69755  0.70374  1.0000
  S   S304      1.0  0.73086  0.70536  0.70586  1.0000
  Fe  Fe156     1.0  0.65907  0.66108  0.69778  1.0000
  S   S305      1.0  0.63938  0.64130  0.72433  1.0000
  Fe  Fe157     1.0  0.65428  0.70255  0.66772  1.0000
  C   C2196     1.0  0.56848  0.72103  0.64478  1.0000
  S   S306      1.0  0.69502  0.65544  0.68739  1.0000
  S   S307      1.0  0.69012  0.69972  0.65547  1.0000
  Fe  Fe158     1.0  0.78648  0.62171  0.52410  1.0000
  S   S308      1.0  0.77769  0.63922  0.55691  1.0000
  S   S309      1.0  0.81896  0.60229  0.52097  1.0000
  Fe  Fe159     1.0  0.62779  0.51633  0.77660  1.0000
  S   S310      1.0  0.64297  0.53792  0.74837  1.0000
  S   S311      1.0  0.60944  0.52768  0.80740  1.0000
  H   H1767     1.0  0.56293  0.73253  0.56271  1.0000
  H   H1768     1.0  0.93205  0.72165  0.97216  1.0000
  H   H1769     1.0  0.80387  0.52702  0.66831  1.0000
  H   H1770     1.0  0.81757  0.54026  0.70422  1.0000
  H   H1771     1.0  0.52375  0.52636  0.75547  1.0000
  C   C2197     1.0  0.64081  0.61255  0.73095  1.0000
  C   C2198     1.0  0.65311  0.59760  0.71778  1.0000
  C   C2199     1.0  0.65359  0.57494  0.72349  1.0000
  C   C2200     1.0  0.64165  0.56680  0.74228  1.0000
  C   C2201     1.0  0.62923  0.58174  0.75540  1.0000
  C   C2202     1.0  0.62888  0.60445  0.74977  1.0000
  H   H1772     1.0  0.66228  0.60355  0.70324  1.0000
  H   H1773     1.0  0.66332  0.56356  0.71330  1.0000
  H   H1774     1.0  0.61999  0.57583  0.76995  1.0000
  H   H1775     1.0  0.61934  0.61585  0.76008  1.0000
  C   C2203     1.0  0.71517  0.64198  0.60358  1.0000
  C   C2204     1.0  0.71498  0.62976  0.58387  1.0000
  C   C2205     1.0  0.73391  0.62860  0.56942  1.0000
  C   C2206     1.0  0.75327  0.63975  0.57447  1.0000
  C   C2207     1.0  0.75336  0.65201  0.59414  1.0000
  C   C2208     1.0  0.73455  0.65292  0.60873  1.0000
  H   H1776     1.0  0.70011  0.62111  0.57975  1.0000
  H   H1777     1.0  0.73356  0.61904  0.55441  1.0000
  H   H1778     1.0  0.76815  0.66085  0.59812  1.0000
  H   H1779     1.0  0.73497  0.66218  0.62392  1.0000
  H   H1780     1.0  0.72737  0.54478  0.89170  1.0000
  C   C2209     1.0  0.50257  0.52061  0.80444  1.0000
  C   C2210     1.0  0.59109  0.71786  0.65013  1.0000
  H   H1781     1.0  0.79815  0.49794  0.53362  1.0000
  H   H1782     1.0  0.59712  0.70189  0.65585  1.0000
  C   C2211     1.0  0.77611  0.58207  0.57817  1.0000
  C   C2212     1.0  0.59132  0.72688  0.50886  1.0000
  C   C2213     1.0  0.73720  0.72543  0.72621  1.0000
  Fe  Fe160     1.0  0.97059  0.71563  0.49950  1.0000
  C   C2214     1.0  0.91983  0.68172  0.92891  1.0000
  H   H1783     1.0  0.98112  0.70032  0.92345  1.0000
  H   H1784     1.0  0.58268  0.49610  0.70349  1.0000
  C   C2215     1.0  0.65058  0.67705  0.59678  1.0000
  H   H1785     1.0  0.51755  0.58733  0.70368  1.0000
  Fe  Fe161     1.0  0.58537  0.50014  0.80176  1.0000
  H   H1786     1.0  0.93333  0.64886  0.92490  1.0000
  C   C2216     1.0  0.93708  0.66621  0.92569  1.0000
  H   H1787     1.0  0.72489  0.59171  0.81915  1.0000
  H   H1788     1.0  0.60144  0.69095  0.71308  1.0000
  C   C2217     1.0  0.66289  0.71855  0.58050  1.0000
  C   C2218     1.0  0.50891  0.58349  0.71929  1.0000
  H   H1789     1.0  0.79170  0.59521  0.95847  1.0000
  C   C2219     1.0  0.68122  0.51493  0.91635  1.0000
  H   H1790     1.0  0.62559  0.69453  0.61650  1.0000
  C   C2220     1.0  0.73127  0.60824  0.81995  1.0000
  C   C2221     1.0  0.63891  0.69589  0.60401  1.0000
  H   H1791     1.0  0.75290  0.59981  0.84701  1.0000
  H   H1792     1.0  0.95795  0.68938  0.97145  1.0000
  S   S312      1.0  0.64760  0.51695  0.85763  1.0000
  C   C2222     1.0  0.88501  0.65517  0.50851  1.0000
  C   C2223     1.0  0.90379  0.66688  0.51543  1.0000
  H   H1793     1.0  0.87399  0.64751  0.52076  1.0000
  H   H1794     1.0  0.90687  0.66804  0.53302  1.0000
  H   H1795     1.0  0.49216  0.72501  0.66280  1.0000
  C   C2224     1.0  0.66849  0.67892  0.58152  1.0000
  C   C2225     1.0  0.81140  0.61251  0.98194  1.0000
  C   C2226     1.0  0.72068  0.70389  0.59689  1.0000
  S   S313      1.0  0.63439  0.73260  0.65488  1.0000
  S   S314      1.0  0.88482  0.72248  0.98875  1.0000
  H   H1796     1.0  0.53585  0.71952  0.72292  1.0000
  C   C2227     1.0  0.94079  0.73643  0.97608  1.0000
  C   C2228     1.0  0.71670  0.51959  0.86974  1.0000
  C   C2229     1.0  0.85303  0.73139  0.91158  1.0000
  H   H1797     1.0  0.64644  0.66103  0.60379  1.0000
  C   C2230     1.0  0.70512  0.60737  0.74068  1.0000
  C   C2231     1.0  0.91850  0.67718  0.49994  1.0000
  S   S315      1.0  0.65036  0.49325  0.79595  1.0000
  C   C2232     1.0  0.71771  0.49716  0.86475  1.0000
  C   C2233     1.0  0.66659  0.64863  0.78221  1.0000
  C   C2234     1.0  0.66089  0.50684  0.88235  1.0000
  C   C2235     1.0  0.59014  0.70515  0.71246  1.0000
  C   C2236     1.0  0.51924  0.50385  0.80408  1.0000
  H   H1798     1.0  0.70554  0.69744  0.60446  1.0000
  C   C2237     1.0  0.67563  0.60419  0.82080  1.0000
  C   C2238     1.0  0.61261  0.71769  0.51208  1.0000
  C   C2239     1.0  0.85537  0.49582  0.53563  1.0000
  H   H1799     1.0  0.64229  0.71829  0.53149  1.0000
  C   C2240     1.0  0.72281  0.70728  0.57374  1.0000
  H   H1800     1.0  0.74088  0.57529  0.70977  1.0000
  H   H1801     1.0  0.64671  0.52885  0.95478  1.0000
  C   C2241     1.0  0.73395  0.58394  0.72405  1.0000
  H   H1802     1.0  0.65974  0.69791  0.75507  1.0000
  H   H1803     1.0  0.56159  0.68720  0.72444  1.0000
  C   C2242     1.0  0.92460  0.70406  0.93061  1.0000
  H   H1804     1.0  0.98934  0.65499  0.54672  1.0000
  C   C2243     1.0  0.70030  0.65855  0.76160  1.0000
  C   C2244     1.0  0.95913  0.67309  0.92371  1.0000
  H   H1805     1.0  0.61539  0.72714  0.69995  1.0000
  H   H1806     1.0  0.96333  0.71326  0.57834  1.0000
  C   C2245     1.0  0.56770  0.70305  0.71879  1.0000
  C   C2246     1.0  0.79890  0.54324  0.67415  1.0000
  C   C2247     1.0  0.55548  0.51992  0.70438  1.0000
  C   C2248     1.0  0.71562  0.60589  0.76126  1.0000
  C   C2249     1.0  0.58997  0.52388  0.72360  1.0000
  C   C2250     1.0  0.58216  0.54394  0.73224  1.0000
  C   C2251     1.0  0.56090  0.55224  0.72693  1.0000
  C   C2252     1.0  0.54775  0.54018  0.71265  1.0000
  P   P73       1.0  0.55123  0.57867  0.73736  1.0000
  C   C2253     1.0  0.56198  0.58229  0.76486  1.0000
  C   C2254     1.0  0.56200  0.60036  0.71936  1.0000
  C   C2255     1.0  0.54959  0.62000  0.71604  1.0000
  C   C2256     1.0  0.55865  0.63735  0.70335  1.0000
  C   C2257     1.0  0.58031  0.63543  0.69434  1.0000
  C   C2258     1.0  0.59286  0.61611  0.69786  1.0000
  C   C2259     1.0  0.58381  0.59866  0.71035  1.0000
  C   C2260     1.0  0.57127  0.60235  0.77084  1.0000
  C   C2261     1.0  0.57951  0.60491  0.79220  1.0000
  C   C2262     1.0  0.57822  0.58763  0.80781  1.0000
  C   C2263     1.0  0.56883  0.56775  0.80202  1.0000
  C   C2264     1.0  0.56116  0.56493  0.78052  1.0000
  C   C2265     1.0  0.52097  0.57896  0.73863  1.0000
  C   C2266     1.0  0.65253  0.54417  0.98625  1.0000
  C   C2267     1.0  0.53079  0.72386  0.57570  1.0000
  H   H1807     1.0  0.53729  0.71702  0.59106  1.0000
  S   S316      1.0  0.75810  0.49350  0.96840  1.0000
  C   C2268     1.0  0.50781  0.72461  0.57259  1.0000
  C   C2269     1.0  0.71280  0.64206  0.51085  1.0000
  H   H1808     1.0  0.65770  0.55123  0.79145  1.0000
  H   H1809     1.0  0.60647  0.51768  0.72764  1.0000
  H   H1810     1.0  0.59282  0.55293  0.74300  1.0000
  H   H1811     1.0  0.53140  0.54609  0.70806  1.0000
  H   H1812     1.0  0.53314  0.62215  0.72362  1.0000
  H   H1813     1.0  0.54902  0.65243  0.70077  1.0000
  H   H1814     1.0  0.58758  0.64902  0.68494  1.0000
  H   H1815     1.0  0.60990  0.61490  0.69144  1.0000
  H   H1816     1.0  0.59419  0.58418  0.71345  1.0000
  H   H1817     1.0  0.57247  0.61599  0.75908  1.0000
  H   H1818     1.0  0.58698  0.62027  0.79661  1.0000
  H   H1819     1.0  0.58457  0.58955  0.82436  1.0000
  H   H1820     1.0  0.56765  0.55434  0.81414  1.0000
  H   H1821     1.0  0.55438  0.54923  0.77618  1.0000
  C   C2270     1.0  0.67465  0.69967  0.57301  1.0000
  H   H1822     1.0  0.55726  0.70734  0.64639  1.0000
  C   C2271     1.0  0.68699  0.66697  0.53008  1.0000
  H   H1823     1.0  0.97255  0.66103  0.92153  1.0000
  C   C2272     1.0  0.80019  0.57162  0.70189  1.0000
  H   H1824     1.0  0.76783  0.63747  0.84951  1.0000
  C   C2273     1.0  0.54531  0.73277  0.55950  1.0000
  C   C2274     1.0  0.74880  0.58599  0.60841  1.0000
  C   C2275     1.0  0.80659  0.55069  0.69439  1.0000
  H   H1825     1.0  0.66827  0.53948  0.89330  1.0000
  C   C2276     1.0  0.73065  0.65308  0.51961  1.0000
  C   C2277     1.0  0.55318  0.72140  0.71787  1.0000
  H   H1826     1.0  0.61864  0.70419  0.50180  1.0000
  H   H1827     1.0  0.70575  0.53060  0.86049  1.0000
  Fe  Fe162     1.0  0.79993  0.57764  0.50112  1.0000
  C   C2278     1.0  0.67645  0.58109  0.78824  1.0000
  H   H1828     1.0  0.74354  0.59138  0.77881  1.0000
  C   C2279     1.0  0.66268  0.56608  0.79959  1.0000
  H   H1829     1.0  0.68967  0.61676  0.73896  1.0000
  C   C2280     1.0  0.96392  0.69549  0.92494  1.0000
  C   C2281     1.0  0.94667  0.71116  0.92853  1.0000
  H   H1830     1.0  0.75960  0.57239  0.74601  1.0000
  C   C2282     1.0  0.74448  0.58230  0.74449  1.0000
  S   S317      1.0  0.77508  0.55581  0.98005  1.0000
  H   H1831     1.0  0.69891  0.68941  0.74338  1.0000
  C   C2283     1.0  0.80009  0.49472  0.51601  1.0000
  H   H1832     1.0  0.64490  0.55825  0.83024  1.0000
  C   C2284     1.0  0.79314  0.58624  0.59281  1.0000
  C   C2285     1.0  0.76586  0.58989  0.62332  1.0000
  C   C2286     1.0  0.78810  0.58997  0.61533  1.0000
  P   P74       1.0  0.75957  0.59477  0.65246  1.0000
  C   C2287     1.0  0.73119  0.58693  0.65893  1.0000
  C   C2288     1.0  0.77821  0.57775  0.66885  1.0000
  C   C2289     1.0  0.78478  0.55670  0.66141  1.0000
  C   C2290     1.0  0.68324  0.60017  0.79887  1.0000
  C   C2291     1.0  0.65125  0.52627  0.97199  1.0000
  C   C2292     1.0  0.75399  0.58177  0.58601  1.0000
  C   C2293     1.0  0.78606  0.58512  0.68919  1.0000
  C   C2294     1.0  0.72614  0.56536  0.66596  1.0000
  C   C2295     1.0  0.70399  0.55958  0.67052  1.0000
  C   C2296     1.0  0.68675  0.57514  0.66771  1.0000
  C   C2297     1.0  0.69164  0.59653  0.66049  1.0000
  C   C2298     1.0  0.71375  0.60239  0.65618  1.0000
  C   C2299     1.0  0.76258  0.62353  0.65910  1.0000
  C   C2300     1.0  0.77465  0.63780  0.64487  1.0000
  C   C2301     1.0  0.77652  0.66005  0.65015  1.0000
  C   C2302     1.0  0.76647  0.66819  0.66969  1.0000
  C   C2303     1.0  0.75465  0.65406  0.68402  1.0000
  C   C2304     1.0  0.75261  0.63188  0.67874  1.0000
  H   H1833     1.0  0.81021  0.58696  0.58651  1.0000
  H   H1834     1.0  0.80150  0.59325  0.62644  1.0000
  H   H1835     1.0  0.77889  0.55062  0.64581  1.0000
  C   C2305     1.0  0.66983  0.52204  0.89706  1.0000
  H   H1836     1.0  0.78141  0.60125  0.69536  1.0000
  H   H1837     1.0  0.73914  0.55295  0.66790  1.0000
  H   H1838     1.0  0.70013  0.54298  0.67609  1.0000
  H   H1839     1.0  0.66958  0.57063  0.67106  1.0000
  H   H1840     1.0  0.67832  0.60863  0.65805  1.0000
  H   H1841     1.0  0.71724  0.61899  0.65046  1.0000
  H   H1842     1.0  0.78221  0.63206  0.62943  1.0000
  H   H1843     1.0  0.78548  0.67106  0.63888  1.0000
  H   H1844     1.0  0.76759  0.68549  0.67372  1.0000
  H   H1845     1.0  0.74678  0.66046  0.69911  1.0000
  H   H1846     1.0  0.74308  0.62132  0.68993  1.0000
  C   C2306     1.0  0.64505  0.71662  0.59586  1.0000
  H   H1847     1.0  0.65707  0.63726  0.79251  1.0000
  H   H1848     1.0  0.93180  0.73319  0.88791  1.0000
  C   C2307     1.0  0.74716  0.61275  0.83576  1.0000
  C   C2308     1.0  0.50923  0.57359  0.75851  1.0000
  H   H1849     1.0  0.74078  0.57900  0.57451  1.0000
  H   H1850     1.0  0.54508  0.51049  0.69377  1.0000
  H   H1851     1.0  0.65615  0.59215  0.84902  1.0000
  H   H1852     1.0  0.71601  0.62806  0.50010  1.0000
  H   H1853     1.0  0.73146  0.58643  0.61384  1.0000
  S   S318      1.0  0.54807  0.51145  0.80339  1.0000
  C   C2309     1.0  0.71430  0.59649  0.72216  1.0000
  H   H1854     1.0  0.72656  0.65962  0.79631  1.0000
  H   H1855     1.0  0.80625  0.57745  0.71752  1.0000
  C   C2310     1.0  0.68351  0.49243  0.92154  1.0000
  H   H1856     1.0  0.68065  0.61881  0.82931  1.0000
  H   H1857     1.0  0.63887  0.67153  0.77921  1.0000
  C   C2311     1.0  0.74807  0.65067  0.82281  1.0000
  H   H1858     1.0  0.74104  0.67860  0.54066  1.0000
  H   H1859     1.0  0.91099  0.71577  0.93357  1.0000
  C   C2312     1.0  0.74214  0.51313  0.89980  1.0000
  C   C2313     1.0  0.79790  0.59504  0.97520  1.0000
  C   C2314     1.0  0.72069  0.73660  0.73882  1.0000
  C   C2315     1.0  0.49430  0.51324  0.74122  1.0000
  H   H1860     1.0  0.78000  0.57954  0.56063  1.0000
  S   S319      1.0  0.79304  0.64199  0.49283  1.0000
  C   C2316     1.0  0.59804  0.72558  0.70516  1.0000
  H   H1861     1.0  0.68177  0.57757  0.77128  1.0000
  H   H1862     1.0  0.90268  0.67647  0.93028  1.0000
  H   H1863     1.0  0.50746  0.53764  0.80480  1.0000
  C   C2317     1.0  0.57660  0.51177  0.70986  1.0000
  C   C2318     1.0  0.49307  0.73715  0.67576  1.0000
  S   S320      1.0  0.80104  0.54042  0.51147  1.0000
  H   H1864     1.0  0.95731  0.67942  0.55702  1.0000
  C   C2319     1.0  0.65617  0.66810  0.77471  1.0000
  C   C2320     1.0  0.74292  0.71534  0.56464  1.0000
  C   C2321     1.0  0.73531  0.59314  0.76309  1.0000
  H   H1865     1.0  0.67808  0.66422  0.57715  1.0000
  C   C2322     1.0  0.66787  0.68290  0.76095  1.0000
  C   C2323     1.0  0.70490  0.67812  0.53904  1.0000
  C   C2324     1.0  0.66177  0.58918  0.83202  1.0000
  H   H1866     1.0  0.70594  0.59766  0.70643  1.0000
  H   H1867     1.0  0.95550  0.73485  0.62198  1.0000
  C   C2325     1.0  0.68886  0.64386  0.77595  1.0000
  C   C2326     1.0  0.72678  0.67092  0.53372  1.0000
  C   C2327     1.0  0.73215  0.64625  0.80699  1.0000
  H   H1868     1.0  0.71731  0.65498  0.75606  1.0000
  S   S321      1.0  0.76725  0.59623  0.50654  1.0000
  H   H1869     1.0  0.58128  0.72028  0.49601  1.0000
  Fe  Fe163     1.0  0.63049  0.50303  0.82677  1.0000
  H   H1870     1.0  0.68823  0.52687  0.92719  1.0000
  P   P75       1.0  0.69973  0.70233  0.55585  1.0000
  H   H1871     1.0  0.51783  0.56975  0.77370  1.0000
  H   H1872     1.0  0.66997  0.67222  0.53380  1.0000
  P   P76       1.0  0.70267  0.61878  0.78536  1.0000
  C   C2328     1.0  0.75557  0.63395  0.83719  1.0000
  C   C2329     1.0  0.65539  0.57007  0.82145  1.0000
  C   C2330     1.0  0.69096  0.64898  0.51610  1.0000
  C   C2331     1.0  0.72362  0.62495  0.80537  1.0000
  C   C2332     1.0  0.62598  0.72567  0.52871  1.0000
  C   C2333     1.0  0.75971  0.73007  0.72997  1.0000
  C   C2334     1.0  0.72878  0.52755  0.88734  1.0000
  H   H1873     1.0  0.68589  0.70719  0.50904  1.0000
  H   H1874     1.0  0.73664  0.70558  0.62849  1.0000
  H   H1875     1.0  0.70332  0.73334  0.73621  1.0000
  C   C2335     1.0  0.75845  0.71604  0.60142  1.0000
  C   C2336     1.0  0.85174  0.72994  0.88825  1.0000
  C   C2337     1.0  0.73839  0.70841  0.61065  1.0000
  C   C2338     1.0  0.97723  0.70209  0.57475  1.0000
  C   C2339     1.0  0.65637  0.50497  0.97971  1.0000
  S   S322      1.0  0.83644  0.69726  0.98776  1.0000
  C   C2340     1.0  0.85037  0.51758  0.52925  1.0000
  H   H1876     1.0  0.83995  0.52797  0.53995  1.0000
  H   H1877     1.0  0.54045  0.71609  0.49717  1.0000
  C   C2341     1.0  0.51598  0.51189  0.74915  1.0000
  H   H1878     1.0  0.67713  0.64032  0.50937  1.0000
  H   H1879     1.0  0.77269  0.72157  0.72043  1.0000
  C   C2342     1.0  0.80175  0.51272  0.50088  1.0000
  H   H1880     1.0  0.74760  0.64743  0.51597  1.0000
  H   H1881     1.0  0.96953  0.65416  0.49809  1.0000
  C   C2343     1.0  0.85781  0.52576  0.50856  1.0000
  H   H1882     1.0  0.74495  0.71818  0.54686  1.0000
  C   C2344     1.0  0.68916  0.72332  0.51543  1.0000
  H   H1883     1.0  0.64906  0.56058  0.97978  1.0000
  H   H1884     1.0  0.49658  0.71844  0.58557  1.0000
  C   C2345     1.0  0.69633  0.72588  0.53731  1.0000
  H   H1885     1.0  0.52844  0.73314  0.67851  1.0000
  H   H1886     1.0  0.77637  0.72520  0.57124  1.0000
  C   C2346     1.0  0.60575  0.73544  0.64823  1.0000
  H   H1887     1.0  0.63648  0.73122  0.60224  1.0000
  H   H1888     1.0  0.66789  0.73484  0.57521  1.0000
  H   H1889     1.0  0.54411  0.49066  0.75642  1.0000
  H   H1890     1.0  0.65561  0.49117  0.96855  1.0000
  C   C2347     1.0  0.52750  0.49167  0.74970  1.0000
  C   C2348     1.0  0.49933  0.73406  0.55315  1.0000
  H   H1891     1.0  0.70762  0.49143  0.85150  1.0000
  H   H1892     1.0  0.85314  0.54241  0.50340  1.0000
  C   C2349     1.0  0.74349  0.49076  0.89463  1.0000
  S   S323      1.0  0.60301  0.48984  0.76968  1.0000
  H   H1893     1.0  0.84898  0.48976  0.55152  1.0000
  C   C2350     1.0  0.87589  0.49058  0.50073  1.0000
  C   C2351     1.0  0.87060  0.51229  0.49431  1.0000
  H   H1894     1.0  0.95977  0.88079  0.42628  1.0000
  C   C2352     1.0  0.90275  0.89208  0.42032  1.0000
  C   C2353     1.0  0.70466  0.84009  0.10474  1.0000
  H   H1895     1.0  0.70193  0.85484  0.09469  1.0000
  H   H1896     1.0  0.67211  0.77662  0.16919  1.0000
  C   C2354     1.0  0.90696  0.76041  0.25920  1.0000
  C   C2355     1.0  0.69032  0.80803  0.12451  1.0000
  H   H1897     1.0  0.87835  0.82765  0.34559  1.0000
  C   C2356     1.0  0.68672  0.82702  0.11144  1.0000
  H   H1898     1.0  0.88115  0.90873  0.44415  1.0000
  C   C2357     1.0  0.54173  0.88409  0.37948  1.0000
  S   S324      1.0  0.73854  0.95830  0.14180  1.0000
  S   S325      1.0  0.68129  0.96632  0.10578  1.0000
  Fe  Fe164     1.0  0.52163  0.77322  0.37872  1.0000
  H   H1899     1.0  0.57880  0.92409  0.25793  1.0000
  S   S326      1.0  0.53002  0.80770  0.38817  1.0000
  Fe  Fe165     1.0  0.96639  0.85283  0.28702  1.0000
  S   S327      1.0  0.93363  0.83578  0.27971  1.0000
  S   S328      1.0  0.96906  0.87314  0.31792  1.0000
  Fe  Fe166     1.0  0.79619  0.79891  0.20366  1.0000
  S   S329      1.0  0.78458  0.79716  0.16850  1.0000
  S   S330      1.0  0.77908  0.78478  0.23524  1.0000
  Fe  Fe167     1.0  0.83544  0.82872  0.19020  1.0000
  S   S331      1.0  0.82626  0.82899  0.15381  1.0000
  S   S332      1.0  0.86604  0.84859  0.19950  1.0000
  Fe  Fe168     1.0  0.79060  0.83394  0.16632  1.0000
  S   S333      1.0  0.76270  0.85479  0.14982  1.0000
  Fe  Fe169     1.0  0.82085  0.79251  0.15841  1.0000
  S   S334      1.0  0.83564  0.76395  0.13752  1.0000
  S   S335      1.0  0.80009  0.83594  0.20221  1.0000
  S   S336      1.0  0.83221  0.79203  0.19406  1.0000
  C   C2358     1.0  0.87470  0.91018  0.38806  1.0000
  H   H1900     1.0  0.67000  0.83162  0.10653  1.0000
  C   C2359     1.0  0.56475  0.94885  0.27971  1.0000
  C   C2360     1.0  0.89223  0.77935  0.14347  1.0000
  H   H1901     1.0  0.90951  0.82458  0.18402  1.0000
  C   C2361     1.0  0.88465  0.84450  0.22191  1.0000
  C   C2362     1.0  0.90522  0.85529  0.22114  1.0000
  C   C2363     1.0  0.92023  0.85302  0.23874  1.0000
  C   C2364     1.0  0.91504  0.83969  0.25728  1.0000
  C   C2365     1.0  0.89453  0.82885  0.25804  1.0000
  C   C2366     1.0  0.87934  0.83138  0.24058  1.0000
  H   H1902     1.0  0.90959  0.86545  0.20680  1.0000
  H   H1903     1.0  0.93597  0.86130  0.23789  1.0000
  H   H1904     1.0  0.89030  0.81844  0.27226  1.0000
  H   H1905     1.0  0.86349  0.82323  0.24158  1.0000
  P   P77       1.0  0.54633  0.94320  0.34578  1.0000
  C   C2367     1.0  0.52879  0.74390  0.44914  1.0000
  H   H1906     1.0  0.88219  0.78991  0.20744  1.0000
  C   C2368     1.0  0.90714  0.77405  0.16032  1.0000
  H   H1907     1.0  0.93854  0.80252  0.43549  1.0000
  H   H1908     1.0  0.56786  0.90512  0.36752  1.0000
  C   C2369     1.0  0.74472  0.92941  0.14397  1.0000
  C   C2370     1.0  0.73193  0.91360  0.13379  1.0000
  C   C2371     1.0  0.73781  0.89097  0.13570  1.0000
  C   C2372     1.0  0.75636  0.88370  0.14796  1.0000
  C   C2373     1.0  0.76901  0.89951  0.15830  1.0000
  C   C2374     1.0  0.76322  0.92216  0.15628  1.0000
  H   H1909     1.0  0.71759  0.91884  0.12438  1.0000
  H   H1910     1.0  0.72790  0.87901  0.12758  1.0000
  H   H1911     1.0  0.78331  0.89429  0.16778  1.0000
  H   H1912     1.0  0.77325  0.93418  0.16425  1.0000
  C   C2375     1.0  0.88445  0.90542  0.42668  1.0000
  C   C2376     1.0  0.90106  0.84601  0.36505  1.0000
  C   C2377     1.0  0.96314  0.85108  0.44589  1.0000
  C   C2378     1.0  0.83684  0.75915  0.10826  1.0000
  S   S337      1.0  0.50255  0.82053  0.44641  1.0000
  C   C2379     1.0  0.51099  0.90285  0.29836  1.0000
  C   C2380     1.0  0.51963  0.88377  0.30924  1.0000
  H   H1913     1.0  0.52183  0.91311  0.28817  1.0000
  H   H1914     1.0  0.53713  0.87958  0.30733  1.0000
  S   S338      1.0  0.49242  0.77145  0.40315  1.0000
  C   C2381     1.0  0.53518  0.75228  0.29084  1.0000
  H   H1915     1.0  0.87320  0.76114  0.27251  1.0000
  C   C2382     1.0  0.87044  0.91447  0.41057  1.0000
  S   S339      1.0  0.98161  0.93390  0.29137  1.0000
  H   H1916     1.0  0.91333  0.88526  0.43311  1.0000
  H   H1917     1.0  0.56605  0.90307  0.32550  1.0000
  C   C2383     1.0  0.72896  0.80604  0.18205  1.0000
  C   C2384     1.0  0.75047  0.76539  0.11756  1.0000
  C   C2385     1.0  0.89298  0.89684  0.38163  1.0000
  H   H1918     1.0  0.98233  0.84296  0.17780  1.0000
  C   C2386     1.0  0.54953  0.83848  0.28199  1.0000
  H   H1919     1.0  0.73949  0.82728  0.20797  1.0000
  H   H1920     1.0  0.95506  0.81436  0.16991  1.0000
  H   H1921     1.0  0.77715  0.75675  0.09425  1.0000
  C   C2387     1.0  0.53877  0.80036  0.28755  1.0000
  H   H1922     1.0  0.97962  0.86541  0.38781  1.0000
  H   H1923     1.0  0.54441  0.78570  0.48163  1.0000
  C   C2388     1.0  0.54202  0.78024  0.21404  1.0000
  C   C2389     1.0  0.56574  0.81642  0.31159  1.0000
  H   H1924     1.0  0.74545  0.93366  0.09111  1.0000
  C   C2390     1.0  0.94907  0.80539  0.20458  1.0000
  C   C2391     1.0  0.88942  0.78150  0.22162  1.0000
  H   H1925     1.0  0.60293  0.76394  0.32399  1.0000
  C   C2392     1.0  0.53697  0.82052  0.27585  1.0000
  C   C2393     1.0  0.57799  0.75525  0.34900  1.0000
  C   C2394     1.0  0.95486  0.86378  0.42818  1.0000
  H   H1926     1.0  0.57643  0.81496  0.32581  1.0000
  H   H1927     1.0  0.96316  0.78289  0.39478  1.0000
  C   C2395     1.0  0.60361  0.93184  0.20736  1.0000
  C   C2396     1.0  0.58400  0.92695  0.19665  1.0000
  C   C2397     1.0  0.58505  0.91528  0.17677  1.0000
  C   C2398     1.0  0.60574  0.90906  0.16724  1.0000
  C   C2399     1.0  0.62558  0.91480  0.17739  1.0000
  C   C2400     1.0  0.62432  0.92553  0.19798  1.0000
  P   P78       1.0  0.65230  0.90942  0.16347  1.0000
  C   C2401     1.0  0.66179  0.88122  0.16839  1.0000
  C   C2402     1.0  0.64899  0.91546  0.13403  1.0000
  C   C2403     1.0  0.66059  0.90335  0.11745  1.0000
  C   C2404     1.0  0.65813  0.90882  0.09490  1.0000
  C   C2405     1.0  0.69221  0.97236  0.99651  1.0000
  H   H1928     1.0  0.97408  0.88804  0.21728  1.0000
  C   C2406     1.0  0.63468  0.93286  0.12746  1.0000
  C   C2407     1.0  0.68301  0.87403  0.16072  1.0000
  C   C2408     1.0  0.69063  0.85252  0.16506  1.0000
  C   C2409     1.0  0.67703  0.83783  0.17695  1.0000
  C   C2410     1.0  0.65580  0.84469  0.18451  1.0000
  C   C2411     1.0  0.64819  0.86629  0.18028  1.0000
  C   C2412     1.0  0.67157  0.92936  0.17353  1.0000
  C   C2413     1.0  0.69212  0.92298  0.18266  1.0000
  C   C2414     1.0  0.70631  0.93882  0.19071  1.0000
  C   C2415     1.0  0.69973  0.96101  0.19069  1.0000
  H   H1929     1.0  0.65170  0.75172  0.35386  1.0000
  C   C2416     1.0  0.66525  0.95179  0.17346  1.0000
  H   H1930     1.0  0.60274  0.94118  0.22260  1.0000
  H   H1931     1.0  0.56802  0.93254  0.20360  1.0000
  H   H1932     1.0  0.56983  0.91160  0.16843  1.0000
  H   H1933     1.0  0.60628  0.90054  0.15153  1.0000
  H   H1934     1.0  0.63928  0.92975  0.20646  1.0000
  H   H1935     1.0  0.67168  0.88984  0.12160  1.0000
  H   H1936     1.0  0.66746  0.89977  0.08223  1.0000
  C   C2417     1.0  0.68797  0.98784  0.01347  1.0000
  C   C2418     1.0  0.59700  0.75113  0.33525  1.0000
  H   H1937     1.0  0.62552  0.94256  0.13972  1.0000
  H   H1938     1.0  0.69394  0.88525  0.15179  1.0000
  H   H1939     1.0  0.70726  0.84741  0.15940  1.0000
  H   H1940     1.0  0.68302  0.82122  0.18053  1.0000
  H   H1941     1.0  0.64534  0.83333  0.19390  1.0000
  H   H1942     1.0  0.63180  0.87128  0.18652  1.0000
  H   H1943     1.0  0.69752  0.90598  0.18378  1.0000
  H   H1944     1.0  0.72254  0.93388  0.19675  1.0000
  H   H1945     1.0  0.97253  0.78865  0.99205  1.0000
  C   C2419     1.0  0.72984  0.81533  0.12430  1.0000
  H   H1946     1.0  0.64945  0.95725  0.16680  1.0000
  H   H1947     1.0  0.74237  0.92265  0.00778  1.0000
  C   C2420     1.0  0.55698  0.93709  0.31803  1.0000
  C   C2421     1.0  0.55689  0.95355  0.30129  1.0000
  H   H1948     1.0  0.86385  0.91721  0.37555  1.0000
  C   C2422     1.0  0.56391  0.83643  0.29987  1.0000
  C   C2423     1.0  0.90718  0.88767  0.39772  1.0000
  C   C2424     1.0  0.64398  0.92629  0.08865  1.0000
  H   H1949     1.0  0.75265  0.76990  0.27283  1.0000
  H   H1950     1.0  0.93377  0.95805  0.21458  1.0000
  H   H1951     1.0  0.81590  0.78676  0.09889  1.0000
  H   H1952     1.0  0.52288  0.74114  0.43252  1.0000
  H   H1953     1.0  0.57992  0.89503  0.28751  1.0000
  C   C2425     1.0  0.93460  0.82779  0.33743  1.0000
  C   C2426     1.0  0.91233  0.82296  0.33399  1.0000
  C   C2427     1.0  0.92334  0.85188  0.36778  1.0000
  C   C2428     1.0  0.94010  0.84201  0.35439  1.0000
  P   P79       1.0  0.93087  0.87051  0.38935  1.0000
  H   H1954     1.0  0.55637  0.78697  0.24546  1.0000
  C   C2429     1.0  0.95284  0.88780  0.37806  1.0000
  C   C2430     1.0  0.52233  0.77611  0.24978  1.0000
  C   C2431     1.0  0.50593  0.87007  0.32264  1.0000
  C   C2432     1.0  0.73134  0.81207  0.20420  1.0000
  H   H1955     1.0  0.89635  0.96028  0.27698  1.0000
  Fe  Fe170     1.0  0.49968  0.80641  0.41124  1.0000
  H   H1956     1.0  0.94762  0.82074  0.32670  1.0000
  H   H1957     1.0  0.90816  0.81229  0.32048  1.0000
  H   H1958     1.0  0.95750  0.84533  0.35692  1.0000
  H   H1959     1.0  0.89604  0.89370  0.36410  1.0000
  C   C2433     1.0  0.57363  0.91142  0.29139  1.0000
  C   C2434     1.0  0.53367  0.76521  0.45563  1.0000
  H   H1960     1.0  0.55305  0.87171  0.38621  1.0000
  C   C2435     1.0  0.52494  0.96451  0.34368  1.0000
  H   H1961     1.0  0.55696  0.78452  0.20453  1.0000
  C   C2436     1.0  0.50408  0.76751  0.21541  1.0000
  C   C2437     1.0  0.56745  0.95177  0.38535  1.0000
  S   S340      1.0  0.83910  0.74396  0.03289  1.0000
  H   H1962     1.0  0.77923  0.90914  0.02063  1.0000
  C   C2438     1.0  0.95849  0.89555  0.21210  1.0000
  C   C2439     1.0  0.94430  0.90578  0.22783  1.0000
  C   C2440     1.0  0.92375  0.91497  0.22143  1.0000
  C   C2441     1.0  0.91821  0.91488  0.19886  1.0000
  P   P80       1.0  0.90550  0.92817  0.24181  1.0000
  C   C2442     1.0  0.87697  0.92733  0.23279  1.0000
  C   C2443     1.0  0.90797  0.91301  0.26787  1.0000
  C   C2444     1.0  0.89553  0.89398  0.27224  1.0000
  C   C2445     1.0  0.89826  0.88192  0.29205  1.0000
  C   C2446     1.0  0.91338  0.88870  0.30768  1.0000
  C   C2447     1.0  0.92582  0.90759  0.30348  1.0000
  C   C2448     1.0  0.92336  0.91952  0.28358  1.0000
  C   C2449     1.0  0.86255  0.94576  0.23499  1.0000
  C   C2450     1.0  0.84063  0.94497  0.22767  1.0000
  C   C2451     1.0  0.83293  0.92579  0.21813  1.0000
  C   C2452     1.0  0.84715  0.90741  0.21588  1.0000
  C   C2453     1.0  0.86904  0.90818  0.22312  1.0000
  C   C2454     1.0  0.91408  0.95628  0.24536  1.0000
  H   H1963     1.0  0.93089  0.91332  0.36459  1.0000
  H   H1964     1.0  0.70629  0.75550  0.19125  1.0000
  C   C2455     1.0  0.76031  0.98062  0.04872  1.0000
  H   H1965     1.0  0.97416  0.82956  0.24791  1.0000
  C   C2456     1.0  0.71474  0.77789  0.21664  1.0000
  H   H1966     1.0  0.94925  0.90621  0.24502  1.0000
  H   H1967     1.0  0.90281  0.92252  0.19333  1.0000
  H   H1968     1.0  0.88422  0.88789  0.26021  1.0000
  H   H1969     1.0  0.88929  0.86677  0.29488  1.0000
  H   H1970     1.0  0.91601  0.87886  0.32262  1.0000
  H   H1971     1.0  0.93804  0.91263  0.31521  1.0000
  H   H1972     1.0  0.93398  0.93348  0.28034  1.0000
  H   H1973     1.0  0.86813  0.96081  0.24221  1.0000
  H   H1974     1.0  0.82961  0.95925  0.22932  1.0000
  H   H1975     1.0  0.81598  0.92514  0.21241  1.0000
  H   H1976     1.0  0.84129  0.89246  0.20847  1.0000
  H   H1977     1.0  0.87977  0.89378  0.22102  1.0000
  C   C2457     1.0  0.96937  0.76048  0.18385  1.0000
  C   C2458     1.0  0.95250  0.89481  0.18983  1.0000
  C   C2459     1.0  0.94786  0.90760  0.36655  1.0000
  C   C2460     1.0  0.66235  0.74128  0.36405  1.0000
  H   H1978     1.0  0.51238  0.86600  0.38905  1.0000
  C   C2461     1.0  0.91390  0.79035  0.17490  1.0000
  H   H1979     1.0  0.73569  0.96604  0.02808  1.0000
  S   S341      1.0  0.98025  0.77314  0.43839  1.0000
  H   H1980     1.0  0.95227  0.76689  0.02123  1.0000
  C   C2462     1.0  0.77585  0.90973  0.00298  1.0000
  C   C2463     1.0  0.95461  0.80997  0.22657  1.0000
  C   C2464     1.0  0.94274  0.81976  0.43361  1.0000
  C   C2465     1.0  0.94737  0.75878  0.19226  1.0000
  C   C2466     1.0  0.98716  0.91318  0.35875  1.0000
  C   C2467     1.0  0.88375  0.80084  0.14118  1.0000
  C   C2468     1.0  0.73960  0.94771  0.05853  1.0000
  H   H1981     1.0  0.54757  0.85418  0.27336  1.0000
  H   H1982     1.0  0.62153  0.95210  0.10023  1.0000
  C   C2469     1.0  0.98605  0.96198  0.29904  1.0000
  C   C2470     1.0  0.97742  0.97931  0.28567  1.0000
  H   H1983     1.0  0.87157  0.80466  0.12859  1.0000
  C   C2471     1.0  0.63216  0.93820  0.10494  1.0000
  H   H1984     1.0  0.50045  0.92676  0.35382  1.0000
  C   C2472     1.0  0.56573  0.91607  0.31299  1.0000
  H   H1985     1.0  0.96828  0.97537  0.27106  1.0000
  S   S342      1.0  0.54506  0.74283  0.37992  1.0000
  C   C2473     1.0  0.76533  0.96224  0.08459  1.0000
  H   H1986     1.0  0.96342  0.88668  0.17772  1.0000
  C   C2474     1.0  0.57302  0.92776  0.27474  1.0000
  P   P81       1.0  0.93062  0.78313  0.19862  1.0000
  H   H1987     1.0  0.91377  0.75244  0.27386  1.0000
  H   H1988     1.0  0.73522  0.81697  0.16906  1.0000
  C   C2475     1.0  0.49140  0.97872  0.32626  1.0000
  C   C2476     1.0  0.74991  0.94644  0.07909  1.0000
  Fe  Fe171     1.0  0.50660  0.81936  0.36119  1.0000
  C   C2477     1.0  0.53535  0.91872  0.35939  1.0000
  S   S343      1.0  0.69034  0.97912  0.04219  1.0000
  C   C2478     1.0  0.77040  0.97938  0.06955  1.0000
  C   C2479     1.0  0.75508  0.91727  0.99576  1.0000
  C   C2480     1.0  0.72415  0.79805  0.22148  1.0000
  C   C2481     1.0  0.76276  0.76079  0.23946  1.0000
  H   H1989     1.0  0.85628  0.92482  0.41555  1.0000
  C   C2482     1.0  0.74476  0.96473  0.04338  1.0000
  C   C2483     1.0  0.90532  0.81193  0.17244  1.0000
  H   H1990     1.0  0.77263  0.96163  0.10092  1.0000
  H   H1991     1.0  0.88326  0.83367  0.15428  1.0000
  C   C2484     1.0  0.54139  0.76891  0.47699  1.0000
  H   H1992     1.0  0.71002  0.76664  0.23009  1.0000
  C   C2485     1.0  0.97451  0.83380  0.19141  1.0000
  C   C2486     1.0  0.89037  0.81714  0.15560  1.0000
  C   C2487     1.0  0.82544  0.77258  0.09303  1.0000
  C   C2488     1.0  0.67411  0.76251  0.15846  1.0000
  C   C2489     1.0  0.75128  0.75773  0.26001  1.0000
  H   H1993     1.0  0.88655  0.76665  0.13258  1.0000
  S   S344      1.0  0.51821  0.84634  0.33610  1.0000
  C   C2490     1.0  0.95716  0.82905  0.44852  1.0000
  C   C2491     1.0  0.89557  0.83183  0.34799  1.0000
  H   H1994     1.0  0.96111  0.93525  0.34769  1.0000
  C   C2492     1.0  0.74248  0.76385  0.13975  1.0000
  H   H1995     1.0  0.52548  0.82251  0.26234  1.0000
  H   H1996     1.0  0.88790  0.85226  0.37603  1.0000
  C   C2493     1.0  0.94076  0.85439  0.41280  1.0000
  C   C2494     1.0  0.72620  0.83418  0.11111  1.0000
  H   H1997     1.0  0.74019  0.84440  0.10623  1.0000
  C   C2495     1.0  0.87536  0.77570  0.23964  1.0000
  H   H1998     1.0  0.85766  0.77961  0.23908  1.0000
  C   C2496     1.0  0.96498  0.92020  0.35693  1.0000
  C   C2497     1.0  0.93460  0.83232  0.41576  1.0000
  C   C2498     1.0  0.92102  0.76588  0.24108  1.0000
  C   C2499     1.0  0.98387  0.80762  0.37880  1.0000
  C   C2500     1.0  0.58750  0.96282  0.35154  1.0000
  C   C2501     1.0  0.88413  0.76530  0.25847  1.0000
  C   C2502     1.0  0.93243  0.90461  0.18318  1.0000
  C   C2503     1.0  0.91240  0.77669  0.22222  1.0000
  Fe  Fe172     1.0  0.71120  0.97811  0.12353  1.0000
  C   C2504     1.0  0.67897  0.96739  0.18257  1.0000
  S   S345      1.0  0.62495  0.98911  0.13634  1.0000
  H   H1999     1.0  0.71083  0.97327  0.19674  1.0000
  H   H2000     1.0  0.64249  0.93091  0.07123  1.0000
  C   C2505     1.0  0.56884  0.95310  0.36198  1.0000
  C   C2506     1.0  0.90716  0.96790  0.26447  1.0000
  H   H2001     1.0  0.92388  0.82455  0.40417  1.0000
  H   H2002     1.0  0.80832  0.89694  0.99306  1.0000
  H   H2003     1.0  0.56960  0.77117  0.34855  1.0000
  C   C2507     1.0  0.82628  0.76759  0.07012  1.0000
  C   C2508     1.0  0.94074  0.74319  0.99823  1.0000
  C   C2509     1.0  0.78250  0.74240  0.12666  1.0000
  C   C2510     1.0  0.77056  0.75491  0.11115  1.0000
  C   C2511     1.0  0.51877  0.88088  0.38117  1.0000
  H   H2004     1.0  0.81746  0.77815  0.05849  1.0000
  H   H2005     1.0  0.72683  0.93612  0.05468  1.0000
  C   C2512     1.0  0.97523  0.88092  0.37970  1.0000
  H   H2006     1.0  0.69680  0.95560  0.00107  1.0000
  H   H2007     1.0  0.67617  0.79820  0.12948  1.0000
  H   H2008     1.0  0.52362  0.77203  0.18512  1.0000
  H   H2009     1.0  0.74139  0.77485  0.10522  1.0000
  H   H2010     1.0  0.76958  0.74699  0.20723  1.0000
  S   S346      1.0  0.50042  0.78458  0.35015  1.0000
  C   C2513     1.0  0.76078  0.74491  0.22303  1.0000
  C   C2514     1.0  0.95902  0.81761  0.18702  1.0000
  C   C2515     1.0  0.97010  0.82613  0.23087  1.0000
  H   H2011     1.0  0.94690  0.80142  0.24058  1.0000
  C   C2516     1.0  0.71195  0.80202  0.13105  1.0000
  H   H2012     1.0  0.74667  0.81138  0.12945  1.0000
  C   C2517     1.0  0.84908  0.74072  0.10024  1.0000
  C   C2518     1.0  0.98951  0.79169  0.41641  1.0000
  C   C2519     1.0  0.97751  0.79313  0.39653  1.0000
  S   S347      1.0  0.51611  0.98541  0.27102  1.0000
  H   H2013     1.0  0.57308  0.85051  0.30511  1.0000
  H   H2014     1.0  0.56418  0.96152  0.26674  1.0000
  C   C2520     1.0  0.55318  0.79847  0.30550  1.0000
  H   H2015     1.0  0.91283  0.75713  0.16215  1.0000
  H   H2016     1.0  0.96401  0.81894  0.46185  1.0000
  Fe  Fe173     1.0  0.98987  0.89668  0.29702  1.0000
  P   P82       1.0  0.52229  0.77727  0.27986  1.0000
  C   C2521     1.0  0.71941  0.78586  0.17699  1.0000
  H   H2017     1.0  0.51289  0.74949  0.31976  1.0000
  H   H2018     1.0  0.72682  0.80234  0.23864  1.0000
  H   H2019     1.0  0.97690  0.77636  0.18121  1.0000
  C   C2522     1.0  0.50361  0.76889  0.23864  1.0000
  C   C2523     1.0  0.75443  0.75093  0.15513  1.0000
  P   P83       1.0  0.71682  0.77779  0.14833  1.0000
  C   C2524     1.0  0.95218  0.76195  0.00399  1.0000
  C   C2525     1.0  0.55001  0.90296  0.36872  1.0000
  H   H2020     1.0  0.76963  0.96756  0.99943  1.0000
  C   C2526     1.0  0.98013  0.83798  0.21334  1.0000
  H   H2021     1.0  0.56166  0.75095  0.26556  1.0000
  H   H2022     1.0  0.53114  0.77901  0.44417  1.0000
  C   C2527     1.0  0.49566  0.81088  0.47404  1.0000
  C   C2528     1.0  0.69415  0.75885  0.14630  1.0000
  C   C2529     1.0  0.54160  0.78164  0.23727  1.0000
  H   H2023     1.0  0.80567  0.97663  0.03817  1.0000
  H   H2024     1.0  0.97458  0.80806  0.36365  1.0000
  C   C2530     1.0  0.83850  0.74915  0.06207  1.0000
  S   S348      1.0  0.98525  0.87714  0.26587  1.0000
  C   C2531     1.0  0.98192  0.74149  0.17857  1.0000
  H   H2025     1.0  0.99003  0.96378  0.23416  1.0000
  C   C2532     1.0  0.71265  0.77166  0.19452  1.0000
  H   H2026     1.0  0.92779  0.90413  0.16589  1.0000
  C   C2533     1.0  0.92818  0.96655  0.22947  1.0000
  H   H2027     1.0  0.55447  0.78328  0.31506  1.0000
  H   H2028     1.0  0.93864  0.76182  0.24183  1.0000
  C   C2534     1.0  0.50807  0.96245  0.32821  1.0000
  C   C2535     1.0  0.52327  0.77319  0.20311  1.0000
  H   H2029     1.0  0.97447  0.85816  0.45739  1.0000
  H   H2030     1.0  0.55059  0.97002  0.30481  1.0000
  C   C2536     1.0  0.58462  0.95976  0.39805  1.0000
  C   C2537     1.0  0.51227  0.91527  0.36109  1.0000
  H   H2031     1.0  0.58884  0.96438  0.33358  1.0000
  H   H2032     1.0  0.67361  0.98453  0.18293  1.0000
  C   C2538     1.0  0.77442  0.74035  0.14861  1.0000
  H   H2033     1.0  0.64139  0.75039  0.16689  1.0000
  H   H2034     1.0  0.58173  0.74956  0.45227  1.0000
  H   H2035     1.0  0.61760  0.74815  0.47191  1.0000
  H   H2036     1.0  0.55300  0.94470  0.39376  1.0000
  H   H2037     1.0  0.50785  0.94824  0.31758  1.0000
  H   H2038     1.0  0.69222  0.74913  0.34522  1.0000
  Fe  Fe174     1.0  0.98923  0.75518  0.47172  1.0000
  H   H2039     1.0  0.74858  0.74929  0.17227  1.0000
  H   H2040     1.0  0.58344  0.95867  0.41607  1.0000
  C   C2539     1.0  0.69616  0.74059  0.13227  1.0000
  C   C2540     1.0  0.65664  0.74774  0.15712  1.0000
  C   C2541     1.0  0.52495  0.98323  0.35716  1.0000
  C   C2542     1.0  0.76040  0.98082  0.99135  1.0000
  C   C2543     1.0  0.93544  0.98798  0.23281  1.0000
  C   C2544     1.0  0.60322  0.96925  0.38754  1.0000
  C   C2545     1.0  0.60463  0.97080  0.36430  1.0000
  H   H2041     1.0  0.55018  0.98073  0.17165  1.0000
  S   S349      1.0  0.55483  0.98730  0.22018  1.0000
  C   C2546     1.0  0.56750  0.98364  0.17477  1.0000
  C   C2547     1.0  0.50407  0.89648  0.37204  1.0000
  H   H2042     1.0  0.53776  0.98540  0.36918  1.0000
  H   H2043     1.0  0.61648  0.97550  0.39740  1.0000
  H   H2044     1.0  0.61898  0.97830  0.35615  1.0000
  C   C2548     1.0  0.58328  0.98406  0.15678  1.0000
  C   C2549     1.0  0.57414  0.98702  0.19662  1.0000
  C   C2550     1.0  0.55463  0.74347  0.28053  1.0000
  H   H2045     1.0  0.57773  0.98170  0.14003  1.0000
  H   H2046     1.0  0.84563  0.98386  0.03200  1.0000
  H   H2047     1.0  0.68071  0.73967  0.48459  1.0000
  C   C2551     1.0  0.68518  0.73980  0.35915  1.0000
  H   H2048     1.0  0.49729  0.81560  0.29905  1.0000
  H   H2049     1.0  0.50797  0.84001  0.48919  1.0000
  C   C2552     1.0  0.60606  0.98775  0.16015  1.0000
  C   C2553     1.0  0.52722  0.74262  0.31087  1.0000
  C   C2554     1.0  0.49405  0.78103  0.29083  1.0000
  Fe  Fe175     1.0  0.51786  0.98891  0.23335  1.0000
  C   C2555     1.0  0.91456  0.98927  0.26781  1.0000
  C   C2556     1.0  0.59689  0.75219  0.53887  1.0000
  C   C2557     1.0  0.76225  0.91262  0.77298  1.0000
  P   P84       1.0  0.92855  0.82686  0.82012  1.0000
  H   H2050     1.0  0.80164  0.83963  0.88223  1.0000
  H   H2051     1.0  0.97241  0.77719  0.95281  1.0000
  C   C2558     1.0  0.94897  0.83085  0.89345  1.0000
  Fe  Fe176     1.0  0.70184  0.96351  0.86698  1.0000
  S   S350      1.0  0.66953  0.96775  0.88675  1.0000
  S   S351      1.0  0.71420  0.92752  0.86549  1.0000
  Fe  Fe177     1.0  0.81709  0.79748  0.83332  1.0000
  S   S352      1.0  0.82023  0.77764  0.80183  1.0000
  S   S353      1.0  0.82542  0.79045  0.87001  1.0000
  Fe  Fe178     1.0  0.79992  0.83907  0.80823  1.0000
  S   S354      1.0  0.80211  0.82234  0.77482  1.0000
  S   S355      1.0  0.79213  0.87620  0.81127  1.0000
  Fe  Fe179     1.0  0.78695  0.79285  0.79244  1.0000
  S   S356      1.0  0.75551  0.77629  0.77952  1.0000
  Fe  Fe180     1.0  0.83522  0.80830  0.78581  1.0000
  S   S357      1.0  0.86639  0.80350  0.76304  1.0000
  S   S358      1.0  0.78270  0.81074  0.82527  1.0000
  S   S359      1.0  0.83414  0.82695  0.81784  1.0000
  Fe  Fe181     1.0  0.97120  0.86867  0.70507  1.0000
  S   S360      1.0  0.93692  0.87222  0.72274  1.0000
  S   S361      1.0  0.97916  0.88865  0.67382  1.0000
  C   C2559     1.0  0.98406  0.94282  0.74598  1.0000
  C   C2560     1.0  0.58357  0.74392  0.70406  1.0000
  C   C2561     1.0  0.79222  0.90286  0.98745  1.0000
  C   C2562     1.0  0.57251  0.79744  0.51433  1.0000
  H   H2052     1.0  0.79664  0.94307  0.94294  1.0000
  C   C2563     1.0  0.53292  0.79337  0.78134  1.0000
  Fe  Fe182     1.0  0.50908  0.77435  0.62232  1.0000
  C   C2564     1.0  0.78786  0.90359  0.96468  1.0000
  S   S362      1.0  0.51583  0.80345  0.59965  1.0000
  H   H2053     1.0  0.84661  0.75237  0.93962  1.0000
  H   H2054     1.0  0.69080  0.87951  0.90793  1.0000
  H   H2055     1.0  0.54447  0.81255  0.64209  1.0000
  H   H2056     1.0  0.56901  0.77512  0.62937  1.0000
  C   C2565     1.0  0.78906  0.97907  0.89985  1.0000
  C   C2566     1.0  0.57345  0.82002  0.51839  1.0000
  H   H2057     1.0  0.70106  0.78184  0.53670  1.0000
  H   H2058     1.0  0.92286  0.90384  0.79169  1.0000
  H   H2059     1.0  0.79941  0.87617  0.86330  1.0000
  H   H2060     1.0  0.92385  0.79348  0.78545  1.0000
  C   C2567     1.0  0.88614  0.82293  0.75270  1.0000
  C   C2568     1.0  0.88240  0.84569  0.75417  1.0000
  C   C2569     1.0  0.89812  0.86044  0.74488  1.0000
  C   C2570     1.0  0.91769  0.85270  0.73386  1.0000
  C   C2571     1.0  0.92144  0.82994  0.73236  1.0000
  C   C2572     1.0  0.90589  0.81519  0.74197  1.0000
  H   H2061     1.0  0.86727  0.85190  0.76225  1.0000
  H   H2062     1.0  0.89502  0.87800  0.74618  1.0000
  H   H2063     1.0  0.93640  0.82372  0.72399  1.0000
  H   H2064     1.0  0.90905  0.79764  0.74088  1.0000
  C   C2573     1.0  0.74917  0.75670  0.75868  1.0000
  H   H2065     1.0  0.78213  0.90799  0.88248  1.0000
  C   C2574     1.0  0.58175  0.97932  0.82466  1.0000
  C   C2575     1.0  0.57497  0.75923  0.63534  1.0000
  C   C2576     1.0  0.69631  0.93230  0.92465  1.0000
  C   C2577     1.0  0.76567  0.74561  0.74599  1.0000
  H   H2066     1.0  0.94338  0.87031  0.80395  1.0000
  C   C2578     1.0  0.73643  0.91380  0.85072  1.0000
  C   C2579     1.0  0.73811  0.89066  0.85216  1.0000
  C   C2580     1.0  0.75492  0.87887  0.84018  1.0000
  C   C2581     1.0  0.77069  0.89015  0.82705  1.0000
  C   C2582     1.0  0.76950  0.91337  0.82633  1.0000
  C   C2583     1.0  0.75231  0.92513  0.83779  1.0000
  H   H2067     1.0  0.72617  0.88176  0.86245  1.0000
  H   H2068     1.0  0.75575  0.86106  0.84118  1.0000
  H   H2069     1.0  0.78177  0.92232  0.81649  1.0000
  H   H2070     1.0  0.75138  0.94293  0.83663  1.0000
  H   H2071     1.0  0.58584  0.82996  0.50977  1.0000
  C   C2584     1.0  0.83567  0.76711  0.88546  1.0000
  C   C2585     1.0  0.54450  0.75118  0.49205  1.0000
  H   H2072     1.0  0.89829  0.76260  0.78218  1.0000
  C   C2586     1.0  0.75061  0.91787  0.97303  1.0000
  C   C2587     1.0  0.93893  0.84908  0.85883  1.0000
  C   C2588     1.0  0.84302  0.74759  0.87527  1.0000
  C   C2589     1.0  0.53948  0.77135  0.77847  1.0000
  H   H2073     1.0  0.53007  0.82477  0.55576  1.0000
  P   P85       1.0  0.95242  0.74014  0.93074  1.0000
  C   C2590     1.0  0.75869  0.93543  0.77235  1.0000
  C   C2591     1.0  0.55854  0.94650  0.74048  1.0000
  C   C2592     1.0  0.91217  0.79000  0.79902  1.0000
  H   H2074     1.0  0.68643  0.94717  0.92759  1.0000
  C   C2593     1.0  0.90621  0.75817  0.88453  1.0000
  C   C2594     1.0  0.53690  0.74235  0.53991  1.0000
  C   C2595     1.0  0.58323  0.74418  0.52229  1.0000
  H   H2075     1.0  0.76928  0.86673  0.94055  1.0000
  H   H2076     1.0  0.72706  0.94744  0.93215  1.0000
  C   C2596     1.0  0.89451  0.79905  0.83457  1.0000
  H   H2077     1.0  0.50060  0.91174  0.79759  1.0000
  C   C2597     1.0  0.97269  0.81320  0.81053  1.0000
  H   H2078     1.0  0.52427  0.82408  0.76494  1.0000
  H   H2079     1.0  0.88073  0.83838  0.81739  1.0000
  C   C2598     1.0  0.84218  0.78049  0.68045  1.0000
  H   H2080     1.0  0.98015  0.92319  0.80767  1.0000
  H   H2081     1.0  0.98590  0.98759  0.74114  1.0000
  Fe  Fe183     1.0  0.49466  0.82344  0.62457  1.0000
  C   C2599     1.0  0.95318  0.82325  0.80238  1.0000
  C   C2600     1.0  0.55326  0.78751  0.69242  1.0000
  H   H2082     1.0  0.54747  0.74580  0.75527  1.0000
  H   H2083     1.0  0.89258  0.80955  0.84893  1.0000
  H   H2084     1.0  0.78304  0.74890  0.74862  1.0000
  H   H2085     1.0  0.95355  0.83173  0.91074  1.0000
  C   C2601     1.0  0.72181  0.89401  0.91654  1.0000
  C   C2602     1.0  0.94078  0.80917  0.86131  1.0000
  H   H2086     1.0  0.92396  0.77901  0.94195  1.0000
  H   H2087     1.0  0.78658  0.83502  0.92078  1.0000
  C   C2603     1.0  0.92986  0.78016  0.59963  1.0000
  C   C2604     1.0  0.89047  0.89026  0.79846  1.0000
  C   C2605     1.0  0.91361  0.85176  0.81178  1.0000
  C   C2606     1.0  0.98269  0.75355  0.89699  1.0000
  H   H2088     1.0  0.93794  0.83797  0.77337  1.0000
  H   H2089     1.0  0.53068  0.89517  0.65121  1.0000
  H   H2090     1.0  0.93344  0.98856  0.70470  1.0000
  C   C2607     1.0  0.79432  0.85369  0.89095  1.0000
  C   C2608     1.0  0.95228  0.74848  0.95948  1.0000
  C   C2609     1.0  0.93787  0.76023  0.72110  1.0000
  C   C2610     1.0  0.77271  0.96804  0.88858  1.0000
  C   C2611     1.0  0.49998  0.87768  0.65588  1.0000
  C   C2612     1.0  0.69767  0.76550  0.53077  1.0000
  C   C2613     1.0  0.73231  0.91315  0.92336  1.0000
  H   H2091     1.0  0.50688  0.75077  0.52223  1.0000
  C   C2614     1.0  0.77501  0.89002  0.91334  1.0000
  H   H2092     1.0  0.80084  0.89847  0.95284  1.0000
  C   C2615     1.0  0.57008  0.80113  0.69985  1.0000
  C   C2616     1.0  0.54444  0.79152  0.67133  1.0000
  H   H2093     1.0  0.86794  0.93529  0.76397  1.0000
  C   C2617     1.0  0.53258  0.79870  0.74133  1.0000
  C   C2618     1.0  0.71925  0.93023  0.77970  1.0000
  C   C2619     1.0  0.72278  0.90725  0.78097  1.0000
  C   C2620     1.0  0.74443  0.89859  0.77736  1.0000
  P   P86       1.0  0.69941  0.88907  0.78482  1.0000
  C   C2621     1.0  0.70759  0.86523  0.80146  1.0000
  C   C2622     1.0  0.67646  0.90402  0.79823  1.0000
  C   C2623     1.0  0.68028  0.91644  0.81719  1.0000
  C   C2624     1.0  0.66293  0.92862  0.82739  1.0000
  C   C2625     1.0  0.64166  0.92880  0.81855  1.0000
  C   C2626     1.0  0.63767  0.91655  0.79961  1.0000
  C   C2627     1.0  0.65497  0.90412  0.78949  1.0000
  C   C2628     1.0  0.70098  0.86315  0.82401  1.0000
  C   C2629     1.0  0.70738  0.84450  0.83649  1.0000
  C   C2630     1.0  0.72039  0.82779  0.82659  1.0000
  C   C2631     1.0  0.72684  0.82962  0.80415  1.0000
  C   C2632     1.0  0.72043  0.84816  0.79161  1.0000
  C   C2633     1.0  0.69135  0.87966  0.75790  1.0000
  C   C2634     1.0  0.68010  0.85972  0.75620  1.0000
  C   C2635     1.0  0.67432  0.85206  0.73534  1.0000
  C   C2636     1.0  0.67952  0.86434  0.71609  1.0000
  C   C2637     1.0  0.69042  0.88436  0.71768  1.0000
  C   C2638     1.0  0.69631  0.89204  0.73851  1.0000
  H   H2094     1.0  0.58559  0.98396  0.69254  1.0000
  C   C2639     1.0  0.94689  0.81037  0.88354  1.0000
  C   C2640     1.0  0.95873  0.76924  0.72443  1.0000
  H   H2095     1.0  0.70271  0.93744  0.78188  1.0000
  H   H2096     1.0  0.74789  0.88106  0.77828  1.0000
  H   H2097     1.0  0.69677  0.91677  0.82400  1.0000
  H   H2098     1.0  0.66604  0.93804  0.84214  1.0000
  H   H2099     1.0  0.62832  0.93853  0.82636  1.0000
  H   H2100     1.0  0.62116  0.91685  0.79275  1.0000
  H   H2101     1.0  0.65152  0.89485  0.77481  1.0000
  H   H2102     1.0  0.69122  0.87594  0.83223  1.0000
  H   H2103     1.0  0.70259  0.84319  0.85396  1.0000
  H   H2104     1.0  0.72567  0.81347  0.83627  1.0000
  H   H2105     1.0  0.73698  0.81667  0.79649  1.0000
  H   H2106     1.0  0.72565  0.84914  0.77423  1.0000
  H   H2107     1.0  0.67605  0.84995  0.77096  1.0000
  H   H2108     1.0  0.66607  0.83643  0.73410  1.0000
  H   H2109     1.0  0.67525  0.85826  0.69992  1.0000
  H   H2110     1.0  0.69454  0.89384  0.70274  1.0000
  H   H2111     1.0  0.70488  0.90750  0.73939  1.0000
  C   C2641     1.0  0.94201  0.76031  0.60065  1.0000
  H   H2112     1.0  0.54978  0.97747  0.80874  1.0000
  H   H2113     1.0  0.53041  0.79980  0.79796  1.0000
  C   C2642     1.0  0.52750  0.86736  0.71768  1.0000
  C   C2643     1.0  0.97984  0.74530  0.91883  1.0000
  H   H2114     1.0  0.53806  0.97540  0.56980  1.0000
  P   P87       1.0  0.51467  0.88694  0.75815  1.0000
  C   C2644     1.0  0.52580  0.87039  0.78057  1.0000
  C   C2645     1.0  0.53276  0.90954  0.75108  1.0000
  C   C2646     1.0  0.54672  0.91827  0.76699  1.0000
  C   C2647     1.0  0.55965  0.93663  0.76162  1.0000
  S   S363      1.0  0.50903  0.85595  0.63747  1.0000
  C   C2648     1.0  0.54422  0.93830  0.72483  1.0000
  C   C2649     1.0  0.93086  0.75516  0.91599  1.0000
  C   C2650     1.0  0.55731  0.85139  0.79745  1.0000
  C   C2651     1.0  0.54853  0.86437  0.78021  1.0000
  H   H2115     1.0  0.49661  0.78327  0.71927  1.0000
  C   C2652     1.0  0.70061  0.74714  0.54483  1.0000
  H   H2116     1.0  0.53634  0.85325  0.68581  1.0000
  H   H2117     1.0  0.54199  0.87766  0.71747  1.0000
  H   H2118     1.0  0.49819  0.82829  0.52803  1.0000
  H   H2119     1.0  0.54718  0.91140  0.78371  1.0000
  H   H2120     1.0  0.57000  0.94374  0.77404  1.0000
  H   H2121     1.0  0.93583  0.86424  0.84962  1.0000
  C   C2653     1.0  0.95285  0.83037  0.78004  1.0000
  C   C2654     1.0  0.53906  0.77654  0.73825  1.0000
  H   H2122     1.0  0.57492  0.84704  0.79726  1.0000
  H   H2123     1.0  0.55945  0.86983  0.76665  1.0000
  H   H2124     1.0  0.86061  0.87213  0.80600  1.0000
  H   H2125     1.0  0.56818  0.96101  0.73653  1.0000
  P   P88       1.0  0.76200  0.91318  0.92768  1.0000
  H   H2126     1.0  0.59089  0.76523  0.54976  1.0000
  H   H2127     1.0  0.91247  0.80546  0.61810  1.0000
  H   H2128     1.0  0.92706  0.78806  0.58360  1.0000
  C   C2655     1.0  0.55172  0.80932  0.65819  1.0000
  P   P89       1.0  0.94292  0.96499  0.74692  1.0000
  C   C2656     1.0  0.93868  0.95582  0.71895  1.0000
  H   H2129     1.0  0.88061  0.77708  0.63800  1.0000
  C   C2657     1.0  0.52948  0.80704  0.76277  1.0000
  H   H2130     1.0  0.90039  0.75181  0.86902  1.0000
  C   C2658     1.0  0.51147  0.86849  0.73513  1.0000
  H   H2131     1.0  0.56560  0.98574  0.65711  1.0000
  H   H2132     1.0  0.60875  0.76981  0.63925  1.0000
  C   C2659     1.0  0.93950  0.93321  0.71436  1.0000
  C   C2660     1.0  0.93547  0.92592  0.69293  1.0000
  C   C2661     1.0  0.93101  0.94111  0.67582  1.0000
  H   H2133     1.0  0.98534  0.94793  0.72864  1.0000
  H   H2134     1.0  0.77265  0.94625  0.76956  1.0000
  C   C2662     1.0  0.91754  0.96180  0.76353  1.0000
  C   C2663     1.0  0.90075  0.94775  0.75680  1.0000
  C   C2664     1.0  0.88093  0.94594  0.76943  1.0000
  H   H2135     1.0  0.94955  0.94556  0.79192  1.0000
  C   C2665     1.0  0.94502  0.85019  0.88110  1.0000
  H   H2136     1.0  0.58431  0.79005  0.50256  1.0000
  C   C2666     1.0  0.96357  0.77416  0.98755  1.0000
  C   C2667     1.0  0.97175  0.82783  0.76614  1.0000
  H   H2137     1.0  0.55874  0.84739  0.53641  1.0000
  H   H2138     1.0  0.76611  0.97501  0.87332  1.0000
  C   C2668     1.0  0.59755  0.75611  0.64081  1.0000
  C   C2669     1.0  0.61814  0.74296  0.54205  1.0000
  H   H2139     1.0  0.99014  0.76945  0.60836  1.0000
  C   C2670     1.0  0.98126  0.92876  0.79046  1.0000
  C   C2671     1.0  0.57765  0.81869  0.68649  1.0000
  H   H2140     1.0  0.52136  0.96936  0.64071  1.0000
  H   H2141     1.0  0.94306  0.92113  0.72735  1.0000
  H   H2142     1.0  0.93592  0.90843  0.68967  1.0000
  H   H2143     1.0  0.92833  0.93542  0.65913  1.0000
  H   H2144     1.0  0.70614  0.74956  0.56163  1.0000
  H   H2145     1.0  0.97137  0.83362  0.74895  1.0000
  H   H2146     1.0  0.98023  0.95727  0.67930  1.0000
  H   H2147     1.0  0.54258  0.94652  0.70879  1.0000
  C   C2672     1.0  0.54251  0.76292  0.75703  1.0000
  H   H2148     1.0  0.88093  0.78388  0.88631  1.0000
  H   H2149     1.0  0.97342  0.80735  0.82759  1.0000
  C   C2673     1.0  0.94599  0.75020  0.62128  1.0000
  C   C2674     1.0  0.92180  0.79002  0.61921  1.0000
  C   C2675     1.0  0.89775  0.77235  0.79713  1.0000
  H   H2150     1.0  0.94654  0.86607  0.88883  1.0000
  C   C2676     1.0  0.96389  0.94146  0.78142  1.0000
  C   C2677     1.0  0.91080  0.80336  0.81788  1.0000
  H   H2151     1.0  0.89277  0.79729  0.92270  1.0000
  H   H2152     1.0  0.90272  0.93830  0.74174  1.0000
  C   C2678     1.0  0.92629  0.78031  0.64006  1.0000
  H   H2153     1.0  0.94864  0.75302  0.58541  1.0000
  C   C2679     1.0  0.51381  0.74282  0.53682  1.0000
  C   C2680     1.0  0.68600  0.91325  0.91778  1.0000
  C   C2681     1.0  0.55821  0.82986  0.53338  1.0000
  H   H2154     1.0  0.96842  0.76396  0.73859  1.0000
  H   H2155     1.0  0.66820  0.91347  0.91521  1.0000
  C   C2682     1.0  0.50847  0.91250  0.67423  1.0000
  C   C2683     1.0  0.77613  0.86916  0.92385  1.0000
  C   C2684     1.0  0.76466  0.94806  0.89703  1.0000
  C   C2685     1.0  0.89449  0.97174  0.79592  1.0000
  H   H2156     1.0  0.81032  0.97851  0.92813  1.0000
  C   C2686     1.0  0.91962  0.77330  0.92571  1.0000
  C   C2687     1.0  0.50610  0.83973  0.69957  1.0000
  H   H2157     1.0  0.50985  0.84390  0.82875  1.0000
  P   P90       1.0  0.55522  0.75542  0.51955  1.0000
  C   C2688     1.0  0.93672  0.82854  0.84877  1.0000
  H   H2158     1.0  0.75190  0.93983  0.88816  1.0000
  C   C2689     1.0  0.56687  0.98266  0.80690  1.0000
  H   H2159     1.0  0.94158  0.75213  0.65675  1.0000
  H   H2160     1.0  0.98342  0.79186  0.71188  1.0000
  C   C2690     1.0  0.73719  0.94423  0.77571  1.0000
  H   H2161     1.0  0.88146  0.90493  0.79309  1.0000
  C   C2691     1.0  0.71937  0.93237  0.92719  1.0000
  C   C2692     1.0  0.69874  0.89413  0.91370  1.0000
  C   C2693     1.0  0.92532  0.87053  0.80461  1.0000
  H   H2162     1.0  0.93136  0.74792  0.73267  1.0000
  C   C2694     1.0  0.69045  0.76281  0.50908  1.0000
  H   H2163     1.0  0.82474  0.77732  0.68415  1.0000
  C   C2695     1.0  0.92396  0.74765  0.89532  1.0000
  C   C2696     1.0  0.87390  0.78044  0.65451  1.0000
  C   C2697     1.0  0.72666  0.75202  0.75494  1.0000
  H   H2164     1.0  0.53205  0.78084  0.66490  1.0000
  H   H2165     1.0  0.54212  0.76072  0.79288  1.0000
  C   C2698     1.0  0.60407  0.98622  0.82295  1.0000
  C   C2699     1.0  0.91428  0.97370  0.78326  1.0000
  H   H2166     1.0  0.94984  0.79540  0.89316  1.0000
  C   C2700     1.0  0.53129  0.92000  0.73020  1.0000
  H   H2167     1.0  0.83163  0.78365  0.91686  1.0000
  C   C2701     1.0  0.69048  0.97826  0.97366  1.0000
  C   C2702     1.0  0.78581  0.85112  0.91270  1.0000
  H   H2168     1.0  0.73438  0.92383  0.96799  1.0000
  H   H2169     1.0  0.59067  0.82910  0.69224  1.0000
  H   H2170     1.0  0.51970  0.91428  0.71829  1.0000
  H   H2171     1.0  0.49412  0.86645  0.79825  1.0000
  C   C2703     1.0  0.78974  0.94981  0.92780  1.0000
  C   C2704     1.0  0.54341  0.84414  0.81502  1.0000
  H   H2172     1.0  0.55027  0.83427  0.82850  1.0000
  C   C2705     1.0  0.87871  0.87178  0.80578  1.0000
  H   H2173     1.0  0.73131  0.87909  0.91303  1.0000
  H   H2174     1.0  0.88800  0.79905  0.70532  1.0000
  C   C2706     1.0  0.84569  0.75092  0.92175  1.0000
  C   C2707     1.0  0.56836  0.82285  0.66571  1.0000
  C   C2708     1.0  0.54208  0.81711  0.54433  1.0000
  C   C2709     1.0  0.90188  0.78377  0.91485  1.0000
  C   C2710     1.0  0.91377  0.88964  0.79780  1.0000
  H   H2175     1.0  0.57398  0.83657  0.65538  1.0000
  C   C2711     1.0  0.50676  0.97845  0.64671  1.0000
  H   H2176     1.0  0.93910  0.79313  0.85395  1.0000
  H   H2177     1.0  0.84851  0.79189  0.71350  1.0000
  C   C2712     1.0  0.52066  0.84961  0.81518  1.0000
  C   C2713     1.0  0.79312  0.87431  0.88033  1.0000
  C   C2714     1.0  0.51454  0.89511  0.65967  1.0000
  C   C2715     1.0  0.68619  0.74174  0.50144  1.0000
  H   H2178     1.0  0.84099  0.77002  0.64644  1.0000
  P   P91       1.0  0.91672  0.79374  0.66536  1.0000
  C   C2716     1.0  0.88745  0.78866  0.67104  1.0000
  C   C2717     1.0  0.93325  0.78370  0.68827  1.0000
  S   S364      1.0  0.68917  0.98333  0.83788  1.0000
  H   H2179     1.0  0.57579  0.97168  0.84002  1.0000
  C   C2718     1.0  0.79761  0.96994  0.91943  1.0000
  C   C2719     1.0  0.93024  0.96365  0.68024  1.0000
  C   C2720     1.0  0.95452  0.79211  0.69133  1.0000
  H   H2180     1.0  0.84197  0.74605  0.85743  1.0000
  H   H2181     1.0  0.68828  0.77707  0.49818  1.0000
  C   C2721     1.0  0.51182  0.86256  0.79795  1.0000
  C   C2722     1.0  0.87780  0.95790  0.78899  1.0000
  C   C2723     1.0  0.87800  0.79276  0.69228  1.0000
  C   C2724     1.0  0.92130  0.82307  0.66239  1.0000
  C   C2725     1.0  0.90807  0.83830  0.67452  1.0000
  C   C2726     1.0  0.91151  0.86092  0.67193  1.0000
  C   C2727     1.0  0.92811  0.86855  0.65719  1.0000
  C   C2728     1.0  0.94166  0.85355  0.64542  1.0000
  C   C2729     1.0  0.93851  0.83092  0.64819  1.0000
  H   H2182     1.0  0.90921  0.75993  0.70063  1.0000
  C   C2730     1.0  0.77301  0.93880  0.91675  1.0000
  C   C2731     1.0  0.76695  0.91097  0.95726  1.0000
  S   S365      1.0  0.49629  0.96480  0.75893  1.0000
  C   C2732     1.0  0.49341  0.85411  0.73521  1.0000
  C   C2733     1.0  0.51366  0.74181  0.68477  1.0000
  H   H2183     1.0  0.86702  0.77873  0.84505  1.0000
  H   H2184     1.0  0.57731  0.79816  0.71598  1.0000
  H   H2185     1.0  0.71371  0.76042  0.76461  1.0000
  H   H2186     1.0  0.96130  0.80429  0.67982  1.0000
  H   H2187     1.0  0.52969  0.80949  0.72714  1.0000
  C   C2734     1.0  0.89518  0.77621  0.89429  1.0000
  C   C2735     1.0  0.93814  0.76011  0.64094  1.0000
  C   C2736     1.0  0.83717  0.76865  0.90876  1.0000
  C   C2737     1.0  0.88161  0.76819  0.81379  1.0000
  H   H2188     1.0  0.89527  0.83296  0.68625  1.0000
  H   H2189     1.0  0.90158  0.87252  0.68175  1.0000
  H   H2190     1.0  0.93080  0.88606  0.65519  1.0000
  H   H2191     1.0  0.95486  0.85947  0.63432  1.0000
  H   H2192     1.0  0.94967  0.81970  0.63925  1.0000
  H   H2193     1.0  0.69393  0.96610  0.96107  1.0000
  C   C2738     1.0  0.78337  0.89238  0.89136  1.0000
  C   C2739     1.0  0.89022  0.85259  0.81230  1.0000
  C   C2740     1.0  0.85136  0.77639  0.65923  1.0000
  C   C2741     1.0  0.96715  0.78500  0.70942  1.0000
  H   H2194     1.0  0.52802  0.78520  0.54868  1.0000
  C   C2742     1.0  0.85552  0.78869  0.69697  1.0000
  C   C2743     1.0  0.52463  0.85323  0.69986  1.0000
  C   C2744     1.0  0.55616  0.78456  0.52511  1.0000
  C   C2745     1.0  0.87998  0.78156  0.83247  1.0000
  C   C2746     1.0  0.75353  0.97819  0.96950  1.0000
  C   C2747     1.0  0.96516  0.94860  0.75905  1.0000
  C   C2748     1.0  0.54095  0.79456  0.54020  1.0000
  H   H2195     1.0  0.51987  0.92574  0.67668  1.0000
  H   H2196     1.0  0.86990  0.75503  0.81191  1.0000
  C   C2749     1.0  0.92524  0.76726  0.70297  1.0000
  C   C2750     1.0  0.96354  0.76753  0.96535  1.0000
  H   H2197     1.0  0.59010  0.75938  0.69784  1.0000
  H   H2198     1.0  0.75710  0.96296  0.96093  1.0000
  H   H2199     1.0  0.73444  0.96193  0.77542  1.0000
  H   H2200     1.0  0.77898  0.90570  0.77090  1.0000
  C   C2751     1.0  0.54690  0.98414  0.58231  1.0000
  C   C2752     1.0  0.51525  0.75821  0.70082  1.0000
  P   P92       1.0  0.54232  0.76588  0.71037  1.0000
  C   C2753     1.0  0.93394  0.97101  0.70175  1.0000
  C   C2754     1.0  0.50032  0.82423  0.49224  1.0000
  H   H2201     1.0  0.86237  0.95654  0.79870  1.0000
  C   C2755     1.0  0.49589  0.77006  0.70752  1.0000
  H   H2202     1.0  0.89199  0.98115  0.81101  1.0000
  S   S366      1.0  0.53163  0.74453  0.63073  1.0000
  S   S367      1.0  0.96405  0.75235  0.50068  1.0000
  H   H2203     1.0  0.57895  0.98003  0.56568  1.0000
  S   S368      1.0  0.62174  0.98269  0.84657  1.0000
  C   C2756     1.0  0.49491  0.81757  0.51438  1.0000
  H   H2204     1.0  0.96849  0.75704  0.88674  1.0000
  C   C2757     1.0  0.56026  0.74172  0.63742  1.0000
  H   H2205     1.0  0.92708  0.97549  0.66694  1.0000
  H   H2206     1.0  0.50360  0.82937  0.68532  1.0000
  C   C2758     1.0  0.56102  0.74204  0.71061  1.0000
  H   H2207     1.0  0.62836  0.74900  0.55515  1.0000
  H   H2208     1.0  0.92700  0.98464  0.78877  1.0000
  C   C2759     1.0  0.56993  0.98679  0.57997  1.0000
  C   C2760     1.0  0.49061  0.83998  0.71736  1.0000
  Fe  Fe184     1.0  0.65763  0.98925  0.85819  1.0000
