data_image0
_chemical_formula_structural       HC2H2CH3C3HCHCHPHC3HC8H3C2HCSHC4SHC2HCH2CH3CHCHCHC2H3SHCHCHC2H2CH2CHC2H2C4HCHCHSCHC3HCH2CHCPC5PH2CHCHCH3C3FeC3HC3H3C2HCSC2SH3CHCHCHC4HCHC2H2C3HC3H2C2H2FeSCFeS2FeSFeHSH4CFeCHFeCSHSC2HFeS2FeS2FeSFeS3HC3HCH2C6H9CHC3HC6H2C6H5C8HCH2C2H2C5HC2H4CSHC2H4C2H2SH4CHC3PC9H2CHCH2CH5CHC7PC9SHC7H9C3H7CPH3C2HCHCH2CHC3H4CPC2HC2HCH2SHCHC3HC2H6C2H3C2HCH4C2H3SC5FeS2FeS2FeSFeS3HCHCHSH2SC2FeS2FeS2FeSFeS3CHC8H4CHC6H4C2H3C2HC2H3CHC4HCH4CH2CHCHC6PC19HSH16PC14HCHCH8C3H2C2HPC3H4CHCH3C2FeC2H3C2HCH3C5H3C9PC8H4C3H2CH4CH5CH2CH2C2H3C3HCHCHC2PCH3C4HFeH3C3HCHS3HCSFeHCFeC2HCSC2HFeHSHCHS2FeS2FeS2FeSFeS3C2HC2H2C6H4CH2CH2PCH2CHC3FeHC7HC6PHCHCHC3H2C5H2CHCSC2FeHCHC2H3CH2CSHC3H2CHCH2C4H2SH2C3HCHC3PC7S2H2C7HCH3CHCH4CH4C5HCHC2HC2H3CFeHC6PC5HC12H7C2H11C2PC2H2CH2C6H4CH2CSCH2CHC2HC2H2CH2SC3H4CHCHCFeSHSCPFeS2FeS2FeSFeS3PSCFeSCFeSFeHSC2S2H3C2PCSC4H2CH2C2HC8H2C2H2CH2C6HC6H4C3HCH2C3HC6H2C2H3C2PC2H2CSH2C5HCHCHCHC2H4C4H2CH4C2H2CHC2HC2HCHCH2C5HCHCH2CH3SH8CHCHC2H2CH4C5HC9HFeCHC4HSH2C4HC3PHCH2C7H2C2H2CH2CHCH3C5HC2H2CH4C5H3FeC2H2CHC3PC4HSHCHCH3C3H4FeCHFeS2FeS2FeSFeS4CSC2HSFeSC2SHFeSC2SH3C8H5C5H3C7H4FeC2HFeH2C6H4C5HCH2C3H8CPH2FeH2PC7HC4FeHCH6CH2CHCH5C10H2CHCH4C2H3CSHCPC2HC3PC5SC2HC2HC4H2C2H5PH3C3H5C2SC4PC14HC5H14C2HC2HC2H2CHC3HC2HC3HC2SFeC2SH2CHCHCH4CHCPC7HCH2CHSCHC3PHCHC2HCHCHCHCHCHC3HC3FeCHC4H2CHC2HC2HCH2CSH2CH2CHC3H3C2FeCHC3H2C2HC5H2C2H2CH2CH3CHFeSCFeS2FeS2FeSFeS4CS2HCHFeS2FeS2FeSFeS3C5H2SHC6H4FeHC8H2C5HCH4C6H4C5HC2PC3H3SC2H3C3H3CHCH3CH2C3H3CHCHC2H2CH3CH3CH3CHCHC3H2C5PHC2H2C2H4C3HC2H2CHCHCH5CH2C2HC4HC4HCFeHCH2C3H6C3H3SCHC2PC4HC3PC10HC3H2CH5C2SH5C2HC3H3C6H3C5HC2HSC4HC2HCHC3HFeCSCHC5HC4SH6CHCHCHPC5H2C2SC3PH4C2HCH4CH5C2HC4FeC2HCSCHC2SFeS2FeS2FeSFeS3FeS2HSHCHFeSCSHC4HCH5C2H3C6H4C3HCH2C6H4C3HC4HC5H3CH4C9HPC3HC3HC10H4C2H9CH4C3H2FeC11H5CH3CPHC2HCPH4CH3C2H4CHC5SHCH4C6PC18H8CH6CHCHCH3CHCH2CHC2HPC4H2FeC6SC6HC2HCHCHCHCSHCH4CH6CH3CH2CH4FeCHSCSFeS2FeS2FeSFeS3CFeS2FeS2FeSFeS3C6H5C4H2C2SPHC7H4C6H4CH2C6H5C3HSC2HCFeC3HCH3C2HC6PC4HC14H4C3H10FeC4PC18H9CH9CH3C3PC16HC2H3CH2C2H6C2HCHCHCHCHPC2HSH3C6H4C2HCH3CHC2H5CH2CH3CH2C4HC5HSH3C2H2CH2C2HPCHCHC2HC2HC2HC3H2C3H4CHCSH2C2H4C2SHCH4CH2CH2CH2C2H2CFeH3C2HCHCSC2FeCH2Fe2HFeS2FeCFeHS2FeS2HSCFeS2FeS2FeSFeS3C4H4C3H4C6H6C6H6CH2C6H5CHSCH2C11H8CH2C2HPC12H2CH2FeHSC2SH5SH2CH3CH2SH2C3HC2H2CHPCHC2HCHCHPC3HC4HCH2C3H3PC2H4C2HC5H2C3HCHSCHC4HC4H2C3HC4H4C3HC2H2CH4CHC5H2C2HC2HCSHC5FeHCH2C3HCPCH2CHCHC2HC2HFeCHC2H5CH2C3H2CHC6HCHCHC4HCH3C2SFeHFeS2FeS2FeSFeCS2HFeS2FeS2FeSFeS3C2HC2HC4H3C6H4C6H4CHC2FeH3C4FeH3C3HCH2CH2C5H4C2HC7HC2H5S2CHCSC3H4C9PC8SH2C4H2CH6FeCH3PH4SC2HC6PC9HC8H9C2H6CH4C6H2C3H5CH3CH2CHC2PC12H11SCHCHCH3CHC2H2CPC7H3CSH2CH3C2HC7SC2H4C3SHC2HC2H2C2SC4HCFeH3PHCHC3HC3HC2SC3H2SPC3H4CHC4HCH2CHCH2CH2CH2CH4C5H5CFeHS2HSCH2FeS2FeS2FeSFeCSC2FeS2FeS2FeSFeS3C2HCH3CHC5H3C6H4C6H4C2H5C8H6C2HCHCHCH3C2H5CH2SCH2CHPCHC2HCHC3HC3H4CSC8FeH5C2H2C3PC4HC13H2CH4CH4CH7C6PCFeC3H2CHC9H5CH5CH8CFeC2H2PC12H3C2HC3FeH3CH9CH2S2CHCHCHCHFeCHCH6C6HPC6H2C2HC6HSC2H2CH3C3H3CSCFeC2HC2HCHCSCHC7HC2FeH2CHCHCHCHSHC2H2CHSFeS2FeS2FeSFeS3FeS2FeSFeS3FeS2C4H2CHC3HC6H2CH2C6H5C5H2CHC7PC8H10C3PC16H12CHC3SCH5FeHC2H2CH2CFeCH3C4FeHC2FeCSHCH3CHCSCHCHC3HCHCSHC2HSC3HCPH2C3H2CH2C2HCPCH2C5H4PC2H2CHCH2PCH3CHCH4SC4FeC4H2PC2H2C2HCHFeC2HC2SCSCHCH3C2HC2HCHCHCHC3SHC2H2C2S2C5HSC2H2CH3SH2CH2C3HC3HCH2CHC2H4C5H3C2HCPHC2HC3HCHCH2CH2FeCHC4HC4HC2HCHCHSCHSCH3C3HC3SC2H3C2HC2HCHC2HC2H2CHCHSH5CSC4H2SH2S2CFeCHSHSH2SCFeCHCHC2H5CHCHC3H2C6H4C2HC2H3SHFeSHSC4PCHCHSCHCPC2HC3PC8H2C2HC3HCHC2HCH6C2H3CH2C2HC2H3C2HC3H2CHCH5CHCH4SH4CHCHC4HCHC2HC9HC2HC3SH4CHCHFeCHC4H3FeHCHSFeCSC3SC3HFeS2H2CS2HSFeSC6H4CH3C2SH2C3HCH3CHCHC4HC2HCSFeC7PC7H3C5PC2H10C2HCH4CFeC6PC8HFeC8H16FeHS2C4HCHC2HCHC2HC2HCHSH2C2HCHC3HPC3HC3FeC9H7C2H6C3HFeH2CHCHC3FeH2CH2PHCH3CHSHCH3SCH2CH2C5HFeS2FeS2FeSFeS3HFeSHFeS2FeSFeHSC3HCSC7H4C6HCH2CH3C4H4C6PC13HCHC3H11C2HCHCFeCHPC3H3C8HC3H5CH9CH3C3H3CPC7H3C2H4C2HC2H2C6HCHCH3SC2HC7HC3HCHC2HCH2SHC3HCHC3HCSHC4HCH3CHCHCHCFeS2FeS2FeSFeS3HFeS2FeSCFeSFeS3CHC3HC3PHCHCHC6H4C7HCHC2H2C4H2CHC3H2C5PC2HC9H2CH3C3H6CH3CHPCHCHC6H4CH2C2H3C3H5C4PCHCH2C9H3C2H3C2HSH7CHC3H5C6PC7H2SC8H10C3HC2H4C2HCH3CHC2HCHC2H2C4SHCHCSCSCFeS2FeSHFeSFeS3HCH2C2HFeC6HCH2CH2C2H2CHC4HCH3CHCH4CHCH2C3HC2PC3HPH3CHC3FeC2HCHC5HC2HCH4FeSCFeSCFeSFeHS2HC2HC7HCHC5HSHCHC2HC2PHC3H3C3HC2H4CHCH5C2SCHSH3C3H2C4H3CH8C2HPCHC3HSC9HC3PCHCHSC2H2C2HC3H2CH2CH2CSC2FeH2CH2CHCH3S2HCHSHCHFeCH2CSHCHPCHSC2H2C3HCH5CHSCSCH2FeSCHC2FeHC2HCH5CH2C5H3PSC7HC4HCH2CH3C
_chemical_formula_sum              "H2304 C2880 P96 S384 Fe192"
_cell_length_a       57.3227
_cell_length_b       57.3285
_cell_length_c       87.932
_cell_angle_alpha    90.3441
_cell_angle_beta     90.2725
_cell_angle_gamma    116.652

_space_group_name_H-M_alt    "P 1"
_space_group_IT_number       1

loop_
  _space_group_symop_operation_xyz
  'x, y, z'

loop_
  _atom_site_type_symbol
  _atom_site_label
  _atom_site_symmetry_multiplicity
  _atom_site_fract_x
  _atom_site_fract_y
  _atom_site_fract_z
  _atom_site_occupancy
  H   H1        1.0  0.31328  0.43408  0.03827  1.0000
  C   C1        1.0  0.26319  0.44488  0.05167  1.0000
  C   C2        1.0  0.22051  0.34970  0.04007  1.0000
  H   H2        1.0  0.28340  0.46215  0.99854  1.0000
  H   H3        1.0  0.24361  0.44192  0.04896  1.0000
  C   C3        1.0  0.27705  0.43680  0.04151  1.0000
  H   H4        1.0  0.23620  0.38893  0.04865  1.0000
  H   H5        1.0  0.26461  0.46499  0.07274  1.0000
  H   H6        1.0  0.26298  0.47412  0.02653  1.0000
  C   C4        1.0  0.31365  0.45290  0.05933  1.0000
  C   C5        1.0  0.27489  0.45773  0.06526  1.0000
  C   C6        1.0  0.30022  0.46203  0.06900  1.0000
  H   H7        1.0  0.23361  0.49139  0.01685  1.0000
  C   C7        1.0  0.22973  0.47153  0.01412  1.0000
  H   H8        1.0  0.30957  0.47278  0.07928  1.0000
  C   C8        1.0  0.30207  0.44018  0.04571  1.0000
  H   H9        1.0  0.21195  0.34113  0.05085  1.0000
  P   P1        1.0  0.26325  0.42308  0.02306  1.0000
  H   H10       1.0  0.25062  0.38004  0.00131  1.0000
  C   C9        1.0  0.24617  0.46149  0.01976  1.0000
  C   C10       1.0  0.23435  0.37683  0.03878  1.0000
  C   C11       1.0  0.24109  0.43561  0.01648  1.0000
  H   H11       1.0  0.30061  0.40200  0.01733  1.0000
  C   C12       1.0  0.24556  0.38807  0.02486  1.0000
  C   C13       1.0  0.28905  0.43099  0.00930  1.0000
  C   C14       1.0  0.20872  0.45630  0.00462  1.0000
  C   C15       1.0  0.30423  0.41738  0.00924  1.0000
  C   C16       1.0  0.21767  0.33362  0.02748  1.0000
  C   C17       1.0  0.24246  0.37179  0.01222  1.0000
  C   C18       1.0  0.21989  0.42038  0.00691  1.0000
  C   C19       1.0  0.22862  0.34467  0.01355  1.0000
  H   H12       1.0  0.20695  0.31261  0.02849  1.0000
  H   H13       1.0  0.22635  0.33222  0.00377  1.0000
  H   H14       1.0  0.19653  0.46452  0.99987  1.0000
  C   C20       1.0  0.29452  0.45108  0.99876  1.0000
  C   C21       1.0  0.20379  0.43072  0.00102  1.0000
  H   H15       1.0  0.21592  0.40069  0.00378  1.0000
  C   C22       1.0  0.32479  0.42407  0.99900  1.0000
  S   S1        1.0  0.32025  0.49557  0.02747  1.0000
  H   H16       1.0  0.18766  0.41905  0.99350  1.0000
  C   C23       1.0  0.19891  0.48829  0.48101  1.0000
  C   C24       1.0  0.29158  0.43079  0.45474  1.0000
  C   C25       1.0  0.31802  0.41526  0.46893  1.0000
  C   C26       1.0  0.31063  0.42190  0.45507  1.0000
  S   S2        1.0  0.26060  0.48496  0.45925  1.0000
  H   H17       1.0  0.18593  0.40109  0.47926  1.0000
  C   C27       1.0  0.03096  0.49260  0.47460  1.0000
  C   C28       1.0  0.21457  0.48270  0.47060  1.0000
  H   H18       1.0  0.26612  0.44111  0.46779  1.0000
  C   C29       1.0  0.28009  0.43327  0.46825  1.0000
  H   H19       1.0  0.20533  0.46908  0.46135  1.0000
  H   H20       1.0  0.28629  0.43660  0.44406  1.0000
  C   C30       1.0  0.24199  0.49431  0.47214  1.0000
  H   H21       1.0  0.32176  0.26619  0.38470  1.0000
  H   H22       1.0  0.17791  0.47894  0.47970  1.0000
  H   H23       1.0  0.04463  0.48672  0.47990  1.0000
  C   C31       1.0  0.30674  0.41800  0.48248  1.0000
  H   H24       1.0  0.99771  0.46249  0.48538  1.0000
  C   C32       1.0  0.00430  0.47886  0.47767  1.0000
  H   H25       1.0  0.22921  0.40177  0.48144  1.0000
  C   C33       1.0  0.28738  0.42668  0.48222  1.0000
  H   H26       1.0  0.31660  0.22633  0.37082  1.0000
  C   C34       1.0  0.20046  0.41471  0.48701  1.0000
  C   C35       1.0  0.22511  0.41537  0.48815  1.0000
  H   H27       1.0  0.32012  0.42078  0.44462  1.0000
  H   H28       1.0  0.28702  0.48556  0.48913  1.0000
  H   H29       1.0  0.08152  0.46469  0.63679  1.0000
  S   S3        1.0  0.05043  0.45644  0.50723  1.0000
  H   H30       1.0  0.09050  0.41410  0.53392  1.0000
  C   C36       1.0  0.27052  0.40956  0.51415  1.0000
  H   H31       1.0  0.10674  0.42262  0.56058  1.0000
  C   C37       1.0  0.21342  0.44964  0.50561  1.0000
  H   H32       1.0  0.03015  0.47128  0.53434  1.0000
  C   C38       1.0  0.01853  0.44471  0.51536  1.0000
  C   C39       1.0  0.07180  0.46273  0.59855  1.0000
  H   H33       1.0  0.01285  0.41669  0.61081  1.0000
  H   H34       1.0  0.08089  0.43014  0.58049  1.0000
  C   C40       1.0  0.01403  0.45530  0.52875  1.0000
  H   H35       1.0  0.03556  0.43031  0.63554  1.0000
  H   H36       1.0  0.04407  0.42827  0.69324  1.0000
  C   C41       1.0  0.00415  0.46412  0.57919  1.0000
  H   H37       1.0  0.10860  0.46747  0.66323  1.0000
  C   C42       1.0  0.26094  0.36526  0.52120  1.0000
  C   C43       1.0  0.07899  0.41730  0.54269  1.0000
  H   H38       1.0  0.02208  0.42125  0.54701  1.0000
  H   H39       1.0  0.25243  0.46465  0.51432  1.0000
  C   C44       1.0  0.04628  0.44245  0.59761  1.0000
  C   C45       1.0  0.26038  0.37156  0.53653  1.0000
  C   C46       1.0  0.26437  0.39666  0.54069  1.0000
  C   C47       1.0  0.26920  0.41554  0.52953  1.0000
  H   H40       1.0  0.25651  0.35690  0.54517  1.0000
  C   C48       1.0  0.04493  0.48132  0.56544  1.0000
  H   H41       1.0  0.26533  0.37863  0.49817  1.0000
  C   C49       1.0  0.08814  0.42216  0.55770  1.0000
  H   H42       1.0  0.04817  0.41350  0.52724  1.0000
  S   S4        1.0  0.12021  0.47801  0.52932  1.0000
  C   C50       1.0  0.04982  0.42715  0.56516  1.0000
  H   H43       1.0  0.08198  0.47247  0.58836  1.0000
  C   C51       1.0  0.24431  0.43366  0.49777  1.0000
  C   C52       1.0  0.26574  0.38410  0.51002  1.0000
  C   C53       1.0  0.04060  0.42179  0.55011  1.0000
  H   H44       1.0  0.04192  0.46992  0.69816  1.0000
  C   C54       1.0  0.08450  0.47055  0.61260  1.0000
  H   H45       1.0  0.26345  0.40143  0.55254  1.0000
  H   H46       1.0  0.27166  0.43474  0.53289  1.0000
  C   C55       1.0  0.05519  0.41703  0.53891  1.0000
  H   H47       1.0  0.25735  0.34565  0.51795  1.0000
  C   C56       1.0  0.07352  0.42682  0.56895  1.0000
  P   P2        1.0  0.03030  0.43317  0.57925  1.0000
  C   C57       1.0  0.05651  0.46949  0.69052  1.0000
  C   C58       1.0  0.30008  0.46579  0.50546  1.0000
  C   C59       1.0  0.02576  0.46118  0.57388  1.0000
  C   C60       1.0  0.03304  0.43126  0.61109  1.0000
  C   C61       1.0  0.07160  0.45863  0.62592  1.0000
  P   P3        1.0  0.27569  0.43376  0.49984  1.0000
  H   H48       1.0  0.00013  0.41573  0.49776  1.0000
  H   H49       1.0  0.20895  0.46316  0.51222  1.0000
  C   C62       1.0  0.23817  0.45059  0.50664  1.0000
  H   H50       1.0  0.07745  0.42725  0.67575  1.0000
  C   C63       1.0  0.07417  0.49242  0.68350  1.0000
  H   H51       1.0  0.31349  0.41383  0.49316  1.0000
  C   C64       1.0  0.00113  0.48630  0.57546  1.0000
  H   H52       1.0  0.06226  0.47995  0.56164  1.0000
  H   H53       1.0  0.10438  0.48590  0.61303  1.0000
  H   H54       1.0  0.01489  0.38241  0.59343  1.0000
  C   C65       1.0  0.04577  0.43919  0.62518  1.0000
  C   C66       1.0  0.07650  0.44544  0.67787  1.0000
  C   C67       1.0  0.09419  0.46835  0.67083  1.0000
  Fe  Fe1       1.0  0.09092  0.48683  0.51618  1.0000
  C   C68       1.0  0.19464  0.43186  0.49573  1.0000
  C   C69       1.0  0.05770  0.44602  0.68773  1.0000
  C   C70       1.0  0.30100  0.48777  0.49805  1.0000
  H   H55       1.0  0.06078  0.49647  0.65277  1.0000
  C   C71       1.0  0.99706  0.42405  0.50818  1.0000
  C   C72       1.0  0.09329  0.49205  0.67371  1.0000
  C   C73       1.0  0.31929  0.46900  0.51638  1.0000
  H   H56       1.0  0.28314  0.49071  0.71074  1.0000
  H   H57       1.0  0.31967  0.45228  0.52179  1.0000
  H   H58       1.0  0.17575  0.43176  0.49467  1.0000
  C   C74       1.0  0.99977  0.40367  0.57953  1.0000
  C   C75       1.0  0.99818  0.38161  0.58722  1.0000
  H   H59       1.0  0.04133  0.47053  0.90923  1.0000
  C   C76       1.0  0.11547  0.47846  0.89574  1.0000
  S   S5        1.0  0.07130  0.47311  0.93995  1.0000
  C   C77       1.0  0.02819  0.42461  0.93748  1.0000
  C   C78       1.0  0.03698  0.45129  0.94038  1.0000
  S   S6        1.0  0.15118  0.49156  0.93579  1.0000
  H   H60       1.0  0.05577  0.42944  0.88699  1.0000
  H   H61       1.0  0.32683  0.04730  0.95900  1.0000
  H   H62       1.0  0.02444  0.48074  0.94563  1.0000
  C   C79       1.0  0.07230  0.46772  0.87697  1.0000
  H   H63       1.0  0.05540  0.46299  0.86979  1.0000
  C   C80       1.0  0.30561  0.99908  0.93196  1.0000
  H   H64       1.0  0.08066  0.48335  0.98290  1.0000
  C   C81       1.0  0.32174  0.01336  0.91998  1.0000
  H   H65       1.0  0.04221  0.41728  0.93511  1.0000
  C   C82       1.0  0.11550  0.49765  0.88601  1.0000
  C   C83       1.0  0.05056  0.49270  0.84498  1.0000
  C   C84       1.0  0.01819  0.46025  0.94345  1.0000
  C   C85       1.0  0.01012  0.43528  0.90021  1.0000
  H   H66       1.0  0.13237  0.48257  0.90287  1.0000
  C   C86       1.0  0.02477  0.48552  0.84050  1.0000
  H   H67       1.0  0.01677  0.47342  0.83047  1.0000
  C   C87       1.0  0.07235  0.44857  0.88675  1.0000
  C   C88       1.0  0.00130  0.40722  0.93766  1.0000
  H   H68       1.0  0.09378  0.43932  0.90396  1.0000
  H   H69       1.0  0.01890  0.42303  0.90397  1.0000
  C   C89       1.0  0.09382  0.45402  0.89624  1.0000
  C   C90       1.0  0.30707  0.01172  0.94592  1.0000
  C   C91       1.0  0.09390  0.49252  0.87658  1.0000
  H   H70       1.0  0.29413  0.00145  0.95513  1.0000
  C   C92       1.0  0.02267  0.46206  0.90328  1.0000
  C   C93       1.0  0.01082  0.47770  0.89909  1.0000
  C   C94       1.0  0.32539  0.03778  0.94812  1.0000
  H   H71       1.0  0.31954  0.47369  0.98073  1.0000
  H   H72       1.0  0.06211  0.48559  0.83847  1.0000
  C   C95       1.0  0.00933  0.49397  0.84893  1.0000
  C   C96       1.0  0.31513  0.45774  0.98856  1.0000
  H   H73       1.0  0.32041  0.00447  0.90892  1.0000
  H   H74       1.0  0.04941  0.49520  0.97004  1.0000
  Fe  Fe2       1.0  0.16096  0.72863  0.00464  1.0000
  S   S7        1.0  0.18139  0.71143  0.01921  1.0000
  C   C97       1.0  0.28890  0.80911  0.21275  1.0000
  Fe  Fe3       1.0  0.10632  0.69213  0.01893  1.0000
  S   S8        1.0  0.12422  0.67334  0.03469  1.0000
  S   S9        1.0  0.06258  0.67706  0.01246  1.0000
  Fe  Fe4       1.0  0.15683  0.71396  0.03844  1.0000
  S   S10       1.0  0.18216  0.73240  0.05956  1.0000
  Fe  Fe5       1.0  0.14758  0.67259  0.01441  1.0000
  H   H75       1.0  0.32095  0.77347  0.20413  1.0000
  S   S11       1.0  0.13764  0.73344  0.02400  1.0000
  H   H76       1.0  0.11856  0.50265  0.21180  1.0000
  H   H77       1.0  0.26134  0.75141  0.07913  1.0000
  H   H78       1.0  0.29515  0.75348  0.16620  1.0000
  H   H79       1.0  0.26383  0.55057  0.07323  1.0000
  C   C98       1.0  0.28876  0.80711  0.14201  1.0000
  Fe  Fe6       1.0  0.32994  0.52291  0.00760  1.0000
  C   C99       1.0  0.15643  0.57711  0.22060  1.0000
  H   H80       1.0  0.30522  0.84603  0.22423  1.0000
  Fe  Fe7       1.0  0.30323  0.57733  0.16407  1.0000
  C   C100      1.0  0.27499  0.52977  0.19586  1.0000
  S   S12       1.0  0.25993  0.55440  0.16140  1.0000
  H   H81       1.0  0.24148  0.53631  0.19147  1.0000
  S   S13       1.0  0.31966  0.53756  0.06367  1.0000
  C   C101      1.0  0.29808  0.70012  0.07903  1.0000
  C   C102      1.0  0.31779  0.78940  0.20864  1.0000
  H   H82       1.0  0.08650  0.60531  0.01573  1.0000
  Fe  Fe8       1.0  0.25794  0.70350  0.15487  1.0000
  S   S14       1.0  0.24718  0.69137  0.17901  1.0000
  S   S15       1.0  0.29782  0.71501  0.14569  1.0000
  Fe  Fe9       1.0  0.20278  0.69010  0.14430  1.0000
  S   S16       1.0  0.18707  0.67745  0.16787  1.0000
  S   S17       1.0  0.17378  0.68029  0.12459  1.0000
  Fe  Fe10      1.0  0.22240  0.71222  0.17686  1.0000
  S   S18       1.0  0.22118  0.73915  0.19566  1.0000
  Fe  Fe11      1.0  0.21288  0.65758  0.16851  1.0000
  S   S19       1.0  0.19568  0.61648  0.17689  1.0000
  S   S20       1.0  0.23586  0.72722  0.15309  1.0000
  S   S21       1.0  0.22616  0.66757  0.14457  1.0000
  H   H83       1.0  0.29772  0.59609  0.07627  1.0000
  C   C103      1.0  0.21769  0.73443  0.21567  1.0000
  C   C104      1.0  0.22302  0.71615  0.22371  1.0000
  C   C105      1.0  0.00860  0.65128  0.00993  1.0000
  H   H84       1.0  0.22984  0.77884  0.15985  1.0000
  C   C106      1.0  0.21005  0.75083  0.22382  1.0000
  H   H85       1.0  0.22937  0.70367  0.21757  1.0000
  H   H86       1.0  0.20594  0.76502  0.21783  1.0000
  C   C107      1.0  0.24291  0.57246  0.16576  1.0000
  C   C108      1.0  0.21592  0.55913  0.16781  1.0000
  C   C109      1.0  0.20172  0.57289  0.17134  1.0000
  C   C110      1.0  0.21433  0.60011  0.17254  1.0000
  C   C111      1.0  0.24134  0.61363  0.17033  1.0000
  C   C112      1.0  0.25572  0.59974  0.16713  1.0000
  H   H87       1.0  0.20599  0.53809  0.16668  1.0000
  H   H88       1.0  0.18083  0.56245  0.17282  1.0000
  H   H89       1.0  0.25114  0.63470  0.17124  1.0000
  H   H90       1.0  0.27661  0.61012  0.16554  1.0000
  H   H91       1.0  0.28452  0.88386  0.08774  1.0000
  H   H92       1.0  0.27535  0.72966  0.04477  1.0000
  H   H93       1.0  0.29923  0.60011  0.21750  1.0000
  H   H94       1.0  0.22967  0.53274  0.00100  1.0000
  H   H95       1.0  0.26232  0.71420  0.12118  1.0000
  C   C113      1.0  0.30925  0.83058  0.21983  1.0000
  H   H96       1.0  0.26010  0.83372  0.00197  1.0000
  C   C114      1.0  0.25598  0.53757  0.19982  1.0000
  C   C115      1.0  0.28696  0.77918  0.11359  1.0000
  C   C116      1.0  0.32187  0.74342  0.15390  1.0000
  H   H97       1.0  0.25025  0.71118  0.09394  1.0000
  C   C117      1.0  0.13652  0.56066  0.23030  1.0000
  C   C118      1.0  0.29417  0.54188  0.22104  1.0000
  C   C119      1.0  0.31538  0.75893  0.16367  1.0000
  C   C120      1.0  0.03016  0.65999  0.02000  1.0000
  C   C121      1.0  0.31239  0.84135  0.01882  1.0000
  C   C122      1.0  0.02521  0.65510  0.03554  1.0000
  H   H98       1.0  0.30147  0.55079  0.09128  1.0000
  H   H99       1.0  0.04139  0.66160  0.04350  1.0000
  C   C123      1.0  0.17727  0.69480  0.10642  1.0000
  C   C124      1.0  0.19767  0.71928  0.10312  1.0000
  C   C125      1.0  0.19882  0.73052  0.08873  1.0000
  C   C126      1.0  0.17978  0.71735  0.07747  1.0000
  C   C127      1.0  0.15961  0.69273  0.08072  1.0000
  C   C128      1.0  0.15836  0.68159  0.09513  1.0000
  H   H100      1.0  0.21212  0.72981  0.11177  1.0000
  H   H101      1.0  0.21430  0.74970  0.08638  1.0000
  H   H102      1.0  0.14479  0.68240  0.07221  1.0000
  H   H103      1.0  0.14241  0.66272  0.09760  1.0000
  H   H104      1.0  0.29617  0.74054  0.22742  1.0000
  C   C129      1.0  0.30373  0.86892  0.03678  1.0000
  C   C130      1.0  0.12913  0.52336  0.21429  1.0000
  C   C131      1.0  0.24321  0.76450  0.03433  1.0000
  C   C132      1.0  0.24768  0.74486  0.04104  1.0000
  C   C133      1.0  0.27208  0.74508  0.03966  1.0000
  C   C134      1.0  0.29208  0.76504  0.03160  1.0000
  C   C135      1.0  0.28776  0.78498  0.02491  1.0000
  C   C136      1.0  0.26307  0.78438  0.02624  1.0000
  H   H105      1.0  0.26669  0.77761  0.99548  1.0000
  C   C137      1.0  0.01195  0.56408  0.02259  1.0000
  H   H106      1.0  0.12200  0.56140  0.00069  1.0000
  H   H107      1.0  0.99961  0.51880  0.04533  1.0000
  C   C138      1.0  0.30835  0.86392  0.09085  1.0000
  C   C139      1.0  0.10607  0.54701  0.99401  1.0000
  H   H108      1.0  0.27524  0.52261  0.18444  1.0000
  H   H109      1.0  0.29728  0.87182  0.04788  1.0000
  C   C140      1.0  0.31278  0.84599  0.09962  1.0000
  C   C141      1.0  0.05444  0.56653  0.01677  1.0000
  C   C142      1.0  0.27222  0.85830  0.10703  1.0000
  C   C143      1.0  0.32792  0.70133  0.20265  1.0000
  C   C144      1.0  0.10314  0.52153  0.99281  1.0000
  H   H110      1.0  0.15381  0.53154  0.19462  1.0000
  C   C145      1.0  0.29703  0.74843  0.23874  1.0000
  C   C146      1.0  0.28069  0.75623  0.12179  1.0000
  H   H111      1.0  0.28174  0.68235  0.23739  1.0000
  H   H112      1.0  0.22418  0.76417  0.03536  1.0000
  H   H113      1.0  0.23205  0.72943  0.04723  1.0000
  H   H114      1.0  0.21603  0.65845  0.21025  1.0000
  C   C147      1.0  0.32152  0.55466  0.09323  1.0000
  S   S22       1.0  0.15530  0.63787  0.00994  1.0000
  H   H115      1.0  0.01199  0.65490  0.99789  1.0000
  C   C148      1.0  0.32394  0.63766  0.22702  1.0000
  C   C149      1.0  0.22601  0.79901  0.99465  1.0000
  H   H116      1.0  0.11704  0.51629  0.99835  1.0000
  H   H117      1.0  0.00698  0.58059  0.05174  1.0000
  H   H118      1.0  0.30632  0.82286  0.17920  1.0000
  H   H119      1.0  0.30973  0.54414  0.22881  1.0000
  C   C150      1.0  0.30481  0.84556  0.03336  1.0000
  C   C151      1.0  0.29411  0.53199  0.20645  1.0000
  H   H120      1.0  0.28566  0.75712  0.13375  1.0000
  H   H121      1.0  0.24889  0.78408  0.13423  1.0000
  S   S23       1.0  0.12851  0.68904  0.99849  1.0000
  H   H122      1.0  0.26962  0.80815  0.21178  1.0000
  H   H123      1.0  0.32069  0.64666  0.05712  1.0000
  H   H124      1.0  0.06654  0.55692  0.01442  1.0000
  H   H125      1.0  0.32580  0.82844  0.15383  1.0000
  C   C152      1.0  0.16252  0.56632  0.20774  1.0000
  H   H126      1.0  0.26838  0.76196  0.23351  1.0000
  C   C153      1.0  0.21984  0.60450  0.22355  1.0000
  C   C154      1.0  0.20864  0.62116  0.22001  1.0000
  C   C155      1.0  0.29047  0.63240  0.13103  1.0000
  P   P4        1.0  0.17489  0.61161  0.22470  1.0000
  C   C156      1.0  0.30479  0.81796  0.15485  1.0000
  C   C157      1.0  0.16253  0.63026  0.21373  1.0000
  C   C158      1.0  0.16780  0.65558  0.21854  1.0000
  C   C159      1.0  0.15860  0.67039  0.21010  1.0000
  C   C160      1.0  0.14385  0.65993  0.19690  1.0000
  C   C161      1.0  0.13857  0.63478  0.19202  1.0000
  C   C162      1.0  0.14796  0.62000  0.20036  1.0000
  C   C163      1.0  0.02764  0.55173  0.01911  1.0000
  C   C164      1.0  0.25035  0.65251  0.20999  1.0000
  H   H127      1.0  0.10752  0.52130  0.23463  1.0000
  H   H128      1.0  0.28105  0.64069  0.21006  1.0000
  C   C165      1.0  0.26164  0.79307  0.14391  1.0000
  H   H129      1.0  0.31076  0.76482  0.03063  1.0000
  C   C166      1.0  0.14894  0.53959  0.20461  1.0000
  H   H130      1.0  0.01145  0.60146  0.02514  1.0000
  H   H131      1.0  0.20835  0.58585  0.22885  1.0000
  C   C167      1.0  0.26758  0.73184  0.11467  1.0000
  H   H132      1.0  0.17951  0.66412  0.22863  1.0000
  H   H133      1.0  0.16349  0.69025  0.21358  1.0000
  H   H134      1.0  0.13730  0.67166  0.19014  1.0000
  H   H135      1.0  0.12799  0.62707  0.18146  1.0000
  H   H136      1.0  0.14438  0.60095  0.19607  1.0000
  C   C168      1.0  0.20745  0.74909  0.23965  1.0000
  H   H137      1.0  0.25911  0.79930  0.02101  1.0000
  C   C169      1.0  0.30854  0.65712  0.13604  1.0000
  C   C170      1.0  0.27732  0.59169  0.07738  1.0000
  C   C171      1.0  0.25819  0.56591  0.07575  1.0000
  C   C172      1.0  0.23187  0.55989  0.07752  1.0000
  C   C173      1.0  0.22466  0.57966  0.08086  1.0000
  C   C174      1.0  0.24373  0.60572  0.08226  1.0000
  C   C175      1.0  0.27017  0.61155  0.08062  1.0000
  P   P5        1.0  0.23412  0.63081  0.08741  1.0000
  C   C176      1.0  0.26310  0.66141  0.09000  1.0000
  C   C177      1.0  0.21499  0.63617  0.07259  1.0000
  C   C178      1.0  0.20620  0.61974  0.05972  1.0000
  C   C179      1.0  0.19246  0.62500  0.04811  1.0000
  C   C180      1.0  0.18762  0.64677  0.04918  1.0000
  C   C181      1.0  0.19659  0.66338  0.06180  1.0000
  C   C182      1.0  0.21017  0.65814  0.07346  1.0000
  C   C183      1.0  0.27419  0.66985  0.10448  1.0000
  C   C184      1.0  0.29718  0.69311  0.10613  1.0000
  S   S24       1.0  0.32659  0.60516  0.14606  1.0000
  H   H138      1.0  0.21901  0.79296  0.00605  1.0000
  C   C185      1.0  0.27532  0.67664  0.07727  1.0000
  C   C186      1.0  0.21631  0.62092  0.10507  1.0000
  C   C187      1.0  0.22319  0.60689  0.11578  1.0000
  C   C188      1.0  0.20972  0.59907  0.12948  1.0000
  C   C189      1.0  0.18913  0.60504  0.13261  1.0000
  C   C190      1.0  0.18206  0.61889  0.12204  1.0000
  C   C191      1.0  0.19558  0.62688  0.10835  1.0000
  H   H139      1.0  0.21707  0.53982  0.07643  1.0000
  H   H140      1.0  0.20422  0.57462  0.08249  1.0000
  H   H141      1.0  0.28537  0.63123  0.08212  1.0000
  H   H142      1.0  0.20997  0.60298  0.05847  1.0000
  H   H143      1.0  0.18548  0.61227  0.03822  1.0000
  H   H144      1.0  0.17684  0.65075  0.04023  1.0000
  H   H145      1.0  0.19280  0.68025  0.06255  1.0000
  H   H146      1.0  0.21675  0.67120  0.08321  1.0000
  H   H147      1.0  0.26522  0.65867  0.11453  1.0000
  C   C192      1.0  0.24590  0.61165  0.22007  1.0000
  C   C193      1.0  0.25074  0.79011  0.15839  1.0000
  C   C194      1.0  0.29328  0.78870  0.20697  1.0000
  H   H148      1.0  0.26719  0.67036  0.06597  1.0000
  H   H149      1.0  0.23906  0.60205  0.11361  1.0000
  H   H150      1.0  0.21537  0.58859  0.13779  1.0000
  H   H151      1.0  0.17906  0.59948  0.14339  1.0000
  H   H152      1.0  0.16648  0.62410  0.12463  1.0000
  H   H153      1.0  0.18971  0.63778  0.10055  1.0000
  H   H154      1.0  0.30432  0.66599  0.14592  1.0000
  C   C195      1.0  0.26681  0.80076  0.17110  1.0000
  P   P6        1.0  0.31306  0.81086  0.01426  1.0000
  H   H155      1.0  0.22304  0.52348  0.23857  1.0000
  H   H156      1.0  0.27223  0.62210  0.13703  1.0000
  H   H157      1.0  0.25637  0.86294  0.10986  1.0000
  C   C196      1.0  0.27491  0.54947  0.22520  1.0000
  C   C197      1.0  0.06572  0.59376  0.01758  1.0000
  H   H158      1.0  0.27217  0.53197  0.00575  1.0000
  C   C198      1.0  0.28806  0.87006  0.09455  1.0000
  H   H159      1.0  0.30938  0.52672  0.20323  1.0000
  C   C199      1.0  0.22418  0.64537  0.21331  1.0000
  H   H160      1.0  0.28297  0.60085  0.11530  1.0000
  H   H161      1.0  0.26222  0.67103  0.20466  1.0000
  C   C200      1.0  0.05014  0.60619  0.02070  1.0000
  H   H162      1.0  0.27755  0.77214  0.20137  1.0000
  C   C201      1.0  0.25615  0.54775  0.21430  1.0000
  C   C202      1.0  0.30674  0.61110  0.22795  1.0000
  C   C203      1.0  0.29700  0.83413  0.11222  1.0000
  H   H163      1.0  0.26402  0.83156  0.12540  1.0000
  H   H164      1.0  0.25424  0.59857  0.22259  1.0000
  H   H165      1.0  0.05885  0.62731  0.02121  1.0000
  H   H166      1.0  0.17784  0.57861  0.20014  1.0000
  C   C204      1.0  0.28017  0.77729  0.09808  1.0000
  P   P7        1.0  0.30259  0.81050  0.12323  1.0000
  C   C205      1.0  0.26721  0.75283  0.09098  1.0000
  C   C206      1.0  0.26109  0.63551  0.21316  1.0000
  H   H167      1.0  0.30716  0.71197  0.06922  1.0000
  C   C207      1.0  0.26086  0.73013  0.09929  1.0000
  C   C208      1.0  0.30899  0.70836  0.09349  1.0000
  H   H168      1.0  0.24178  0.55454  0.21678  1.0000
  C   C209      1.0  0.27664  0.84042  0.11585  1.0000
  H   H169      1.0  0.25823  0.79771  0.18232  1.0000
  H   H170      1.0  0.28429  0.79448  0.09145  1.0000
  S   S25       1.0  0.32193  0.60455  0.18369  1.0000
  H   H171      1.0  0.12472  0.66836  0.23697  1.0000
  C   C210      1.0  0.29380  0.81480  0.16933  1.0000
  H   H172      1.0  0.30571  0.69952  0.11732  1.0000
  C   C211      1.0  0.12293  0.53389  0.22713  1.0000
  C   C212      1.0  0.30798  0.80431  0.99405  1.0000
  C   C213      1.0  0.29645  0.62056  0.11872  1.0000
  H   H173      1.0  0.01934  0.53074  0.01820  1.0000
  C   C214      1.0  0.02331  0.59146  0.02298  1.0000
  C   C215      1.0  0.26320  0.52716  0.99458  1.0000
  H   H174      1.0  0.32061  0.87300  0.08116  1.0000
  H   H175      1.0  0.29946  0.83072  0.04201  1.0000
  H   H176      1.0  0.32195  0.56685  0.11665  1.0000
  H   H177      1.0  0.02199  0.50932  0.99433  1.0000
  H   H178      1.0  0.30914  0.90623  0.02830  1.0000
  H   H179      1.0  0.31966  0.68300  0.19636  1.0000
  C   C216      1.0  0.31977  0.86123  0.00800  1.0000
  C   C217      1.0  0.31045  0.88833  0.02578  1.0000
  H   H180      1.0  0.13337  0.61541  0.24224  1.0000
  H   H181      1.0  0.32584  0.85871  0.99675  1.0000
  H   H182      1.0  0.16786  0.59940  0.99672  1.0000
  C   C218      1.0  0.32043  0.63355  0.11138  1.0000
  C   C219      1.0  0.31858  0.88451  0.01143  1.0000
  H   H183      1.0  0.32335  0.89926  0.00274  1.0000
  C   C220      1.0  0.99920  0.64241  0.04088  1.0000
  H   H184      1.0  0.31616  0.68341  0.22427  1.0000
  H   H185      1.0  0.22185  0.68851  0.99783  1.0000
  H   H186      1.0  0.32499  0.62344  0.10232  1.0000
  H   H187      1.0  0.32841  0.84121  0.09649  1.0000
  C   C221      1.0  0.22073  0.71462  0.23984  1.0000
  C   C222      1.0  0.32587  0.70172  0.21849  1.0000
  H   H188      1.0  0.32641  0.72666  0.09502  1.0000
  H   H189      1.0  0.13141  0.56829  0.24033  1.0000
  H   H190      1.0  0.32941  0.64672  0.21599  1.0000
  S   S26       1.0  0.32925  0.55766  0.16569  1.0000
  C   C223      1.0  0.28103  0.76033  0.24216  1.0000
  C   C224      1.0  0.29959  0.59903  0.24218  1.0000
  C   C225      1.0  0.00578  0.65027  0.46593  1.0000
  C   C226      1.0  0.30708  0.52821  0.28036  1.0000
  C   C227      1.0  0.21857  0.57779  0.26301  1.0000
  Fe  Fe12      1.0  0.12898  0.69734  0.41684  1.0000
  S   S27       1.0  0.12325  0.72588  0.43250  1.0000
  S   S28       1.0  0.12628  0.69413  0.39095  1.0000
  Fe  Fe13      1.0  0.13399  0.66573  0.44333  1.0000
  S   S29       1.0  0.12920  0.69176  0.46076  1.0000
  S   S30       1.0  0.14050  0.63024  0.44756  1.0000
  Fe  Fe14      1.0  0.09618  0.68982  0.44567  1.0000
  S   S31       1.0  0.05771  0.67920  0.45850  1.0000
  Fe  Fe15      1.0  0.15648  0.72540  0.44648  1.0000
  S   S32       1.0  0.19646  0.75716  0.45483  1.0000
  S   S33       1.0  0.09995  0.66190  0.42911  1.0000
  S   S34       1.0  0.16320  0.69885  0.42987  1.0000
  H   H191      1.0  0.20131  0.76194  0.24562  1.0000
  C   C228      1.0  0.22354  0.55213  0.33586  1.0000
  H   H192      1.0  0.02964  0.53927  0.45146  1.0000
  C   C229      1.0  0.00372  0.65546  0.37661  1.0000
  H   H193      1.0  0.16688  0.63335  0.28715  1.0000
  S   S35       1.0  0.27755  0.57752  0.29954  1.0000
  H   H194      1.0  0.19649  0.83006  0.48564  1.0000
  H   H195      1.0  0.06115  0.60165  0.42227  1.0000
  S   S36       1.0  0.31853  0.49997  0.43001  1.0000
  C   C230      1.0  0.17216  0.61814  0.24454  1.0000
  C   C231      1.0  0.18277  0.70033  0.48543  1.0000
  Fe  Fe16      1.0  0.26999  0.71822  0.30445  1.0000
  S   S37       1.0  0.24259  0.69065  0.28705  1.0000
  S   S38       1.0  0.31228  0.72906  0.30170  1.0000
  Fe  Fe17      1.0  0.22695  0.72024  0.32373  1.0000
  S   S39       1.0  0.19572  0.69343  0.30761  1.0000
  S   S40       1.0  0.22406  0.73766  0.34660  1.0000
  Fe  Fe18      1.0  0.21875  0.67040  0.30736  1.0000
  S   S41       1.0  0.19969  0.62682  0.30972  1.0000
  Fe  Fe19      1.0  0.22245  0.71615  0.28847  1.0000
  S   S42       1.0  0.20903  0.73124  0.26792  1.0000
  S   S43       1.0  0.24808  0.69551  0.32457  1.0000
  S   S44       1.0  0.25168  0.74540  0.30470  1.0000
  C   C232      1.0  0.21859  0.70931  0.46826  1.0000
  H   H196      1.0  0.26265  0.63373  0.27668  1.0000
  C   C233      1.0  0.27101  0.53201  0.26812  1.0000
  C   C234      1.0  0.31506  0.55718  0.25900  1.0000
  C   C235      1.0  0.25653  0.59186  0.30249  1.0000
  C   C236      1.0  0.26616  0.61822  0.30642  1.0000
  C   C237      1.0  0.24889  0.62930  0.30856  1.0000
  C   C238      1.0  0.22191  0.61379  0.30697  1.0000
  C   C239      1.0  0.21236  0.58746  0.30293  1.0000
  C   C240      1.0  0.22964  0.57659  0.30058  1.0000
  H   H197      1.0  0.28696  0.63002  0.30764  1.0000
  H   H198      1.0  0.25648  0.64974  0.31157  1.0000
  H   H199      1.0  0.19158  0.57542  0.30161  1.0000
  H   H200      1.0  0.22214  0.55620  0.29744  1.0000
  C   C241      1.0  0.19585  0.55602  0.25840  1.0000
  H   H201      1.0  0.30584  0.60485  0.26656  1.0000
  C   C242      1.0  0.15423  0.70489  0.37923  1.0000
  C   C243      1.0  0.17862  0.72399  0.38413  1.0000
  C   C244      1.0  0.19985  0.73359  0.37404  1.0000
  C   C245      1.0  0.19719  0.72365  0.35913  1.0000
  C   C246      1.0  0.17303  0.70387  0.35440  1.0000
  C   C247      1.0  0.15158  0.69490  0.36433  1.0000
  H   H202      1.0  0.18087  0.73205  0.39551  1.0000
  H   H203      1.0  0.21829  0.74913  0.37773  1.0000
  H   H204      1.0  0.17072  0.69598  0.34298  1.0000
  H   H205      1.0  0.13277  0.68028  0.36049  1.0000
  C   C248      1.0  0.20966  0.78433  0.46769  1.0000
  C   C249      1.0  0.31206  0.80281  0.47872  1.0000
  H   H206      1.0  0.01668  0.60740  0.45975  1.0000
  H   H207      1.0  0.16227  0.68916  0.48801  1.0000
  H   H208      1.0  0.14382  0.58534  0.45935  1.0000
  C   C250      1.0  0.06616  0.58984  0.45972  1.0000
  C   C251      1.0  0.21297  0.73130  0.24785  1.0000
  H   H209      1.0  0.31057  0.65510  0.37381  1.0000
  C   C252      1.0  0.23601  0.79415  0.47217  1.0000
  C   C253      1.0  0.19083  0.62852  0.26995  1.0000
  H   H210      1.0  0.12986  0.62455  0.26944  1.0000
  H   H211      1.0  0.27728  0.59336  0.35577  1.0000
  H   H212      1.0  0.30147  0.66704  0.29021  1.0000
  C   C254      1.0  0.29799  0.61275  0.40298  1.0000
  H   H213      1.0  0.20698  0.63250  0.27768  1.0000
  C   C255      1.0  0.13262  0.63101  0.47843  1.0000
  C   C256      1.0  0.13751  0.61822  0.46619  1.0000
  C   C257      1.0  0.20753  0.81989  0.48206  1.0000
  C   C258      1.0  0.03668  0.60441  0.44001  1.0000
  H   H214      1.0  0.13003  0.64825  0.47650  1.0000
  C   C259      1.0  0.00865  0.63790  0.38539  1.0000
  H   H215      1.0  0.28862  0.63020  0.33701  1.0000
  H   H216      1.0  0.32428  0.75273  0.27374  1.0000
  H   H217      1.0  0.18001  0.51944  0.24614  1.0000
  H   H218      1.0  0.06084  0.52522  0.46300  1.0000
  C   C260      1.0  0.10080  0.67071  0.25521  1.0000
  H   H219      1.0  0.30687  0.77209  0.31650  1.0000
  H   H220      1.0  0.26673  0.77681  0.25975  1.0000
  C   C261      1.0  0.02369  0.66086  0.45397  1.0000
  H   H221      1.0  0.21735  0.59233  0.27045  1.0000
  C   C262      1.0  0.28015  0.76883  0.25697  1.0000
  H   H222      1.0  0.17514  0.79001  0.46950  1.0000
  C   C263      1.0  0.07135  0.59208  0.44413  1.0000
  C   C264      1.0  0.30485  0.78459  0.44870  1.0000
  C   C265      1.0  0.04009  0.51433  0.46512  1.0000
  C   C266      1.0  0.09991  0.67653  0.27062  1.0000
  C   C267      1.0  0.12218  0.68408  0.27994  1.0000
  C   C268      1.0  0.14504  0.68509  0.27360  1.0000
  P   P8        1.0  0.12159  0.69241  0.29982  1.0000
  C   C269      1.0  0.15053  0.72181  0.30501  1.0000
  C   C270      1.0  0.09361  0.69827  0.30324  1.0000
  C   C271      1.0  0.09615  0.72381  0.30330  1.0000
  C   C272      1.0  0.07440  0.72822  0.30592  1.0000
  C   C273      1.0  0.04996  0.70719  0.30838  1.0000
  C   C274      1.0  0.04722  0.68170  0.30817  1.0000
  C   C275      1.0  0.06894  0.67722  0.30557  1.0000
  C   C276      1.0  0.15702  0.72804  0.32042  1.0000
  C   C277      1.0  0.17968  0.75032  0.32457  1.0000
  C   C278      1.0  0.19611  0.76653  0.31341  1.0000
  C   C279      1.0  0.18940  0.76097  0.29807  1.0000
  C   C280      1.0  0.16649  0.73896  0.29387  1.0000
  C   C281      1.0  0.12009  0.66634  0.31196  1.0000
  C   C282      1.0  0.10914  0.66309  0.32654  1.0000
  C   C283      1.0  0.10922  0.64384  0.33622  1.0000
  C   C284      1.0  0.12079  0.62812  0.33160  1.0000
  C   C285      1.0  0.13177  0.63124  0.31717  1.0000
  C   C286      1.0  0.13117  0.65005  0.30733  1.0000
  C   C287      1.0  0.04567  0.59420  0.46558  1.0000
  H   H223      1.0  0.31968  0.83504  0.40554  1.0000
  S   S45       1.0  0.32816  0.54669  0.45468  1.0000
  H   H224      1.0  0.08192  0.67541  0.27511  1.0000
  H   H225      1.0  0.16245  0.69074  0.28051  1.0000
  H   H226      1.0  0.11489  0.74038  0.30135  1.0000
  H   H227      1.0  0.07654  0.74799  0.30607  1.0000
  H   H228      1.0  0.16407  0.68134  0.25336  1.0000
  H   H229      1.0  0.02825  0.66541  0.31005  1.0000
  H   H230      1.0  0.06650  0.65735  0.30536  1.0000
  H   H231      1.0  0.14483  0.71568  0.32930  1.0000
  H   H232      1.0  0.18486  0.75471  0.33649  1.0000
  H   H233      1.0  0.21413  0.78325  0.31669  1.0000
  H   H234      1.0  0.20221  0.77338  0.28936  1.0000
  H   H235      1.0  0.16173  0.73534  0.28190  1.0000
  H   H236      1.0  0.10103  0.67576  0.33062  1.0000
  H   H237      1.0  0.10094  0.64157  0.34749  1.0000
  H   H238      1.0  0.14131  0.61944  0.31373  1.0000
  H   H239      1.0  0.14013  0.65233  0.29635  1.0000
  P   P9        1.0  0.25576  0.62969  0.36294  1.0000
  C   C288      1.0  0.23070  0.63938  0.36781  1.0000
  C   C289      1.0  0.27924  0.65554  0.35149  1.0000
  C   C290      1.0  0.28487  0.68166  0.35454  1.0000
  C   C291      1.0  0.30312  0.70177  0.34575  1.0000
  C   C292      1.0  0.31596  0.69593  0.33397  1.0000
  C   C293      1.0  0.31042  0.67009  0.33090  1.0000
  C   C294      1.0  0.29235  0.64997  0.33968  1.0000
  C   C295      1.0  0.21957  0.64814  0.35627  1.0000
  C   C296      1.0  0.20172  0.65774  0.35984  1.0000
  C   C297      1.0  0.19467  0.65853  0.37495  1.0000
  C   C298      1.0  0.20545  0.64964  0.38650  1.0000
  C   C299      1.0  0.22352  0.64023  0.38298  1.0000
  C   C300      1.0  0.24278  0.59928  0.35234  1.0000
  C   C301      1.0  0.21779  0.58880  0.34569  1.0000
  H   H240      1.0  0.27496  0.68652  0.36355  1.0000
  C   C302      1.0  0.13787  0.58538  0.48356  1.0000
  H   H241      1.0  0.08762  0.58928  0.43979  1.0000
  C   C303      1.0  0.27596  0.65107  0.27078  1.0000
  H   H242      1.0  0.22499  0.64787  0.34449  1.0000
  H   H243      1.0  0.19364  0.66492  0.35088  1.0000
  H   H244      1.0  0.18101  0.66623  0.37772  1.0000
  H   H245      1.0  0.19994  0.65033  0.39821  1.0000
  H   H246      1.0  0.23202  0.63405  0.39215  1.0000
  H   H247      1.0  0.18906  0.55746  0.33227  1.0000
  H   H248      1.0  0.20569  0.59875  0.34654  1.0000
  H   H249      1.0  0.32027  0.66571  0.32166  1.0000
  C   C304      1.0  0.24801  0.81656  0.48155  1.0000
  C   C305      1.0  0.29583  0.76610  0.26830  1.0000
  C   C306      1.0  0.25815  0.60392  0.38918  1.0000
  H   H250      1.0  0.02850  0.64271  0.38885  1.0000
  H   H251      1.0  0.12894  0.74526  0.47515  1.0000
  C   C307      1.0  0.14007  0.59536  0.46879  1.0000
  C   C308      1.0  0.14740  0.62407  0.26529  1.0000
  H   H252      1.0  0.21026  0.62235  0.25088  1.0000
  P   P10       1.0  0.27665  0.56487  0.24350  1.0000
  C   C309      1.0  0.24493  0.56141  0.24922  1.0000
  C   C310      1.0  0.28829  0.55010  0.25782  1.0000
  C   C311      1.0  0.19273  0.62289  0.25469  1.0000
  H   H253      1.0  0.01303  0.65244  0.47749  1.0000
  H   H254      1.0  0.06980  0.64566  0.47677  1.0000
  H   H255      1.0  0.30853  0.83587  0.47018  1.0000
  H   H256      1.0  0.22582  0.70513  0.45775  1.0000
  C   C312      1.0  0.03141  0.60214  0.45558  1.0000
  H   H257      1.0  0.30406  0.80783  0.38245  1.0000
  C   C313      1.0  0.22202  0.53911  0.24506  1.0000
  H   H258      1.0  0.31445  0.52029  0.28929  1.0000
  H   H259      1.0  0.29476  0.77202  0.27991  1.0000
  H   H260      1.0  0.16735  0.73944  0.48241  1.0000
  C   C314      1.0  0.32437  0.54612  0.27014  1.0000
  C   C315      1.0  0.16819  0.62906  0.27527  1.0000
  Fe  Fe20      1.0  0.30456  0.50334  0.45367  1.0000
  C   C316      1.0  0.31495  0.69230  0.27091  1.0000
  C   C317      1.0  0.31233  0.77914  0.47530  1.0000
  H   H261      1.0  0.26717  0.50796  0.28760  1.0000
  H   H262      1.0  0.26055  0.55255  0.34085  1.0000
  H   H263      1.0  0.22513  0.70081  0.24603  1.0000
  C   C318      1.0  0.31316  0.74601  0.25004  1.0000
  C   C319      1.0  0.12388  0.67242  0.24896  1.0000
  H   H264      1.0  0.26026  0.59694  0.26265  1.0000
  C   C320      1.0  0.01385  0.65806  0.43909  1.0000
  H   H265      1.0  0.24738  0.78463  0.46814  1.0000
  H   H266      1.0  0.25379  0.64114  0.24991  1.0000
  H   H267      1.0  0.10208  0.68420  0.49055  1.0000
  C   C321      1.0  0.31025  0.69656  0.25572  1.0000
  C   C322      1.0  0.14599  0.67964  0.25816  1.0000
  C   C323      1.0  0.05647  0.59910  0.43426  1.0000
  C   C324      1.0  0.20817  0.56520  0.33759  1.0000
  C   C325      1.0  0.29913  0.63956  0.38151  1.0000
  H   H268      1.0  0.21643  0.53431  0.32917  1.0000
  H   H269      1.0  0.23744  0.59171  0.38743  1.0000
  H   H270      1.0  0.30812  0.60751  0.41178  1.0000
  C   C326      1.0  0.31246  0.75500  0.26481  1.0000
  C   C327      1.0  0.32774  0.64041  0.25443  1.0000
  C   C328      1.0  0.24297  0.58043  0.25850  1.0000
  C   C329      1.0  0.26804  0.87062  0.45814  1.0000
  C   C330      1.0  0.24223  0.85901  0.45294  1.0000
  C   C331      1.0  0.23367  0.83775  0.44291  1.0000
  C   C332      1.0  0.25089  0.82811  0.43804  1.0000
  C   C333      1.0  0.27696  0.83967  0.44320  1.0000
  C   C334      1.0  0.28529  0.86099  0.45334  1.0000
  P   P11       1.0  0.29988  0.82771  0.43717  1.0000
  C   C335      1.0  0.30414  0.80828  0.45209  1.0000
  C   C336      1.0  0.28856  0.80825  0.41990  1.0000
  C   C337      1.0  0.30228  0.81665  0.40619  1.0000
  C   C338      1.0  0.29360  0.80118  0.39303  1.0000
  C   C339      1.0  0.27124  0.77723  0.39342  1.0000
  C   C340      1.0  0.25754  0.76864  0.40699  1.0000
  C   C341      1.0  0.26625  0.78395  0.42020  1.0000
  C   C342      1.0  0.28732  0.67844  0.24849  1.0000
  H   H271      1.0  0.02600  0.61121  0.43251  1.0000
  H   H272      1.0  0.26830  0.82396  0.48473  1.0000
  H   H273      1.0  0.03315  0.71068  0.31044  1.0000
  H   H274      1.0  0.25038  0.52664  0.26781  1.0000
  C   C343      1.0  0.28043  0.52122  0.27938  1.0000
  C   C344      1.0  0.25353  0.51187  0.48422  1.0000
  C   C345      1.0  0.29790  0.66967  0.27837  1.0000
  H   H275      1.0  0.01976  0.67379  0.37326  1.0000
  H   H276      1.0  0.13985  0.56774  0.48546  1.0000
  C   C346      1.0  0.14945  0.61888  0.24992  1.0000
  H   H277      1.0  0.22862  0.86581  0.45718  1.0000
  H   H278      1.0  0.21339  0.82814  0.43931  1.0000
  H   H279      1.0  0.24338  0.81146  0.43047  1.0000
  H   H280      1.0  0.30503  0.86998  0.45778  1.0000
  C   C347      1.0  0.30872  0.77002  0.46028  1.0000
  H   H281      1.0  0.08368  0.66522  0.24804  1.0000
  H   H282      1.0  0.26442  0.76540  0.38315  1.0000
  H   H283      1.0  0.24000  0.75016  0.40726  1.0000
  H   H284      1.0  0.25541  0.77685  0.43066  1.0000
  H   H285      1.0  0.31206  0.87510  0.42007  1.0000
  C   C348      1.0  0.27081  0.65537  0.25579  1.0000
  H   H286      1.0  0.27451  0.52124  0.48555  1.0000
  H   H287      1.0  0.30900  0.75167  0.45762  1.0000
  C   C349      1.0  0.31197  0.63354  0.39327  1.0000
  H   H288      1.0  0.30261  0.77729  0.43716  1.0000
  H   H289      1.0  0.25494  0.74220  0.47426  1.0000
  C   C350      1.0  0.00641  0.58927  0.48846  1.0000
  C   C351      1.0  0.23406  0.82998  0.48627  1.0000
  H   H290      1.0  0.02723  0.66630  0.42977  1.0000
  H   H291      1.0  0.12159  0.61378  0.33929  1.0000
  H   H292      1.0  0.17699  0.55395  0.26205  1.0000
  C   C352      1.0  0.27207  0.62476  0.37937  1.0000
  C   C353      1.0  0.25788  0.58570  0.35080  1.0000
  C   C354      1.0  0.24840  0.56241  0.34244  1.0000
  H   H293      1.0  0.27427  0.88634  0.46646  1.0000
  C   C355      1.0  0.27106  0.59805  0.40099  1.0000
  H   H294      1.0  0.07861  0.58520  0.46701  1.0000
  C   C356      1.0  0.30803  0.81733  0.46720  1.0000
  H   H295      1.0  0.26034  0.58159  0.40833  1.0000
  C   C357      1.0  0.23499  0.73009  0.47760  1.0000
  C   C358      1.0  0.19758  0.53662  0.24946  1.0000
  P   P12       1.0  0.03851  0.59124  0.48576  1.0000
  C   C359      1.0  0.31056  0.61383  0.25543  1.0000
  H   H296      1.0  0.17969  0.67854  0.46481  1.0000
  H   H297      1.0  0.32046  0.91936  0.45528  1.0000
  H   H298      1.0  0.30692  0.72181  0.34781  1.0000
  C   C360      1.0  0.19533  0.79711  0.47292  1.0000
  C   C361      1.0  0.02252  0.52232  0.45870  1.0000
  C   C362      1.0  0.19252  0.69437  0.47221  1.0000
  C   C363      1.0  0.07478  0.64361  0.48840  1.0000
  H   H299      1.0  0.32878  0.57147  0.25140  1.0000
  Fe  Fe21      1.0  0.31983  0.60084  0.30646  1.0000
  H   H300      1.0  0.32611  0.59020  0.47313  1.0000
  H   H301      1.0  0.31557  0.76806  0.48428  1.0000
  H   H302      1.0  0.31548  0.81030  0.49030  1.0000
  C   C364      1.0  0.32725  0.77797  0.31426  1.0000
  C   C365      1.0  0.22536  0.73595  0.49092  1.0000
  C   C366      1.0  0.13204  0.74207  0.48699  1.0000
  H   H303      1.0  0.32602  0.93553  0.24533  1.0000
  C   C367      1.0  0.15378  0.73851  0.49115  1.0000
  H   H304      1.0  0.08149  0.57783  0.49118  1.0000
  S   S46       1.0  0.19167  0.51057  0.50809  1.0000
  S   S47       1.0  0.12046  0.51142  0.57029  1.0000
  S   S48       1.0  0.15766  0.54127  0.53109  1.0000
  H   H305      1.0  0.13468  0.55884  0.63926  1.0000
  C   C368      1.0  0.32150  0.83287  0.59742  1.0000
  S   S49       1.0  0.30802  0.84973  0.51050  1.0000
  Fe  Fe22      1.0  0.12674  0.54574  0.51761  1.0000
  H   H306      1.0  0.27263  0.57902  0.69916  1.0000
  C   C369      1.0  0.24855  0.78206  0.53622  1.0000
  Fe  Fe23      1.0  0.29108  0.87731  0.50632  1.0000
  C   C370      1.0  0.21015  0.75911  0.52015  1.0000
  C   C371      1.0  0.22974  0.75881  0.52972  1.0000
  H   H307      1.0  0.15997  0.55265  0.61908  1.0000
  C   C372      1.0  0.28633  0.59938  0.69775  1.0000
  S   S50       1.0  0.30322  0.89706  0.52945  1.0000
  C   C373      1.0  0.30914  0.70389  0.73783  1.0000
  C   C374      1.0  0.13348  0.59848  0.49583  1.0000
  H   H308      1.0  0.20913  0.78415  0.67945  1.0000
  Fe  Fe24      1.0  0.28947  0.78938  0.65592  1.0000
  H   H309      1.0  0.19569  0.78404  0.50926  1.0000
  S   S51       1.0  0.24572  0.77104  0.65798  1.0000
  H   H310      1.0  0.28657  0.69422  0.63780  1.0000
  C   C375      1.0  0.28815  0.51079  0.71370  1.0000
  H   H311      1.0  0.11478  0.68006  0.51710  1.0000
  S   S52       1.0  0.31412  0.83188  0.66165  1.0000
  S   S53       1.0  0.30795  0.79072  0.63338  1.0000
  Fe  Fe25      1.0  0.21610  0.58641  0.63912  1.0000
  S   S54       1.0  0.18497  0.58247  0.65583  1.0000
  S   S55       1.0  0.21510  0.56520  0.61701  1.0000
  Fe  Fe26      1.0  0.25806  0.63065  0.65707  1.0000
  S   S56       1.0  0.23098  0.63123  0.67511  1.0000
  S   S57       1.0  0.29907  0.66172  0.65829  1.0000
  Fe  Fe27      1.0  0.21445  0.58775  0.67432  1.0000
  S   S58       1.0  0.20669  0.56414  0.69610  1.0000
  Fe  Fe28      1.0  0.20390  0.62626  0.65568  1.0000
  S   S59       1.0  0.17998  0.64821  0.65538  1.0000
  S   S60       1.0  0.24399  0.58751  0.65761  1.0000
  S   S61       1.0  0.23261  0.62995  0.63763  1.0000
  C   C376      1.0  0.20417  0.57753  0.71390  1.0000
  C   C377      1.0  0.20039  0.56276  0.72715  1.0000
  H   H312      1.0  0.12594  0.57732  0.66206  1.0000
  C   C378      1.0  0.20238  0.61220  0.72923  1.0000
  C   C379      1.0  0.20531  0.60236  0.71503  1.0000
  H   H313      1.0  0.19935  0.54348  0.72640  1.0000
  H   H314      1.0  0.20794  0.61366  0.70489  1.0000
  C   C380      1.0  0.22858  0.73690  0.65607  1.0000
  C   C381      1.0  0.24129  0.72094  0.65595  1.0000
  C   C382      1.0  0.22657  0.69356  0.65542  1.0000
  C   C383      1.0  0.19921  0.68225  0.65483  1.0000
  C   C384      1.0  0.18670  0.69830  0.65456  1.0000
  C   C385      1.0  0.20131  0.72548  0.65524  1.0000
  H   H315      1.0  0.26237  0.72962  0.65664  1.0000
  H   H316      1.0  0.23639  0.68128  0.65576  1.0000
  H   H317      1.0  0.16562  0.68969  0.65415  1.0000
  H   H318      1.0  0.19142  0.73772  0.65532  1.0000
  C   C386      1.0  0.32035  0.65206  0.69355  1.0000
  H   H319      1.0  0.15267  0.60614  0.70701  1.0000
  H   H320      1.0  0.30585  0.52554  0.69216  1.0000
  C   C387      1.0  0.19780  0.57273  0.74141  1.0000
  H   H321      1.0  0.23056  0.74068  0.53204  1.0000
  H   H322      1.0  0.28875  0.60867  0.57955  1.0000
  P   P13       1.0  0.32444  0.58235  0.69347  1.0000
  C   C388      1.0  0.31742  0.56875  0.67440  1.0000
  H   H323      1.0  0.23826  0.75266  0.49767  1.0000
  H   H324      1.0  0.06694  0.53647  0.61084  1.0000
  C   C389      1.0  0.26230  0.67842  0.73935  1.0000
  H   H325      1.0  0.12314  0.53079  0.60062  1.0000
  C   C390      1.0  0.32218  0.72134  0.67947  1.0000
  C   C391      1.0  0.00245  0.60603  0.49868  1.0000
  C   C392      1.0  0.20480  0.72039  0.73589  1.0000
  Fe  Fe29      1.0  0.32215  0.87052  0.53292  1.0000
  H   H326      1.0  0.25081  0.77389  0.62297  1.0000
  C   C393      1.0  0.08834  0.63921  0.51848  1.0000
  C   C394      1.0  0.09322  0.66551  0.49620  1.0000
  C   C395      1.0  0.14737  0.52870  0.58261  1.0000
  C   C396      1.0  0.17288  0.53459  0.57837  1.0000
  C   C397      1.0  0.19351  0.54623  0.58896  1.0000
  C   C398      1.0  0.18895  0.55272  0.60372  1.0000
  C   C399      1.0  0.16359  0.54772  0.60777  1.0000
  H   H327      1.0  0.22844  0.82452  0.52116  1.0000
  C   C400      1.0  0.32592  0.76432  0.60055  1.0000
  C   C401      1.0  0.18576  0.51910  0.66385  1.0000
  C   C402      1.0  0.18870  0.51445  0.64854  1.0000
  C   C403      1.0  0.23056  0.77962  0.69839  1.0000
  C   C404      1.0  0.16321  0.52049  0.66868  1.0000
  C   C405      1.0  0.01901  0.52123  0.50689  1.0000
  P   P14       1.0  0.18590  0.72910  0.51175  1.0000
  H   H328      1.0  0.24704  0.52991  0.50437  1.0000
  C   C406      1.0  0.09938  0.52729  0.64787  1.0000
  H   H329      1.0  0.30689  0.81300  0.72405  1.0000
  C   C407      1.0  0.07587  0.53411  0.62124  1.0000
  H   H330      1.0  0.08381  0.53999  0.50250  1.0000
  C   C408      1.0  0.32925  0.63623  0.58284  1.0000
  C   C409      1.0  0.30316  0.62252  0.58728  1.0000
  C   C410      1.0  0.16077  0.65794  0.53268  1.0000
  H   H331      1.0  0.25624  0.61186  0.69957  1.0000
  H   H332      1.0  0.30589  0.58256  0.72446  1.0000
  C   C411      1.0  0.13097  0.62136  0.49322  1.0000
  C   C412      1.0  0.11434  0.74144  0.49801  1.0000
  C   C413      1.0  0.17415  0.70945  0.54123  1.0000
  C   C414      1.0  0.16561  0.68977  0.55216  1.0000
  C   C415      1.0  0.07266  0.51161  0.64498  1.0000
  H   H333      1.0  0.20654  0.51425  0.64468  1.0000
  H   H334      1.0  0.17317  0.77591  0.72314  1.0000
  C   C416      1.0  0.31297  0.60695  0.69527  1.0000
  H   H335      1.0  0.24276  0.67375  0.73558  1.0000
  C   C417      1.0  0.10018  0.66326  0.51117  1.0000
  S   S62       1.0  0.31417  0.84144  0.55215  1.0000
  C   C418      1.0  0.11861  0.73766  0.51326  1.0000
  C   C419      1.0  0.14040  0.73414  0.51746  1.0000
  Fe  Fe30      1.0  0.15160  0.50842  0.51465  1.0000
  H   H336      1.0  0.06067  0.59890  0.51667  1.0000
  C   C420      1.0  0.32041  0.51270  0.50178  1.0000
  H   H337      1.0  0.12725  0.63135  0.50264  1.0000
  C   C421      1.0  0.15876  0.66400  0.54787  1.0000
  C   C422      1.0  0.23096  0.77593  0.71407  1.0000
  H   H338      1.0  0.01858  0.62068  0.50510  1.0000
  H   H339      1.0  0.14529  0.56210  0.71506  1.0000
  H   H340      1.0  0.09389  0.63738  0.53004  1.0000
  C   C423      1.0  0.31430  0.64352  0.61199  1.0000
  H   H341      1.0  0.20126  0.52239  0.67196  1.0000
  H   H342      1.0  0.16411  0.69445  0.56396  1.0000
  C   C424      1.0  0.04288  0.52028  0.50773  1.0000
  S   S63       1.0  0.12203  0.51482  0.50030  1.0000
  H   H343      1.0  0.30844  0.64625  0.62330  1.0000
  C   C425      1.0  0.19913  0.72100  0.49499  1.0000
  C   C426      1.0  0.19894  0.59758  0.74252  1.0000
  C   C427      1.0  0.23784  0.51687  0.49486  1.0000
  H   H344      1.0  0.10503  0.73755  0.52183  1.0000
  H   H345      1.0  0.14346  0.73151  0.52933  1.0000
  C   C428      1.0  0.27687  0.61797  0.69799  1.0000
  H   H346      1.0  0.29898  0.61332  0.64798  1.0000
  C   C429      1.0  0.21055  0.77485  0.72324  1.0000
  H   H347      1.0  0.24225  0.66451  0.70952  1.0000
  H   H348      1.0  0.11390  0.56480  0.61599  1.0000
  C   C430      1.0  0.17605  0.70354  0.52587  1.0000
  C   C431      1.0  0.29422  0.56491  0.66696  1.0000
  C   C432      1.0  0.28857  0.55416  0.65229  1.0000
  C   C433      1.0  0.20939  0.78153  0.69166  1.0000
  H   H349      1.0  0.99905  0.54305  0.49974  1.0000
  H   H350      1.0  0.17095  0.67210  0.51017  1.0000
  S   S64       1.0  0.09411  0.51848  0.53227  1.0000
  H   H351      1.0  0.28052  0.57041  0.67236  1.0000
  H   H352      1.0  0.27092  0.55187  0.64650  1.0000
  C   C434      1.0  0.32989  0.63349  0.69307  1.0000
  C   C435      1.0  0.30098  0.56259  0.72133  1.0000
  C   C436      1.0  0.30402  0.69637  0.60076  1.0000
  H   H353      1.0  0.15204  0.64868  0.55630  1.0000
  C   C437      1.0  0.30601  0.69657  0.61661  1.0000
  H   H354      1.0  0.26385  0.78206  0.54352  1.0000
  C   C438      1.0  0.29386  0.64430  0.69597  1.0000
  C   C439      1.0  0.30631  0.72773  0.70396  1.0000
  C   C440      1.0  0.30203  0.71412  0.69007  1.0000
  P   P15       1.0  0.28060  0.71855  0.71789  1.0000
  C   C441      1.0  0.22865  0.80611  0.52362  1.0000
  C   C442      1.0  0.28442  0.74743  0.72838  1.0000
  C   C443      1.0  0.14284  0.53537  0.59733  1.0000
  C   C444      1.0  0.01746  0.54234  0.49988  1.0000
  C   C445      1.0  0.20998  0.78301  0.51698  1.0000
  C   C446      1.0  0.29961  0.79435  0.72966  1.0000
  C   C447      1.0  0.29383  0.77172  0.72115  1.0000
  S   S65       1.0  0.31490  0.77580  0.66857  1.0000
  S   S66       1.0  0.12955  0.58611  0.51440  1.0000
  H   H355      1.0  0.26257  0.82373  0.53815  1.0000
  H   H356      1.0  0.32381  0.69860  0.62212  1.0000
  C   C448      1.0  0.24953  0.70496  0.70796  1.0000
  C   C449      1.0  0.23485  0.67790  0.70578  1.0000
  C   C450      1.0  0.21055  0.66793  0.69839  1.0000
  C   C451      1.0  0.20118  0.68481  0.69269  1.0000
  C   C452      1.0  0.21629  0.71173  0.69409  1.0000
  C   C453      1.0  0.24043  0.72175  0.70158  1.0000
  C   C454      1.0  0.24792  0.80566  0.53320  1.0000
  H   H357      1.0  0.28854  0.74837  0.58939  1.0000
  C   C455      1.0  0.06305  0.61932  0.49559  1.0000
  H   H358      1.0  0.01776  0.52324  0.56391  1.0000
  H   H359      1.0  0.28311  0.69839  0.68716  1.0000
  H   H360      1.0  0.07293  0.51046  0.68571  1.0000
  C   C456      1.0  0.32256  0.84889  0.57160  1.0000
  H   H361      1.0  0.24735  0.77434  0.71916  1.0000
  C   C457      1.0  0.10231  0.55008  0.62415  1.0000
  H   H362      1.0  0.29740  0.77341  0.70901  1.0000
  H   H363      1.0  0.31417  0.64881  0.72830  1.0000
  H   H364      1.0  0.19916  0.64714  0.69662  1.0000
  H   H365      1.0  0.19741  0.72314  0.72505  1.0000
  C   C458      1.0  0.18875  0.78010  0.70066  1.0000
  H   H366      1.0  0.28973  0.85740  0.74233  1.0000
  H   H367      1.0  0.18272  0.67703  0.68659  1.0000
  H   H368      1.0  0.20964  0.72484  0.68894  1.0000
  H   H369      1.0  0.25225  0.74260  0.70200  1.0000
  C   C459      1.0  0.15789  0.73397  0.50638  1.0000
  C   C460      1.0  0.04204  0.50364  0.56193  1.0000
  C   C461      1.0  0.06519  0.54050  0.50171  1.0000
  C   C462      1.0  0.31885  0.62777  0.64999  1.0000
  C   C463      1.0  0.29566  0.62629  0.60183  1.0000
  H   H370      1.0  0.26652  0.62129  0.72837  1.0000
  C   C464      1.0  0.18931  0.77685  0.71641  1.0000
  H   H371      1.0  0.17908  0.72927  0.54476  1.0000
  C   C465      1.0  0.27899  0.61713  0.73604  1.0000
  C   C466      1.0  0.14625  0.51198  0.64292  1.0000
  H   H372      1.0  0.27547  0.61554  0.60535  1.0000
  C   C467      1.0  0.28181  0.51686  0.72802  1.0000
  C   C468      1.0  0.16952  0.67758  0.52175  1.0000
  H   H373      1.0  0.28638  0.65858  0.69574  1.0000
  H   H374      1.0  0.24662  0.78095  0.69136  1.0000
  H   H375      1.0  0.19588  0.68048  0.73054  1.0000
  C   C469      1.0  0.30601  0.63283  0.73618  1.0000
  Fe  Fe31      1.0  0.12487  0.51167  0.54456  1.0000
  H   H376      1.0  0.14304  0.61351  0.68037  1.0000
  C   C470      1.0  0.24521  0.69921  0.54816  1.0000
  C   C471      1.0  0.22835  0.67443  0.54253  1.0000
  C   C472      1.0  0.21254  0.65494  0.55251  1.0000
  C   C473      1.0  0.21323  0.66027  0.56810  1.0000
  C   C474      1.0  0.22998  0.68519  0.57388  1.0000
  C   C475      1.0  0.24616  0.70454  0.56376  1.0000
  P   P16       1.0  0.23142  0.69250  0.59407  1.0000
  C   C476      1.0  0.20377  0.66762  0.60369  1.0000
  C   C477      1.0  0.26025  0.69278  0.60269  1.0000
  C   C478      1.0  0.26204  0.69181  0.61860  1.0000
  C   C479      1.0  0.28496  0.69411  0.62550  1.0000
  C   C480      1.0  0.30732  0.55663  0.70688  1.0000
  H   H377      1.0  0.17238  0.78165  0.69539  1.0000
  C   C481      1.0  0.28124  0.69450  0.59379  1.0000
  C   C482      1.0  0.18389  0.67291  0.60955  1.0000
  C   C483      1.0  0.16296  0.65353  0.61728  1.0000
  C   C484      1.0  0.16167  0.62877  0.61913  1.0000
  C   C485      1.0  0.18137  0.62337  0.61332  1.0000
  C   C486      1.0  0.20248  0.64278  0.60575  1.0000
  C   C487      1.0  0.23189  0.72409  0.59696  1.0000
  C   C488      1.0  0.22213  0.73470  0.58565  1.0000
  C   C489      1.0  0.22365  0.75961  0.58755  1.0000
  C   C490      1.0  0.23427  0.77384  0.60091  1.0000
  C   C491      1.0  0.24307  0.76306  0.61245  1.0000
  C   C492      1.0  0.24195  0.73836  0.61051  1.0000
  H   H378      1.0  0.25761  0.71426  0.54042  1.0000
  H   H379      1.0  0.22753  0.67023  0.53044  1.0000
  H   H380      1.0  0.19956  0.63565  0.54813  1.0000
  H   H381      1.0  0.20056  0.64480  0.57547  1.0000
  H   H382      1.0  0.25943  0.72380  0.56794  1.0000
  H   H383      1.0  0.24585  0.68965  0.62574  1.0000
  H   H384      1.0  0.30687  0.76694  0.56419  1.0000
  C   C493      1.0  0.28828  0.54274  0.73184  1.0000
  C   C494      1.0  0.06964  0.61735  0.51078  1.0000
  H   H385      1.0  0.28034  0.69471  0.58153  1.0000
  H   H386      1.0  0.18472  0.69207  0.60854  1.0000
  H   H387      1.0  0.14820  0.65795  0.62235  1.0000
  H   H388      1.0  0.14595  0.61414  0.62560  1.0000
  H   H389      1.0  0.18078  0.60440  0.61505  1.0000
  H   H390      1.0  0.21793  0.63844  0.60166  1.0000
  H   H391      1.0  0.21343  0.72391  0.57532  1.0000
  H   H392      1.0  0.21665  0.76799  0.57868  1.0000
  H   H393      1.0  0.23558  0.79319  0.60241  1.0000
  H   H394      1.0  0.15555  0.63792  0.52934  1.0000
  H   H395      1.0  0.24895  0.73073  0.61971  1.0000
  C   C495      1.0  0.30596  0.54696  0.64496  1.0000
  C   C496      1.0  0.31970  0.77018  0.57389  1.0000
  P   P17       1.0  0.11531  0.52157  0.66427  1.0000
  C   C497      1.0  0.12590  0.54833  0.67791  1.0000
  C   C498      1.0  0.30937  0.75972  0.58802  1.0000
  H   H396      1.0  0.00180  0.50555  0.51169  1.0000
  H   H397      1.0  0.32633  0.71878  0.73258  1.0000
  C   C499      1.0  0.28418  0.69739  0.73191  1.0000
  H   H398      1.0  0.31492  0.81675  0.60520  1.0000
  H   H399      1.0  0.16166  0.52448  0.68055  1.0000
  C   C500      1.0  0.13115  0.54439  0.69306  1.0000
  C   C501      1.0  0.14056  0.56513  0.70351  1.0000
  C   C502      1.0  0.14480  0.59001  0.69897  1.0000
  C   C503      1.0  0.13932  0.59410  0.68400  1.0000
  C   C504      1.0  0.12967  0.57334  0.67355  1.0000
  C   C505      1.0  0.06102  0.51498  0.63168  1.0000
  H   H400      1.0  0.30180  0.53911  0.63348  1.0000
  H   H401      1.0  0.25430  0.81895  0.73051  1.0000
  H   H402      1.0  0.20269  0.63118  0.72992  1.0000
  H   H403      1.0  0.17659  0.52940  0.56710  1.0000
  C   C506      1.0  0.11403  0.54665  0.63736  1.0000
  H   H404      1.0  0.12859  0.52543  0.69679  1.0000
  H   H405      1.0  0.21305  0.54994  0.58574  1.0000
  C   C507      1.0  0.32893  0.55035  0.65234  1.0000
  S   S67       1.0  0.24942  0.86016  0.49658  1.0000
  C   C508      1.0  0.31406  0.82828  0.58201  1.0000
  H   H406      1.0  0.05696  0.51912  0.55544  1.0000
  H   H407      1.0  0.31871  0.71180  0.66846  1.0000
  C   C509      1.0  0.06371  0.56174  0.49491  1.0000
  H   H408      1.0  0.30167  0.80862  0.57812  1.0000
  C   C510      1.0  0.14358  0.51775  0.65819  1.0000
  C   C511      1.0  0.16880  0.51052  0.63813  1.0000
  H   H409      1.0  0.09740  0.74403  0.49470  1.0000
  C   C512      1.0  0.30095  0.53060  0.70316  1.0000
  C   C513      1.0  0.03976  0.56266  0.49361  1.0000
  H   H410      1.0  0.32139  0.52956  0.49575  1.0000
  H   H411      1.0  0.31793  0.75592  0.61148  1.0000
  C   C514      1.0  0.32405  0.65277  0.65515  1.0000
  H   H412      1.0  0.04052  0.50256  0.62938  1.0000
  H   H413      1.0  0.17128  0.50720  0.62622  1.0000
  S   S68       1.0  0.32720  0.90749  0.49493  1.0000
  C   C515      1.0  0.02003  0.50602  0.56679  1.0000
  C   C516      1.0  0.21040  0.50510  0.49342  1.0000
  C   C517      1.0  0.20364  0.69598  0.73899  1.0000
  H   H414      1.0  0.13135  0.50918  0.63457  1.0000
  H   H415      1.0  0.04415  0.50389  0.51302  1.0000
  H   H416      1.0  0.27185  0.50152  0.73619  1.0000
  H   H417      1.0  0.32021  0.69793  0.59389  1.0000
  C   C518      1.0  0.26588  0.56191  0.84202  1.0000
  H   H418      1.0  0.31611  0.57351  0.92728  1.0000
  C   C519      1.0  0.29623  0.95230  0.95678  1.0000
  H   H419      1.0  0.30009  0.53412  0.79518  1.0000
  C   C520      1.0  0.28663  0.76908  0.75267  1.0000
  Fe  Fe32      1.0  0.31947  0.81679  0.80030  1.0000
  S   S69       1.0  0.27988  0.78228  0.80123  1.0000
  H   H420      1.0  0.19605  0.96374  0.93981  1.0000
  S   S70       1.0  0.32271  0.85705  0.79806  1.0000
  C   C521      1.0  0.30131  0.58997  0.95455  1.0000
  P   P18       1.0  0.21195  0.77058  0.74355  1.0000
  Fe  Fe33      1.0  0.25772  0.63927  0.80248  1.0000
  S   S71       1.0  0.25279  0.60718  0.81850  1.0000
  S   S72       1.0  0.29211  0.67854  0.80503  1.0000
  Fe  Fe34      1.0  0.21230  0.60443  0.78206  1.0000
  S   S73       1.0  0.20242  0.56908  0.79676  1.0000
  S   S74       1.0  0.19419  0.61008  0.76010  1.0000
  Fe  Fe35      1.0  0.21009  0.59614  0.81703  1.0000
  S   S75       1.0  0.18680  0.59065  0.83886  1.0000
  Fe  Fe36      1.0  0.24596  0.58294  0.79745  1.0000
  S   S76       1.0  0.26452  0.55612  0.79431  1.0000
  S   S77       1.0  0.21562  0.63028  0.80223  1.0000
  S   S78       1.0  0.25508  0.61597  0.78153  1.0000
  P   P19       1.0  0.18908  0.70192  0.93870  1.0000
  S   S79       1.0  0.30881  0.90443  0.93653  1.0000
  C   C522      1.0  0.31211  0.69271  0.75132  1.0000
  Fe  Fe37      1.0  0.31437  0.88032  0.95509  1.0000
  S   S80       1.0  0.28785  0.86024  0.97531  1.0000
  C   C523      1.0  0.30890  0.65882  0.84024  1.0000
  Fe  Fe38      1.0  0.16623  0.52598  0.91971  1.0000
  S   S81       1.0  0.18616  0.52520  0.89740  1.0000
  Fe  Fe39      1.0  0.15065  0.55816  0.94104  1.0000
  H   H421      1.0  0.20442  0.63892  0.89307  1.0000
  S   S82       1.0  0.14501  0.59447  0.94265  1.0000
  C   C524      1.0  0.29850  0.57074  0.79758  1.0000
  C   C525      1.0  0.20156  0.65104  0.90167  1.0000
  S   S83       1.0  0.18838  0.55584  0.93776  1.0000
  S   S84       1.0  0.12993  0.53128  0.92166  1.0000
  H   H422      1.0  0.31534  0.53228  0.91851  1.0000
  H   H423      1.0  0.02031  0.49834  0.90179  1.0000
  H   H424      1.0  0.23049  0.68713  0.89250  1.0000
  C   C526      1.0  0.06527  0.53379  0.92508  1.0000
  C   C527      1.0  0.27907  0.84388  0.76516  1.0000
  P   P20       1.0  0.28153  0.96561  0.92901  1.0000
  C   C528      1.0  0.32893  0.81669  0.98401  1.0000
  S   S85       1.0  0.18119  0.75542  0.98441  1.0000
  C   C529      1.0  0.15791  0.59706  0.97292  1.0000
  C   C530      1.0  0.14813  0.60678  0.96128  1.0000
  C   C531      1.0  0.14103  0.62670  0.96450  1.0000
  C   C532      1.0  0.10997  0.67078  0.93136  1.0000
  H   H425      1.0  0.16377  0.58195  0.97049  1.0000
  H   H426      1.0  0.13359  0.63441  0.95553  1.0000
  C   C533      1.0  0.27354  0.62018  0.85909  1.0000
  H   H427      1.0  0.17026  0.56650  0.89258  1.0000
  H   H428      1.0  0.09779  0.53272  0.89605  1.0000
  C   C534      1.0  0.25852  0.83062  0.97751  1.0000
  C   C535      1.0  0.24403  0.81565  0.96509  1.0000
  H   H429      1.0  0.26467  0.90340  0.88622  1.0000
  C   C536      1.0  0.22696  0.52140  0.97740  1.0000
  C   C537      1.0  0.14329  0.63655  0.97939  1.0000
  C   C538      1.0  0.18955  0.57429  0.85536  1.0000
  C   C539      1.0  0.20024  0.55664  0.85494  1.0000
  C   C540      1.0  0.19967  0.54219  0.86800  1.0000
  C   C541      1.0  0.18845  0.54528  0.88160  1.0000
  C   C542      1.0  0.17869  0.56368  0.88217  1.0000
  C   C543      1.0  0.17938  0.57813  0.86913  1.0000
  H   H430      1.0  0.20800  0.55340  0.84439  1.0000
  H   H431      1.0  0.20737  0.52810  0.86745  1.0000
  C   C544      1.0  0.27054  0.91191  0.96997  1.0000
  C   C545      1.0  0.16026  0.60699  0.98776  1.0000
  H   H432      1.0  0.29488  0.86101  0.77021  1.0000
  H   H433      1.0  0.16857  0.73671  0.92601  1.0000
  C   C546      1.0  0.29093  0.94984  0.91411  1.0000
  H   H434      1.0  0.26424  0.82540  0.78662  1.0000
  H   H435      1.0  0.17185  0.59230  0.86967  1.0000
  C   C547      1.0  0.27539  0.52004  0.98297  1.0000
  C   C548      1.0  0.10729  0.54883  0.87348  1.0000
  C   C549      1.0  0.28925  0.63041  0.94640  1.0000
  C   C550      1.0  0.08266  0.50300  0.98415  1.0000
  C   C551      1.0  0.31713  0.95490  0.91263  1.0000
  C   C552      1.0  0.27591  0.58704  0.95631  1.0000
  H   H436      1.0  0.29891  0.51711  0.83399  1.0000
  C   C553      1.0  0.28304  0.75329  0.80162  1.0000
  C   C554      1.0  0.30780  0.75416  0.80198  1.0000
  C   C555      1.0  0.31024  0.73097  0.80284  1.0000
  C   C556      1.0  0.28800  0.70685  0.80315  1.0000
  C   C557      1.0  0.26321  0.70590  0.80252  1.0000
  C   C558      1.0  0.26074  0.72917  0.80185  1.0000
  H   H437      1.0  0.11536  0.57554  0.90914  1.0000
  H   H438      1.0  0.29268  0.66592  0.76934  1.0000
  H   H439      1.0  0.24599  0.68735  0.80288  1.0000
  H   H440      1.0  0.24159  0.72851  0.80171  1.0000
  C   C559      1.0  0.11864  0.68969  0.95665  1.0000
  C   C560      1.0  0.32079  0.61299  0.94837  1.0000
  C   C561      1.0  0.12612  0.59621  0.87251  1.0000
  H   H441      1.0  0.19002  0.78287  0.91850  1.0000
  C   C562      1.0  0.28342  0.59148  0.75652  1.0000
  H   H442      1.0  0.30849  0.94072  0.97738  1.0000
  H   H443      1.0  0.27457  0.57572  0.76455  1.0000
  C   C563      1.0  0.20442  0.73590  0.93330  1.0000
  C   C564      1.0  0.27609  0.84184  0.74938  1.0000
  C   C565      1.0  0.13926  0.74143  0.76260  1.0000
  H   H444      1.0  0.15852  0.70767  0.96402  1.0000
  C   C566      1.0  0.21628  0.67817  0.90139  1.0000
  C   C567      1.0  0.25125  0.90473  0.95871  1.0000
  C   C568      1.0  0.25437  0.92138  0.94649  1.0000
  C   C569      1.0  0.27668  0.94556  0.94559  1.0000
  C   C570      1.0  0.12698  0.53288  0.82146  1.0000
  C   C571      1.0  0.20318  0.67516  0.96070  1.0000
  H   H445      1.0  0.09702  0.53824  0.83316  1.0000
  H   H446      1.0  0.30259  0.81092  0.75207  1.0000
  C   C572      1.0  0.22865  0.78850  0.92454  1.0000
  C   C573      1.0  0.20997  0.71866  0.96768  1.0000
  H   H447      1.0  0.30571  0.57427  0.95813  1.0000
  H   H448      1.0  0.32177  0.60390  0.76567  1.0000
  H   H449      1.0  0.20924  0.78166  0.95777  1.0000
  C   C574      1.0  0.13363  0.51079  0.84839  1.0000
  C   C575      1.0  0.24829  0.97426  0.90918  1.0000
  P   P21       1.0  0.30434  0.59418  0.86254  1.0000
  C   C576      1.0  0.31306  0.59764  0.80033  1.0000
  C   C577      1.0  0.01974  0.50973  0.86181  1.0000
  H   H450      1.0  0.23047  0.51001  0.95450  1.0000
  H   H451      1.0  0.23419  0.88595  0.95929  1.0000
  C   C578      1.0  0.11448  0.51973  0.84762  1.0000
  S   S86       1.0  0.31273  0.86549  0.89907  1.0000
  H   H452      1.0  0.20896  0.73660  0.96509  1.0000
  H   H453      1.0  0.28447  0.61252  0.91461  1.0000
  C   C579      1.0  0.18313  0.63950  0.91306  1.0000
  C   C580      1.0  0.14905  0.51264  0.83575  1.0000
  C   C581      1.0  0.21464  0.74061  0.74683  1.0000
  C   C582      1.0  0.11131  0.53081  0.83402  1.0000
  C   C583      1.0  0.06802  0.53558  0.97772  1.0000
  H   H454      1.0  0.19469  0.56109  0.75153  1.0000
  C   C584      1.0  0.12556  0.59748  0.88837  1.0000
  H   H455      1.0  0.24841  0.65231  0.75838  1.0000
  C   C585      1.0  0.24927  0.82216  0.99228  1.0000
  H   H456      1.0  0.15820  0.52570  0.81267  1.0000
  C   C586      1.0  0.22322  0.73576  0.76094  1.0000
  H   H457      1.0  0.00789  0.55906  0.98396  1.0000
  C   C587      1.0  0.21136  0.78420  0.98224  1.0000
  C   C588      1.0  0.20245  0.69855  0.95678  1.0000
  H   H458      1.0  0.30263  0.83817  0.87051  1.0000
  H   H459      1.0  0.26450  0.78852  0.93171  1.0000
  H   H460      1.0  0.17185  0.61843  0.91344  1.0000
  H   H461      1.0  0.27278  0.50883  0.95933  1.0000
  C   C589      1.0  0.31120  0.55486  0.79728  1.0000
  C   C590      1.0  0.21727  0.71521  0.98236  1.0000
  C   C591      1.0  0.22564  0.97641  0.90531  1.0000
  C   C592      1.0  0.32190  0.62810  0.74668  1.0000
  H   H462      1.0  0.23961  0.91516  0.93761  1.0000
  H   H463      1.0  0.22860  0.70769  0.77490  1.0000
  C   C593      1.0  0.27196  0.93096  0.90463  1.0000
  H   H464      1.0  0.05325  0.52913  0.87634  1.0000
  H   H465      1.0  0.16356  0.72550  0.75326  1.0000
  H   H466      1.0  0.30734  0.62439  0.88994  1.0000
  H   H467      1.0  0.26053  0.76980  0.96798  1.0000
  C   C594      1.0  0.29028  0.67409  0.75869  1.0000
  C   C595      1.0  0.26726  0.63914  0.85302  1.0000
  H   H468      1.0  0.13775  0.65184  0.98177  1.0000
  H   H469      1.0  0.22429  0.71468  0.91207  1.0000
  C   C596      1.0  0.11556  0.57453  0.89680  1.0000
  H   H470      1.0  0.28429  0.76822  0.76494  1.0000
  C   C597      1.0  0.32979  0.87373  0.88161  1.0000
  C   C598      1.0  0.23885  0.79905  0.75187  1.0000
  H   H471      1.0  0.28455  0.64615  0.94347  1.0000
  C   C599      1.0  0.00691  0.50428  0.98572  1.0000
  C   C600      1.0  0.11712  0.57202  0.86508  1.0000
  H   H472      1.0  0.07023  0.52200  0.94732  1.0000
  C   C601      1.0  0.21268  0.69376  0.91257  1.0000
  H   H473      1.0  0.21054  0.67223  0.75567  1.0000
  C   C602      1.0  0.32529  0.81198  0.96837  1.0000
  H   H474      1.0  0.26094  0.56926  0.96110  1.0000
  H   H475      1.0  0.24339  0.74212  0.93949  1.0000
  C   C603      1.0  0.30078  0.55003  0.84688  1.0000
  C   C604      1.0  0.22054  0.79275  0.96746  1.0000
  C   C605      1.0  0.25808  0.55254  0.89784  1.0000
  C   C606      1.0  0.26304  0.57178  0.90893  1.0000
  C   C607      1.0  0.27115  0.55900  0.88394  1.0000
  H   H476      1.0  0.25068  0.82196  0.95368  1.0000
  C   C608      1.0  0.28920  0.58493  0.88098  1.0000
  H   H477      1.0  0.08033  0.67043  0.94653  1.0000
  C   C609      1.0  0.10097  0.67629  0.94500  1.0000
  H   H478      1.0  0.13304  0.61623  0.89413  1.0000
  H   H479      1.0  0.27276  0.72797  0.75019  1.0000
  C   C610      1.0  0.31025  0.60745  0.75700  1.0000
  H   H480      1.0  0.24336  0.53271  0.89984  1.0000
  H   H481      1.0  0.25235  0.56671  0.91953  1.0000
  H   H482      1.0  0.26831  0.89874  0.97927  1.0000
  S   S87       1.0  0.13552  0.52705  0.95862  1.0000
  H   H483      1.0  0.32510  0.77270  0.80191  1.0000
  H   H484      1.0  0.18920  0.97415  0.91331  1.0000
  H   H485      1.0  0.24702  0.58414  0.74600  1.0000
  H   H486      1.0  0.25640  0.57421  0.84392  1.0000
  H   H487      1.0  0.23700  0.53810  0.82552  1.0000
  H   H488      1.0  0.11845  0.57169  0.85283  1.0000
  H   H489      1.0  0.00776  0.51627  0.86835  1.0000
  H   H490      1.0  0.15494  0.80605  0.76511  1.0000
  C   C611      1.0  0.23950  0.51494  0.96565  1.0000
  H   H491      1.0  0.08901  0.63977  0.97398  1.0000
  C   C612      1.0  0.07120  0.62210  0.97593  1.0000
  H   H492      1.0  0.31109  0.91362  0.88321  1.0000
  C   C613      1.0  0.26981  0.60714  0.95214  1.0000
  C   C614      1.0  0.28112  0.59757  0.90613  1.0000
  H   H493      1.0  0.25821  0.50972  0.82026  1.0000
  H   H494      1.0  0.21007  0.65329  0.97851  1.0000
  C   C615      1.0  0.29405  0.60418  0.89219  1.0000
  H   H495      1.0  0.23606  0.96025  0.94682  1.0000
  H   H496      1.0  0.09627  0.66062  0.92227  1.0000
  H   H497      1.0  0.26643  0.54380  0.87543  1.0000
  H   H498      1.0  0.25147  0.92580  0.90600  1.0000
  C   C616      1.0  0.14579  0.52373  0.82232  1.0000
  C   C617      1.0  0.29310  0.93561  0.96896  1.0000
  C   C618      1.0  0.10601  0.55029  0.88937  1.0000
  C   C619      1.0  0.18952  0.74764  0.92731  1.0000
  C   C620      1.0  0.17927  0.65506  0.92410  1.0000
  H   H499      1.0  0.32480  0.81867  0.90015  1.0000
  C   C621      1.0  0.30817  0.74206  0.84188  1.0000
  C   C622      1.0  0.27931  0.91814  0.89345  1.0000
  C   C623      1.0  0.26540  0.66658  0.75255  1.0000
  C   C624      1.0  0.32167  0.73218  0.85098  1.0000
  C   C625      1.0  0.01224  0.51762  0.97183  1.0000
  C   C626      1.0  0.24360  0.77699  0.93049  1.0000
  C   C627      1.0  0.15273  0.62656  0.99108  1.0000
  C   C628      1.0  0.28953  0.52942  0.83641  1.0000
  C   C629      1.0  0.02563  0.57643  0.98162  1.0000
  H   H500      1.0  0.13422  0.61400  0.86593  1.0000
  Fe  Fe40      1.0  0.17196  0.52213  0.95400  1.0000
  C   C630      1.0  0.15450  0.69152  0.94120  1.0000
  H   H501      1.0  0.16469  0.64586  0.93275  1.0000
  C   C631      1.0  0.26352  0.51426  0.96845  1.0000
  C   C632      1.0  0.13664  0.67858  0.92938  1.0000
  C   C633      1.0  0.25456  0.54114  0.83170  1.0000
  C   C634      1.0  0.14527  0.69721  0.95481  1.0000
  H   H502      1.0  0.22788  0.78709  0.77520  1.0000
  S   S88       1.0  0.19589  0.52122  0.97493  1.0000
  H   H503      1.0  0.30642  0.77665  0.83387  1.0000
  H   H504      1.0  0.29110  0.72890  0.83542  1.0000
  C   C635      1.0  0.06125  0.50879  0.85781  1.0000
  C   C636      1.0  0.23157  0.75081  0.93489  1.0000
  C   C637      1.0  0.25200  0.96775  0.92406  1.0000
  C   C638      1.0  0.28336  0.78709  0.98814  1.0000
  H   H505      1.0  0.24823  0.63823  0.85511  1.0000
  C   C639      1.0  0.21195  0.69134  0.75311  1.0000
  C   C640      1.0  0.08876  0.55412  0.98641  1.0000
  C   C641      1.0  0.21737  0.69168  0.98626  1.0000
  P   P22       1.0  0.04448  0.54375  0.96831  1.0000
  H   H506      1.0  0.12499  0.54209  0.81114  1.0000
  C   C642      1.0  0.05009  0.54624  0.94804  1.0000
  H   H507      1.0  0.12363  0.72245  0.76532  1.0000
  H   H508      1.0  0.11911  0.76258  0.77131  1.0000
  C   C643      1.0  0.05621  0.54835  0.91633  1.0000
  C   C644      1.0  0.04424  0.56203  0.92338  1.0000
  C   C645      1.0  0.04107  0.56090  0.93916  1.0000
  C   C646      1.0  0.21067  0.67181  0.97538  1.0000
  C   C647      1.0  0.28934  0.56684  0.84950  1.0000
  C   C648      1.0  0.06942  0.59788  0.97152  1.0000
  C   C649      1.0  0.04681  0.57481  0.97462  1.0000
  H   H509      1.0  0.14324  0.67461  0.91861  1.0000
  H   H510      1.0  0.08574  0.59709  0.96577  1.0000
  C   C650      1.0  0.20163  0.77385  0.92299  1.0000
  C   C651      1.0  0.19410  0.68228  0.92405  1.0000
  H   H511      1.0  0.19701  0.65899  0.95278  1.0000
  H   H512      1.0  0.25005  0.60472  0.95358  1.0000
  C   C652      1.0  0.31472  0.63344  0.94462  1.0000
  H   H513      1.0  0.23085  0.75056  0.76971  1.0000
  H   H514      1.0  0.23801  0.80885  0.92123  1.0000
  C   C653      1.0  0.06262  0.53307  0.94087  1.0000
  H   H515      1.0  0.30338  0.61007  0.80058  1.0000
  C   C654      1.0  0.22195  0.71128  0.76400  1.0000
  H   H516      1.0  0.05854  0.54912  0.90411  1.0000
  H   H517      1.0  0.07438  0.52290  0.91978  1.0000
  H   H518      1.0  0.11176  0.69446  0.96713  1.0000
  C   C655      1.0  0.30554  0.92385  0.89177  1.0000
  C   C656      1.0  0.26652  0.52509  0.82875  1.0000
  C   C657      1.0  0.04558  0.51709  0.86627  1.0000
  C   C658      1.0  0.31987  0.85655  0.86914  1.0000
  C   C659      1.0  0.26182  0.82387  0.77435  1.0000
  H   H519      1.0  0.31857  0.55299  0.85271  1.0000
  C   C660      1.0  0.17967  0.79042  0.75567  1.0000
  C   C661      1.0  0.29750  0.62018  0.85564  1.0000
  H   H520      1.0  0.03730  0.57343  0.91663  1.0000
  H   H521      1.0  0.32354  0.85004  0.84519  1.0000
  C   C662      1.0  0.06509  0.50990  0.97674  1.0000
  H   H522      1.0  0.25916  0.60489  0.86597  1.0000
  H   H523      1.0  0.03138  0.57129  0.94442  1.0000
  H   H524      1.0  0.32964  0.65180  0.94050  1.0000
  H   H525      1.0  0.22169  0.73042  0.99087  1.0000
  C   C663      1.0  0.15689  0.78851  0.76249  1.0000
  C   C664      1.0  0.02719  0.60075  0.98565  1.0000
  C   C665      1.0  0.24154  0.80179  0.76777  1.0000
  C   C666      1.0  0.27977  0.78248  0.97247  1.0000
  C   C667      1.0  0.28487  0.65836  0.84352  1.0000
  H   H526      1.0  0.05150  0.64232  0.98647  1.0000
  H   H527      1.0  0.27956  0.67238  0.83825  1.0000
  H   H528      1.0  0.13251  0.51645  0.88578  1.0000
  Fe  Fe41      1.0  0.11600  0.49946  0.93910  1.0000
  C   C668      1.0  0.31690  0.76898  0.84095  1.0000
  C   C669      1.0  0.26783  0.59628  0.74605  1.0000
  H   H529      1.0  0.31420  0.97012  0.95596  1.0000
  H   H530      1.0  0.26295  0.97775  0.90058  1.0000
  C   C670      1.0  0.30070  0.79495  0.96259  1.0000
  H   H531      1.0  0.29781  0.79177  0.95044  1.0000
  C   C671      1.0  0.20673  0.97244  0.91631  1.0000
  C   C672      1.0  0.13671  0.76403  0.76598  1.0000
  C   C673      1.0  0.05008  0.62355  0.98297  1.0000
  P   P23       1.0  0.09429  0.51744  0.86387  1.0000
  C   C674      1.0  0.32444  0.94214  0.90140  1.0000
  C   C675      1.0  0.23321  0.96437  0.93514  1.0000
  C   C676      1.0  0.31521  0.63979  0.84622  1.0000
  C   C677      1.0  0.18244  0.76781  0.75234  1.0000
  H   H532      1.0  0.32232  0.67347  0.83259  1.0000
  S   S89       1.0  0.30525  0.51793  0.98597  1.0000
  H   H533      1.0  0.19512  0.80955  0.75302  1.0000
  C   C678      1.0  0.16202  0.74326  0.75578  1.0000
  H   H534      1.0  0.31507  0.71135  0.85160  1.0000
  C   C679      1.0  0.21057  0.96652  0.93123  1.0000
  H   H535      1.0  0.32649  0.75061  0.77040  1.0000
  H   H536      1.0  0.32942  0.73171  0.80350  1.0000
  H   H537      1.0  0.09177  0.57405  0.98752  1.0000
  C   C680      1.0  0.23908  0.52762  0.99183  1.0000
  C   C681      1.0  0.28013  0.74625  0.74418  1.0000
  C   C682      1.0  0.29677  0.79315  0.74543  1.0000
  H   H538      1.0  0.01087  0.60197  0.99116  1.0000
  H   H539      1.0  0.13719  0.50276  0.85872  1.0000
  H   H540      1.0  0.22281  0.98130  0.89378  1.0000
  H   H541      1.0  0.16410  0.50616  0.83653  1.0000
  Fe  Fe42      1.0  0.32883  0.88689  0.92140  1.0000
  C   C683      1.0  0.25605  0.81963  0.74274  1.0000
  H   H542      1.0  0.28335  0.54734  0.74297  1.0000
  Fe  Fe43      1.0  0.54463  0.38470  0.16590  1.0000
  S   S90       1.0  0.51059  0.35934  0.15090  1.0000
  S   S91       1.0  0.54292  0.40478  0.18800  1.0000
  Fe  Fe44      1.0  0.58419  0.38455  0.14291  1.0000
  S   S92       1.0  0.55369  0.35869  0.12629  1.0000
  S   S93       1.0  0.62580  0.39706  0.13623  1.0000
  Fe  Fe45      1.0  0.53393  0.38380  0.13132  1.0000
  S   S94       1.0  0.52188  0.40308  0.11241  1.0000
  Fe  Fe46      1.0  0.53343  0.33641  0.14700  1.0000
  S   S95       1.0  0.51367  0.29252  0.14782  1.0000
  S   S96       1.0  0.56609  0.41136  0.14664  1.0000
  S   S97       1.0  0.56567  0.36000  0.16333  1.0000
  S   S98       1.0  0.57628  0.22805  0.16294  1.0000
  C   C684      1.0  0.58244  0.31428  0.99979  1.0000
  S   S99       1.0  0.36898  0.46281  0.02961  1.0000
  C   C685      1.0  0.46821  0.49280  0.04749  1.0000
  C   C686      1.0  0.51412  0.29069  0.18991  1.0000
  H   H543      1.0  0.55078  0.42796  0.21772  1.0000
  S   S100      1.0  0.62262  0.16310  0.01444  1.0000
  Fe  Fe47      1.0  0.45296  0.38378  0.00503  1.0000
  S   S101      1.0  0.47978  0.39978  0.02528  1.0000
  C   C687      1.0  0.49634  0.42317  0.20383  1.0000
  C   C688      1.0  0.62023  0.07593  0.06647  1.0000
  S   S102      1.0  0.50406  0.35983  0.01579  1.0000
  H   H544      1.0  0.53189  0.45196  0.19411  1.0000
  Fe  Fe48      1.0  0.47094  0.35812  0.02965  1.0000
  S   S103      1.0  0.46662  0.33884  0.05257  1.0000
  C   C689      1.0  0.37985  0.36641  0.19575  1.0000
  C   C690      1.0  0.39389  0.36174  0.05881  1.0000
  S   S104      1.0  0.44179  0.34121  0.01035  1.0000
  H   H545      1.0  0.64438  0.36849  0.15459  1.0000
  H   H546      1.0  0.43032  0.35987  0.05616  1.0000
  H   H547      1.0  0.62555  0.21425  0.10820  1.0000
  C   C691      1.0  0.50889  0.45887  0.10145  1.0000
  C   C692      1.0  0.52889  0.07700  0.05484  1.0000
  C   C693      1.0  0.38571  0.44702  0.02013  1.0000
  C   C694      1.0  0.39024  0.42816  0.02804  1.0000
  C   C695      1.0  0.40358  0.41519  0.02126  1.0000
  C   C696      1.0  0.41222  0.42054  0.00623  1.0000
  C   C697      1.0  0.59703  0.44391  0.08041  1.0000
  C   C698      1.0  0.39401  0.45215  0.00504  1.0000
  H   H548      1.0  0.38318  0.42345  0.03950  1.0000
  H   H549      1.0  0.40675  0.40072  0.02758  1.0000
  H   H550      1.0  0.65785  0.49410  0.20269  1.0000
  H   H551      1.0  0.50956  0.20899  0.21806  1.0000
  H   H552      1.0  0.53272  0.35141  0.06420  1.0000
  C   C699      1.0  0.62572  0.08107  0.01021  1.0000
  C   C700      1.0  0.60315  0.07775  0.01787  1.0000
  C   C701      1.0  0.58365  0.05247  0.02126  1.0000
  C   C702      1.0  0.58576  0.02994  0.01654  1.0000
  C   C703      1.0  0.60808  0.03324  0.00854  1.0000
  H   H553      1.0  0.55409  0.24101  0.99747  1.0000
  H   H554      1.0  0.60119  0.09475  0.02158  1.0000
  H   H555      1.0  0.56680  0.05052  0.02754  1.0000
  C   C704      1.0  0.49354  0.02642  0.01233  1.0000
  C   C705      1.0  0.50789  0.38518  0.09555  1.0000
  C   C706      1.0  0.50698  0.39842  0.08232  1.0000
  C   C707      1.0  0.49491  0.38449  0.06896  1.0000
  C   C708      1.0  0.48325  0.35719  0.06882  1.0000
  C   C709      1.0  0.48440  0.34401  0.08199  1.0000
  C   C710      1.0  0.49691  0.35794  0.09526  1.0000
  H   H556      1.0  0.51569  0.41950  0.08237  1.0000
  H   H557      1.0  0.49431  0.39481  0.05884  1.0000
  H   H558      1.0  0.47541  0.32290  0.08197  1.0000
  H   H559      1.0  0.49746  0.34754  0.10538  1.0000
  Fe  Fe49      1.0  0.66049  0.23709  0.13946  1.0000
  C   C711      1.0  0.55864  0.19154  0.01614  1.0000
  C   C712      1.0  0.57946  0.02120  0.06583  1.0000
  H   H560      1.0  0.45969  0.34256  0.16976  1.0000
  Fe  Fe50      1.0  0.65674  0.15436  0.01103  1.0000
  H   H561      1.0  0.48375  0.38791  0.24221  1.0000
  H   H562      1.0  0.62600  0.44338  0.15031  1.0000
  C   C713      1.0  0.53258  0.27626  0.15237  1.0000
  C   C714      1.0  0.52022  0.25202  0.15950  1.0000
  C   C715      1.0  0.53411  0.23793  0.16301  1.0000
  C   C716      1.0  0.56038  0.24754  0.15907  1.0000
  C   C717      1.0  0.57286  0.27168  0.15174  1.0000
  C   C718      1.0  0.55910  0.28633  0.14865  1.0000
  H   H563      1.0  0.49975  0.24409  0.16233  1.0000
  H   H564      1.0  0.52429  0.21922  0.16852  1.0000
  H   H565      1.0  0.59298  0.27888  0.14833  1.0000
  H   H566      1.0  0.56874  0.30496  0.14302  1.0000
  C   C719      1.0  0.49898  0.28118  0.20292  1.0000
  C   C720      1.0  0.52865  0.36394  0.20838  1.0000
  C   C721      1.0  0.53840  0.39084  0.20633  1.0000
  C   C722      1.0  0.54291  0.40710  0.21917  1.0000
  C   C723      1.0  0.42164  0.41169  0.20702  1.0000
  H   H567      1.0  0.52522  0.35122  0.19860  1.0000
  C   C724      1.0  0.47852  0.41697  0.21582  1.0000
  H   H568      1.0  0.57030  0.05036  0.05552  1.0000
  H   H569      1.0  0.57674  0.45087  0.11582  1.0000
  C   C725      1.0  0.62392  0.42915  0.19445  1.0000
  C   C726      1.0  0.62120  0.11498  0.07815  1.0000
  C   C727      1.0  0.51657  0.06592  0.04101  1.0000
  H   H570      1.0  0.38214  0.34103  0.05673  1.0000
  H   H571      1.0  0.53755  0.42617  0.04651  1.0000
  H   H572      1.0  0.55298  0.25325  0.20447  1.0000
  H   H573      1.0  0.41066  0.46882  0.05179  1.0000
  H   H574      1.0  0.51277  0.33238  0.22442  1.0000
  H   H575      1.0  0.49788  0.49162  0.07245  1.0000
  H   H576      1.0  0.59284  0.41287  0.17800  1.0000
  H   H577      1.0  0.62251  0.41035  0.19743  1.0000
  C   C728      1.0  0.42452  0.41549  0.06372  1.0000
  P   P24       1.0  0.59025  0.44592  0.06049  1.0000
  H   H578      1.0  0.64424  0.26594  0.20233  1.0000
  H   H579      1.0  0.45369  0.43028  0.03730  1.0000
  Fe  Fe51      1.0  0.51070  0.39996  0.00971  1.0000
  H   H580      1.0  0.49738  0.04940  0.04115  1.0000
  H   H581      1.0  0.53238  0.49552  0.09065  1.0000
  P   P25       1.0  0.58796  0.31010  0.20570  1.0000
  C   C729      1.0  0.59381  0.28162  0.20621  1.0000
  C   C730      1.0  0.55326  0.29958  0.20451  1.0000
  C   C731      1.0  0.54118  0.29975  0.19064  1.0000
  C   C732      1.0  0.51093  0.28119  0.21681  1.0000
  C   C733      1.0  0.53797  0.29036  0.21761  1.0000
  C   C734      1.0  0.61955  0.28481  0.20550  1.0000
  C   C735      1.0  0.62436  0.26322  0.20330  1.0000
  H   H582      1.0  0.54862  0.17047  0.01709  1.0000
  C   C736      1.0  0.45538  0.36107  0.19025  1.0000
  C   C737      1.0  0.60465  0.32866  0.18919  1.0000
  C   C738      1.0  0.61212  0.35550  0.18835  1.0000
  C   C739      1.0  0.56785  0.45988  0.05797  1.0000
  Fe  Fe52      1.0  0.47622  0.34538  0.99598  1.0000
  H   H583      1.0  0.36364  0.34886  0.19140  1.0000
  C   C740      1.0  0.61071  0.31629  0.17707  1.0000
  H   H584      1.0  0.45740  0.40694  0.06061  1.0000
  H   H585      1.0  0.55249  0.30659  0.18035  1.0000
  H   H586      1.0  0.49926  0.27417  0.22696  1.0000
  H   H587      1.0  0.54696  0.29017  0.22843  1.0000
  H   H588      1.0  0.63592  0.30410  0.20579  1.0000
  H   H589      1.0  0.64581  0.02267  0.12585  1.0000
  C   C741      1.0  0.46693  0.01374  0.00828  1.0000
  H   H590      1.0  0.60699  0.36530  0.19728  1.0000
  H   H591      1.0  0.61872  0.12506  0.08802  1.0000
  C   C742      1.0  0.41775  0.36602  0.24198  1.0000
  H   H592      1.0  0.51929  0.06897  0.06549  1.0000
  C   C743      1.0  0.45592  0.36131  0.20623  1.0000
  H   H593      1.0  0.63175  0.39047  0.17494  1.0000
  H   H594      1.0  0.64716  0.47318  0.06791  1.0000
  H   H595      1.0  0.61018  0.07894  0.08989  1.0000
  H   H596      1.0  0.63955  0.12583  0.04109  1.0000
  H   H597      1.0  0.60439  0.29545  0.17707  1.0000
  C   C744      1.0  0.62615  0.36981  0.17580  1.0000
  C   C745      1.0  0.49080  0.09551  0.01080  1.0000
  C   C746      1.0  0.57574  0.41274  0.05330  1.0000
  C   C747      1.0  0.64405  0.47777  0.05643  1.0000
  C   C748      1.0  0.61714  0.32779  0.23282  1.0000
  C   C749      1.0  0.55064  0.36123  0.04215  1.0000
  C   C750      1.0  0.56746  0.38130  0.03279  1.0000
  C   C751      1.0  0.58001  0.40698  0.03833  1.0000
  C   C752      1.0  0.53602  0.01385  0.05790  1.0000
  C   C753      1.0  0.60761  0.45450  0.17992  1.0000
  H   H598      1.0  0.52414  0.46030  0.10929  1.0000
  H   H599      1.0  0.33692  0.41402  0.99932  1.0000
  C   C754      1.0  0.49344  0.07593  0.00239  1.0000
  H   H600      1.0  0.56193  0.21558  0.20090  1.0000
  C   C755      1.0  0.58208  0.20576  0.02401  1.0000
  H   H601      1.0  0.60740  0.22168  0.19950  1.0000
  H   H602      1.0  0.54015  0.34153  0.03770  1.0000
  H   H603      1.0  0.56997  0.37715  0.02105  1.0000
  H   H604      1.0  0.59225  0.42226  0.03072  1.0000
  C   C756      1.0  0.46015  0.34211  0.21389  1.0000
  C   C757      1.0  0.65001  0.42415  0.14572  1.0000
  H   H605      1.0  0.36086  0.36954  0.06216  1.0000
  H   H606      1.0  0.38749  0.41658  0.06680  1.0000
  H   H607      1.0  0.56382  0.10643  0.01702  1.0000
  C   C758      1.0  0.53054  0.22390  0.23913  1.0000
  S   S105      1.0  0.64181  0.22170  0.16225  1.0000
  H   H608      1.0  0.48109  0.42169  0.10997  1.0000
  C   C759      1.0  0.54383  0.44605  0.05042  1.0000
  P   P26       1.0  0.45015  0.38552  0.21664  1.0000
  C   C760      1.0  0.54859  0.20438  0.00667  1.0000
  C   C761      1.0  0.58872  0.34734  0.22635  1.0000
  H   H609      1.0  0.59016  0.19571  0.03110  1.0000
  C   C762      1.0  0.59543  0.23288  0.02255  1.0000
  C   C763      1.0  0.58533  0.24602  0.01317  1.0000
  C   C764      1.0  0.56191  0.23148  0.00513  1.0000
  P   P27       1.0  0.60284  0.28093  0.01045  1.0000
  C   C765      1.0  0.62591  0.29591  0.02585  1.0000
  C   C766      1.0  0.61895  0.01080  0.04441  1.0000
  C   C767      1.0  0.39487  0.48900  0.08484  1.0000
  C   C768      1.0  0.39997  0.41300  0.20048  1.0000
  C   C769      1.0  0.42107  0.37236  0.05843  1.0000
  S   S106      1.0  0.62756  0.19666  0.05357  1.0000
  C   C770      1.0  0.62517  0.33073  0.16474  1.0000
  C   C771      1.0  0.62073  0.30953  0.03765  1.0000
  H   H610      1.0  0.62444  0.24243  0.23082  1.0000
  C   C772      1.0  0.48048  0.49016  0.02144  1.0000
  C   C773      1.0  0.52905  0.07604  0.02717  1.0000
  H   H611      1.0  0.40866  0.48540  0.10710  1.0000
  C   C774      1.0  0.57937  0.29406  0.00978  1.0000
  C   C775      1.0  0.55729  0.28347  0.01912  1.0000
  C   C776      1.0  0.53824  0.29238  0.01819  1.0000
  C   C777      1.0  0.54119  0.31210  0.00801  1.0000
  H   H612      1.0  0.65125  0.22009  0.20538  1.0000
  H   H613      1.0  0.58890  0.03076  0.09745  1.0000
  C   C778      1.0  0.63671  0.21148  0.09912  1.0000
  C   C779      1.0  0.60597  0.43798  0.11124  1.0000
  H   H614      1.0  0.60353  0.37479  0.10337  1.0000
  H   H615      1.0  0.61368  0.24324  0.02866  1.0000
  H   H616      1.0  0.64539  0.06085  0.99966  1.0000
  H   H617      1.0  0.58504  0.12567  0.04136  1.0000
  H   H618      1.0  0.59660  0.46784  0.03002  1.0000
  P   P28       1.0  0.61410  0.04211  0.06765  1.0000
  H   H619      1.0  0.55474  0.39633  0.07412  1.0000
  H   H620      1.0  0.60805  0.20613  0.08168  1.0000
  H   H621      1.0  0.60251  0.31088  0.03798  1.0000
  C   C780      1.0  0.64272  0.45192  0.20138  1.0000
  C   C781      1.0  0.60361  0.23827  0.20176  1.0000
  C   C782      1.0  0.40921  0.48173  0.09503  1.0000
  H   H622      1.0  0.57459  0.34927  0.21887  1.0000
  H   H623      1.0  0.55463  0.26805  0.02698  1.0000
  H   H624      1.0  0.52093  0.28377  0.02517  1.0000
  H   H625      1.0  0.52614  0.31864  0.00705  1.0000
  H   H626      1.0  0.62518  0.31432  0.23057  1.0000
  C   C783      1.0  0.37911  0.39039  0.19481  1.0000
  C   C784      1.0  0.49952  0.17874  0.23479  1.0000
  S   S107      1.0  0.55260  0.43069  0.01023  1.0000
  C   C785      1.0  0.65135  0.26707  0.06958  1.0000
  C   C786      1.0  0.62723  0.26756  0.07075  1.0000
  C   C787      1.0  0.61959  0.27413  0.08466  1.0000
  C   C788      1.0  0.63725  0.28203  0.09695  1.0000
  P   P29       1.0  0.58747  0.27221  0.08730  1.0000
  C   C789      1.0  0.56510  0.25739  0.07157  1.0000
  C   C790      1.0  0.57137  0.25067  0.10282  1.0000
  C   C791      1.0  0.54962  0.25146  0.10963  1.0000
  C   C792      1.0  0.53649  0.23428  0.12135  1.0000
  C   C793      1.0  0.54499  0.21627  0.12636  1.0000
  C   C794      1.0  0.56652  0.21529  0.11958  1.0000
  C   C795      1.0  0.57950  0.23222  0.10772  1.0000
  C   C796      1.0  0.54650  0.26607  0.06765  1.0000
  C   C797      1.0  0.52777  0.25310  0.05635  1.0000
  C   C798      1.0  0.52713  0.23109  0.04905  1.0000
  C   C799      1.0  0.54500  0.22183  0.05320  1.0000
  C   C800      1.0  0.56356  0.23460  0.06460  1.0000
  C   C801      1.0  0.59239  0.30475  0.09219  1.0000
  C   C802      1.0  0.59316  0.32229  0.08088  1.0000
  H   H627      1.0  0.45723  0.02426  0.00330  1.0000
  C   C803      1.0  0.60080  0.35544  0.10014  1.0000
  C   C804      1.0  0.60086  0.33836  0.11137  1.0000
  C   C805      1.0  0.59668  0.31314  0.10745  1.0000
  C   C806      1.0  0.42425  0.46981  0.08967  1.0000
  C   C807      1.0  0.62596  0.47731  0.18696  1.0000
  H   H628      1.0  0.61474  0.26251  0.06082  1.0000
  H   H629      1.0  0.63211  0.28775  0.10771  1.0000
  H   H630      1.0  0.54291  0.26548  0.10601  1.0000
  H   H631      1.0  0.52012  0.23540  0.12684  1.0000
  H   H632      1.0  0.53533  0.20354  0.13578  1.0000
  H   H633      1.0  0.57340  0.20168  0.12371  1.0000
  H   H634      1.0  0.59592  0.23097  0.10251  1.0000
  H   H635      1.0  0.54569  0.28220  0.07369  1.0000
  H   H636      1.0  0.51332  0.25975  0.05352  1.0000
  H   H637      1.0  0.51245  0.22090  0.04040  1.0000
  H   H638      1.0  0.54408  0.20435  0.04787  1.0000
  H   H639      1.0  0.57627  0.22623  0.06823  1.0000
  H   H640      1.0  0.59049  0.31646  0.06903  1.0000
  H   H641      1.0  0.60937  0.43558  0.12313  1.0000
  C   C808      1.0  0.48456  0.43704  0.10183  1.0000
  C   C809      1.0  0.46978  0.45377  0.08043  1.0000
  H   H642      1.0  0.59682  0.30028  0.11640  1.0000
  C   C810      1.0  0.61893  0.46710  0.04985  1.0000
  C   C811      1.0  0.61652  0.08886  0.07917  1.0000
  H   H643      1.0  0.59689  0.36078  0.07622  1.0000
  C   C812      1.0  0.63119  0.03434  0.05268  1.0000
  C   C813      1.0  0.39547  0.48423  0.06928  1.0000
  H   H644      1.0  0.63329  0.14860  0.06367  1.0000
  H   H645      1.0  0.49406  0.40912  0.19499  1.0000
  C   C814      1.0  0.50464  0.01196  0.01953  1.0000
  H   H646      1.0  0.47493  0.12326  0.01113  1.0000
  C   C815      1.0  0.62681  0.20670  0.08411  1.0000
  C   C816      1.0  0.62304  0.43373  0.23528  1.0000
  C   C817      1.0  0.40148  0.36502  0.20229  1.0000
  H   H647      1.0  0.45208  0.37563  0.18407  1.0000
  C   C818      1.0  0.59912  0.32997  0.22276  1.0000
  C   C819      1.0  0.63309  0.35747  0.16418  1.0000
  H   H648      1.0  0.60396  0.34460  0.12319  1.0000
  C   C820      1.0  0.52158  0.35330  0.22302  1.0000
  C   C821      1.0  0.61448  0.43397  0.08467  1.0000
  C   C822      1.0  0.56590  0.10896  0.04125  1.0000
  H   H649      1.0  0.47799  0.27378  0.20219  1.0000
  C   C823      1.0  0.55889  0.39240  0.06263  1.0000
  C   C824      1.0  0.61584  0.47505  0.03519  1.0000
  S   S108      1.0  0.63488  0.25615  0.13400  1.0000
  Fe  Fe53      1.0  0.61894  0.24427  0.15741  1.0000
  C   C825      1.0  0.63298  0.11554  0.05174  1.0000
  C   C826      1.0  0.64527  0.44452  0.15128  1.0000
  S   S109      1.0  0.42845  0.40419  0.99678  1.0000
  H   H650      1.0  0.39017  0.46611  0.99863  1.0000
  H   H651      1.0  0.50483  0.29078  0.17918  1.0000
  C   C827      1.0  0.57570  0.48595  0.06234  1.0000
  H   H652      1.0  0.53080  0.19321  0.00019  1.0000
  C   C828      1.0  0.51799  0.44768  0.20327  1.0000
  H   H653      1.0  0.56324  0.10698  0.06565  1.0000
  C   C829      1.0  0.38195  0.37780  0.06187  1.0000
  H   H654      1.0  0.44638  0.41730  0.09195  1.0000
  H   H655      1.0  0.43750  0.42943  0.21138  1.0000
  H   H656      1.0  0.52472  0.02132  0.02329  1.0000
  H   H657      1.0  0.36235  0.39146  0.18973  1.0000
  C   C830      1.0  0.59702  0.34747  0.08488  1.0000
  H   H658      1.0  0.47241  0.45171  0.01334  1.0000
  C   C831      1.0  0.47165  0.46332  0.02295  1.0000
  P   P30       1.0  0.51331  0.06111  0.00934  1.0000
  C   C832      1.0  0.55368  0.09791  0.02742  1.0000
  C   C833      1.0  0.57302  0.25638  0.20480  1.0000
  C   C834      1.0  0.45921  0.46574  0.04911  1.0000
  C   C835      1.0  0.46502  0.43452  0.09145  1.0000
  C   C836      1.0  0.45955  0.34229  0.18208  1.0000
  C   C837      1.0  0.55360  0.09842  0.05496  1.0000
  C   C838      1.0  0.52448  0.36943  0.23570  1.0000
  H   H659      1.0  0.53907  0.48506  0.21428  1.0000
  C   C839      1.0  0.46102  0.45116  0.03669  1.0000
  H   H660      1.0  0.62431  0.42806  0.07610  1.0000
  H   H661      1.0  0.59394  0.45530  0.17163  1.0000
  C   C840      1.0  0.54642  0.36678  0.05707  1.0000
  H   H662      1.0  0.61132  0.43495  0.22590  1.0000
  S   S110      1.0  0.64763  0.28104  0.16880  1.0000
  C   C841      1.0  0.64938  0.43947  0.23332  1.0000
  H   H663      1.0  0.40164  0.34623  0.20305  1.0000
  C   C842      1.0  0.56273  0.03048  0.05948  1.0000
  C   C843      1.0  0.61922  0.43143  0.10004  1.0000
  C   C844      1.0  0.57796  0.23483  0.20269  1.0000
  P   P31       1.0  0.44458  0.45008  0.06683  1.0000
  H   H664      1.0  0.49996  0.10162  0.02187  1.0000
  C   C845      1.0  0.58785  0.44693  0.10711  1.0000
  H   H665      1.0  0.63022  0.32122  0.15553  1.0000
  C   C846      1.0  0.39719  0.40455  0.06445  1.0000
  C   C847      1.0  0.53606  0.48425  0.05151  1.0000
  H   H666      1.0  0.48588  0.16354  0.22735  1.0000
  C   C848      1.0  0.43634  0.39908  0.06094  1.0000
  H   H667      1.0  0.60278  0.46717  0.99932  1.0000
  C   C849      1.0  0.48270  0.43580  0.22720  1.0000
  H   H668      1.0  0.50974  0.44768  0.04125  1.0000
  C   C850      1.0  0.60687  0.43051  0.18354  1.0000
  H   H669      1.0  0.46749  0.30905  0.18342  1.0000
  C   C851      1.0  0.64357  0.47611  0.19762  1.0000
  H   H670      1.0  0.39933  0.43158  0.19981  1.0000
  C   C852      1.0  0.58328  0.44981  0.09176  1.0000
  H   H671      1.0  0.56841  0.45580  0.08889  1.0000
  C   C853      1.0  0.63992  0.02657  0.11480  1.0000
  C   C854      1.0  0.62800  0.05860  0.00556  1.0000
  C   C855      1.0  0.64103  0.20273  0.07225  1.0000
  H   H672      1.0  0.63864  0.20234  0.23148  1.0000
  C   C856      1.0  0.53610  0.39648  0.23382  1.0000
  C   C857      1.0  0.51353  0.47853  0.09086  1.0000
  C   C858      1.0  0.63244  0.00490  0.03301  1.0000
  Fe  Fe54      1.0  0.64273  0.19564  0.99780  1.0000
  C   C859      1.0  0.42511  0.46519  0.07403  1.0000
  H   H673      1.0  0.58029  0.22598  0.24061  1.0000
  C   C860      1.0  0.62946  0.12831  0.06444  1.0000
  C   C861      1.0  0.46389  0.32334  0.18979  1.0000
  C   C862      1.0  0.52799  0.45823  0.04730  1.0000
  C   C863      1.0  0.50444  0.46028  0.22664  1.0000
  H   H674      1.0  0.61014  0.01629  0.00475  1.0000
  H   H675      1.0  0.52326  0.02092  0.05278  1.0000
  C   C864      1.0  0.40695  0.43885  0.99813  1.0000
  H   H676      1.0  0.65407  0.28379  0.01697  1.0000
  C   C865      1.0  0.41048  0.47235  0.06390  1.0000
  C   C866      1.0  0.56338  0.32322  0.99893  1.0000
  H   H677      1.0  0.33339  0.45638  0.06211  1.0000
  C   C867      1.0  0.63930  0.32172  0.04917  1.0000
  C   C868      1.0  0.42267  0.38771  0.20783  1.0000
  H   H678      1.0  0.59443  0.49708  0.06789  1.0000
  C   C869      1.0  0.64975  0.29445  0.02586  1.0000
  H   H679      1.0  0.62674  0.49595  0.18399  1.0000
  H   H680      1.0  0.46095  0.34181  0.22618  1.0000
  C   C870      1.0  0.46389  0.32311  0.20568  1.0000
  S   S111      1.0  0.65187  0.11267  0.00671  1.0000
  H   H681      1.0  0.58681  0.41050  0.99502  1.0000
  H   H682      1.0  0.46745  0.30863  0.21173  1.0000
  C   C871      1.0  0.56164  0.45160  0.99453  1.0000
  H   H683      1.0  0.63127  0.08008  0.04276  1.0000
  H   H684      1.0  0.63284  0.42402  0.10336  1.0000
  C   C872      1.0  0.66145  0.28182  0.09568  1.0000
  H   H685      1.0  0.60259  0.02214  0.12255  1.0000
  C   C873      1.0  0.62450  0.03630  0.08610  1.0000
  C   C874      1.0  0.60789  0.03116  0.09867  1.0000
  C   C875      1.0  0.49397  0.47614  0.08048  1.0000
  H   H686      1.0  0.43911  0.49365  0.99402  1.0000
  H   H687      1.0  0.43516  0.46427  0.09774  1.0000
  H   H688      1.0  0.63540  0.33226  0.05827  1.0000
  C   C876      1.0  0.52210  0.46621  0.21467  1.0000
  C   C877      1.0  0.62833  0.08949  0.05274  1.0000
  Fe  Fe55      1.0  0.64788  0.19200  0.03232  1.0000
  C   C878      1.0  0.66298  0.32023  0.04906  1.0000
  H   H689      1.0  0.54085  0.24364  0.23494  1.0000
  C   C879      1.0  0.44333  0.37649  0.23637  1.0000
  C   C880      1.0  0.61558  0.02629  0.11294  1.0000
  C   C881      1.0  0.64896  0.03659  0.08809  1.0000
  H   H690      1.0  0.40148  0.36300  0.23459  1.0000
  H   H691      1.0  0.46917  0.43159  0.23653  1.0000
  C   C882      1.0  0.62048  0.25330  0.23960  1.0000
  C   C883      1.0  0.53831  0.06732  0.99523  1.0000
  H   H692      1.0  0.64544  0.32856  0.99891  1.0000
  C   C884      1.0  0.51286  0.20433  0.22955  1.0000
  C   C885      1.0  0.63747  0.49291  0.02718  1.0000
  C   C886      1.0  0.65589  0.22064  0.22988  1.0000
  C   C887      1.0  0.66076  0.21193  0.10248  1.0000
  C   C888      1.0  0.47658  0.10782  0.00479  1.0000
  H   H693      1.0  0.52399  0.49372  0.04867  1.0000
  H   H694      1.0  0.38432  0.48974  0.06132  1.0000
  C   C889      1.0  0.65660  0.03174  0.10239  1.0000
  C   C890      1.0  0.59565  0.36167  0.23992  1.0000
  H   H695      1.0  0.50764  0.47460  0.23552  1.0000
  H   H696      1.0  0.54042  0.03080  0.99802  1.0000
  C   C891      1.0  0.66291  0.23072  0.21508  1.0000
  H   H697      1.0  0.66036  0.28268  0.24137  1.0000
  H   H698      1.0  0.58561  0.16673  0.99402  1.0000
  C   C892      1.0  0.65721  0.05173  0.04939  1.0000
  H   H699      1.0  0.65656  0.26056  0.05910  1.0000
  H   H700      1.0  0.66096  0.39933  0.22706  1.0000
  H   H701      1.0  0.66218  0.04038  0.07868  1.0000
  C   C893      1.0  0.65815  0.02250  0.02966  1.0000
  H   H702      1.0  0.66236  0.48286  0.16173  1.0000
  Fe  Fe56      1.0  0.36056  0.49792  0.02491  1.0000
  S   S112      1.0  0.55957  0.99847  0.02053  1.0000
  C   C894      1.0  0.62148  0.28787  0.99310  1.0000
  Fe  Fe57      1.0  0.49249  0.36305  0.45406  1.0000
  S   S113      1.0  0.52452  0.38605  0.43768  1.0000
  S   S114      1.0  0.50268  0.33427  0.46751  1.0000
  Fe  Fe58      1.0  0.46224  0.39456  0.44464  1.0000
  S   S115      1.0  0.49221  0.41827  0.42726  1.0000
  S   S116      1.0  0.42763  0.40193  0.45236  1.0000
  Fe  Fe59      1.0  0.49306  0.38055  0.42072  1.0000
  S   S117      1.0  0.50252  0.36579  0.39851  1.0000
  Fe  Fe60      1.0  0.52127  0.42156  0.44545  1.0000
  S   S118      1.0  0.55673  0.46057  0.44873  1.0000
  S   S119      1.0  0.46077  0.35592  0.43682  1.0000
  S   S120      1.0  0.49174  0.39970  0.46321  1.0000
  S   S121      1.0  0.64121  0.17765  0.42488  1.0000
  C   C895      1.0  0.46428  0.21013  0.45023  1.0000
  S   S122      1.0  0.33578  0.49504  0.46479  1.0000
  S   S123      1.0  0.62041  0.22011  0.45412  1.0000
  H   H703      1.0  0.56270  0.41464  0.35141  1.0000
  C   C896      1.0  0.65447  0.09871  0.38313  1.0000
  H   H704      1.0  0.54041  0.10212  0.41503  1.0000
  Fe  Fe61      1.0  0.51932  0.38387  0.31029  1.0000
  S   S124      1.0  0.53321  0.40928  0.28941  1.0000
  S   S125      1.0  0.49519  0.39080  0.32864  1.0000
  Fe  Fe62      1.0  0.54821  0.35246  0.30158  1.0000
  S   S126      1.0  0.56552  0.37607  0.28069  1.0000
  S   S127      1.0  0.55353  0.31756  0.30903  1.0000
  Fe  Fe63      1.0  0.57201  0.41069  0.29529  1.0000
  S   S128      1.0  0.60968  0.44806  0.29581  1.0000
  Fe  Fe64      1.0  0.52567  0.37237  0.27643  1.0000
  S   S129      1.0  0.50989  0.35496  0.25310  1.0000
  S   S130      1.0  0.55853  0.38743  0.31663  1.0000
  S   S131      1.0  0.50767  0.34684  0.29676  1.0000
  C   C897      1.0  0.38461  0.27494  0.38705  1.0000
  C   C898      1.0  0.59051  0.49267  0.47047  1.0000
  C   C899      1.0  0.44441  0.26083  0.47614  1.0000
  C   C900      1.0  0.49842  0.28791  0.47930  1.0000
  C   C901      1.0  0.36289  0.27986  0.38896  1.0000
  H   H705      1.0  0.35493  0.21774  0.36701  1.0000
  H   H706      1.0  0.52436  0.18726  0.27069  1.0000
  S   S132      1.0  0.62694  0.10894  0.43652  1.0000
  H   H707      1.0  0.61070  0.39949  0.30163  1.0000
  C   C902      1.0  0.58395  0.31982  0.30379  1.0000
  C   C903      1.0  0.60036  0.33991  0.29436  1.0000
  C   C904      1.0  0.62477  0.34211  0.29037  1.0000
  C   C905      1.0  0.63300  0.32423  0.29584  1.0000
  C   C906      1.0  0.61680  0.30406  0.30537  1.0000
  C   C907      1.0  0.59231  0.30204  0.30946  1.0000
  H   H708      1.0  0.59456  0.35407  0.29031  1.0000
  H   H709      1.0  0.46465  0.03012  0.44878  1.0000
  H   H710      1.0  0.62332  0.29038  0.30979  1.0000
  H   H711      1.0  0.58004  0.28697  0.31716  1.0000
  Fe  Fe65      1.0  0.35219  0.49585  0.44143  1.0000
  H   H712      1.0  0.50334  0.29612  0.40434  1.0000
  C   C908      1.0  0.51529  0.29836  0.41434  1.0000
  C   C909      1.0  0.61984  0.07602  0.44121  1.0000
  C   C910      1.0  0.59474  0.05577  0.43800  1.0000
  C   C911      1.0  0.58850  0.02933  0.44083  1.0000
  C   C912      1.0  0.60729  0.02268  0.44697  1.0000
  C   C913      1.0  0.63224  0.04298  0.45038  1.0000
  C   C914      1.0  0.63847  0.06941  0.44759  1.0000
  C   C915      1.0  0.63502  0.44099  0.30194  1.0000
  H   H713      1.0  0.56919  0.01409  0.43819  1.0000
  H   H714      1.0  0.56776  0.22086  0.44084  1.0000
  C   C916      1.0  0.33555  0.23987  0.37532  1.0000
  C   C917      1.0  0.41475  0.42397  0.44685  1.0000
  C   C918      1.0  0.42046  0.43693  0.43288  1.0000
  C   C919      1.0  0.40770  0.45204  0.42848  1.0000
  C   C920      1.0  0.38983  0.45534  0.43815  1.0000
  H   H715      1.0  0.42991  0.35773  0.27903  1.0000
  C   C921      1.0  0.39727  0.42769  0.45663  1.0000
  H   H716      1.0  0.43402  0.43465  0.42524  1.0000
  H   H717      1.0  0.41145  0.46100  0.41739  1.0000
  H   H718      1.0  0.62360  0.49349  0.44598  1.0000
  H   H719      1.0  0.39270  0.41789  0.46746  1.0000
  C   C922      1.0  0.50290  0.37594  0.37944  1.0000
  C   C923      1.0  0.51510  0.36751  0.36836  1.0000
  C   C924      1.0  0.51373  0.37278  0.35284  1.0000
  C   C925      1.0  0.49978  0.38625  0.34819  1.0000
  C   C926      1.0  0.48836  0.39549  0.35933  1.0000
  C   C927      1.0  0.49024  0.39071  0.37490  1.0000
  H   H720      1.0  0.52503  0.35616  0.37174  1.0000
  H   H721      1.0  0.52266  0.36556  0.34443  1.0000
  H   H722      1.0  0.47770  0.40611  0.35587  1.0000
  H   H723      1.0  0.48115  0.39771  0.38332  1.0000
  C   C928      1.0  0.65668  0.27839  0.38662  1.0000
  C   C929      1.0  0.65404  0.49651  0.26997  1.0000
  C   C930      1.0  0.57108  0.46745  0.46699  1.0000
  C   C931      1.0  0.53519  0.21795  0.25396  1.0000
  C   C932      1.0  0.50935  0.27541  0.27654  1.0000
  H   H724      1.0  0.54876  0.42852  0.47541  1.0000
  C   C933      1.0  0.59922  0.28016  0.47093  1.0000
  C   C934      1.0  0.53674  0.16408  0.46669  1.0000
  P   P32       1.0  0.54091  0.25346  0.43872  1.0000
  C   C935      1.0  0.58899  0.19770  0.45982  1.0000
  C   C936      1.0  0.57714  0.17243  0.45371  1.0000
  C   C937      1.0  0.55096  0.15574  0.45704  1.0000
  H   H725      1.0  0.58793  0.16606  0.44610  1.0000
  H   H726      1.0  0.54161  0.13642  0.45203  1.0000
  H   H727      1.0  0.49576  0.25220  0.48920  1.0000
  S   S133      1.0  0.64394  0.25287  0.29694  1.0000
  C   C938      1.0  0.45799  0.24790  0.48247  1.0000
  C   C939      1.0  0.48482  0.30086  0.47294  1.0000
  H   H728      1.0  0.56206  0.33198  0.37080  1.0000
  H   H729      1.0  0.62264  0.04280  0.36258  1.0000
  H   H730      1.0  0.36463  0.29725  0.39476  1.0000
  C   C940      1.0  0.58533  0.37347  0.36821  1.0000
  C   C941      1.0  0.55052  0.08444  0.45647  1.0000
  C   C942      1.0  0.53548  0.28057  0.43225  1.0000
  H   H731      1.0  0.65172  0.30602  0.26255  1.0000
  H   H732      1.0  0.37194  0.44625  0.46008  1.0000
  H   H733      1.0  0.55521  0.32793  0.25845  1.0000
  C   C943      1.0  0.52261  0.07720  0.43419  1.0000
  H   H734      1.0  0.65416  0.08889  0.35944  1.0000
  C   C944      1.0  0.43227  0.31467  0.36478  1.0000
  H   H735      1.0  0.44685  0.29669  0.46664  1.0000
  H   H736      1.0  0.39321  0.35128  0.26163  1.0000
  H   H737      1.0  0.48422  0.09804  0.48993  1.0000
  C   C945      1.0  0.54309  0.09719  0.42657  1.0000
  H   H738      1.0  0.41367  0.38775  0.41949  1.0000
  H   H739      1.0  0.58006  0.06054  0.43317  1.0000
  C   C946      1.0  0.51982  0.27760  0.41934  1.0000
  C   C947      1.0  0.57696  0.34156  0.34806  1.0000
  C   C948      1.0  0.54543  0.30418  0.44050  1.0000
  H   H740      1.0  0.49337  0.15292  0.25369  1.0000
  H   H741      1.0  0.51639  0.45816  0.47322  1.0000
  H   H742      1.0  0.49111  0.29854  0.36520  1.0000
  C   C949      1.0  0.52211  0.00830  0.41421  1.0000
  H   H743      1.0  0.47520  0.30113  0.43640  1.0000
  C   C950      1.0  0.56367  0.44801  0.47800  1.0000
  H   H744      1.0  0.56445  0.42274  0.37642  1.0000
  C   C951      1.0  0.64453  0.08952  0.39752  1.0000
  C   C952      1.0  0.61172  0.47740  0.33147  1.0000
  H   H745      1.0  0.61324  0.40283  0.33494  1.0000
  H   H746      1.0  0.47506  0.37587  0.26918  1.0000
  C   C953      1.0  0.56709  0.11108  0.43391  1.0000
  H   H747      1.0  0.48104  0.31686  0.34203  1.0000
  H   H748      1.0  0.61825  0.36990  0.26063  1.0000
  H   H749      1.0  0.59341  0.20896  0.42286  1.0000
  C   C954      1.0  0.65811  0.35242  0.33079  1.0000
  H   H750      1.0  0.43007  0.46224  0.48492  1.0000
  H   H751      1.0  0.44398  0.32789  0.34187  1.0000
  H   H752      1.0  0.40766  0.22743  0.43016  1.0000
  C   C955      1.0  0.63577  0.28903  0.25759  1.0000
  H   H753      1.0  0.54731  0.34254  0.44233  1.0000
  H   H754      1.0  0.46402  0.29070  0.38805  1.0000
  H   H755      1.0  0.58312  0.12660  0.42808  1.0000
  C   C956      1.0  0.64072  0.27586  0.24564  1.0000
  H   H756      1.0  0.64153  0.47421  0.34457  1.0000
  C   C957      1.0  0.45904  0.37333  0.26163  1.0000
  H   H757      1.0  0.62910  0.34185  0.34821  1.0000
  C   C958      1.0  0.63998  0.46023  0.45961  1.0000
  C   C959      1.0  0.48825  0.23092  0.44651  1.0000
  C   C960      1.0  0.61406  0.49634  0.42274  1.0000
  H   H758      1.0  0.44837  0.21383  0.45421  1.0000
  H   H759      1.0  0.42340  0.25047  0.47490  1.0000
  C   C961      1.0  0.35713  0.23503  0.37319  1.0000
  C   C962      1.0  0.55817  0.26414  0.48426  1.0000
  C   C963      1.0  0.56668  0.01110  0.39949  1.0000
  C   C964      1.0  0.47453  0.30280  0.36508  1.0000
  C   C965      1.0  0.52147  0.19230  0.25923  1.0000
  P   P33       1.0  0.55510  0.07592  0.47570  1.0000
  H   H760      1.0  0.52361  0.24791  0.47046  1.0000
  C   C966      1.0  0.61173  0.43492  0.41046  1.0000
  C   C967      1.0  0.48193  0.17971  0.44517  1.0000
  H   H761      1.0  0.62462  0.43806  0.42010  1.0000
  H   H762      1.0  0.66166  0.37263  0.43543  1.0000
  C   C968      1.0  0.62763  0.00665  0.41143  1.0000
  C   C969      1.0  0.56260  0.03344  0.40099  1.0000
  H   H763      1.0  0.49090  0.26930  0.28231  1.0000
  H   H764      1.0  0.50512  0.00722  0.42010  1.0000
  H   H765      1.0  0.58397  0.22544  0.47434  1.0000
  H   H766      1.0  0.57623  0.05197  0.39637  1.0000
  C   C970      1.0  0.40124  0.34656  0.42170  1.0000
  C   C971      1.0  0.45768  0.28709  0.47140  1.0000
  C   C972      1.0  0.63007  0.41500  0.30359  1.0000
  H   H767      1.0  0.63749  0.35796  0.28323  1.0000
  C   C973      1.0  0.52183  0.30041  0.27043  1.0000
  C   C974      1.0  0.61872  0.04597  0.38695  1.0000
  H   H768      1.0  0.58243  0.37762  0.37988  1.0000
  H   H769      1.0  0.58187  0.25587  0.38851  1.0000
  C   C975      1.0  0.43572  0.01992  0.46651  1.0000
  H   H770      1.0  0.49056  0.25065  0.44779  1.0000
  C   C976      1.0  0.46109  0.18455  0.44950  1.0000
  H   H771      1.0  0.52876  0.49347  0.49249  1.0000
  C   C977      1.0  0.62873  0.05542  0.37249  1.0000
  H   H772      1.0  0.65752  0.33792  0.36811  1.0000
  H   H773      1.0  0.65177  0.00183  0.42874  1.0000
  H   H774      1.0  0.61888  0.05677  0.41061  1.0000
  H   H775      1.0  0.65037  0.10274  0.40724  1.0000
  H   H776      1.0  0.63543  0.02725  0.41380  1.0000
  C   C978      1.0  0.41962  0.24727  0.42648  1.0000
  H   H777      1.0  0.39344  0.24503  0.40848  1.0000
  H   H778      1.0  0.65164  0.40931  0.35080  1.0000
  C   C979      1.0  0.66239  0.42856  0.35569  1.0000
  C   C980      1.0  0.65219  0.43002  0.25999  1.0000
  H   H779      1.0  0.63239  0.45417  0.44822  1.0000
  C   C981      1.0  0.54062  0.03208  0.40854  1.0000
  C   C982      1.0  0.47117  0.47933  0.46466  1.0000
  C   C983      1.0  0.41619  0.32636  0.40212  1.0000
  C   C984      1.0  0.63539  0.45242  0.48673  1.0000
  H   H780      1.0  0.39076  0.34521  0.43216  1.0000
  C   C985      1.0  0.54035  0.32466  0.43566  1.0000
  C   C986      1.0  0.45430  0.03701  0.45637  1.0000
  C   C987      1.0  0.45993  0.06345  0.45613  1.0000
  C   C988      1.0  0.44712  0.07297  0.46600  1.0000
  H   H781      1.0  0.46226  0.31869  0.41400  1.0000
  C   C989      1.0  0.66266  0.48367  0.46219  1.0000
  Fe  Fe66      1.0  0.65410  0.15316  0.43968  1.0000
  H   H782      1.0  0.44144  0.35310  0.38526  1.0000
  C   C990      1.0  0.42910  0.05623  0.47636  1.0000
  H   H783      1.0  0.60801  0.42748  0.46992  1.0000
  H   H784      1.0  0.47957  0.44910  0.45540  1.0000
  C   C991      1.0  0.60372  0.42998  0.38311  1.0000
  C   C992      1.0  0.59992  0.39368  0.35814  1.0000
  C   C993      1.0  0.41295  0.35933  0.25733  1.0000
  H   H785      1.0  0.55662  0.30675  0.45086  1.0000
  H   H786      1.0  0.47441  0.07680  0.44844  1.0000
  H   H787      1.0  0.45161  0.09349  0.46589  1.0000
  H   H788      1.0  0.55656  0.26832  0.40646  1.0000
  H   H789      1.0  0.39821  0.24863  0.37716  1.0000
  H   H790      1.0  0.57820  0.47510  0.31909  1.0000
  C   C994      1.0  0.52077  0.25846  0.27535  1.0000
  C   C995      1.0  0.52560  0.32189  0.42248  1.0000
  C   C996      1.0  0.50925  0.22623  0.44189  1.0000
  H   H791      1.0  0.51069  0.23901  0.27998  1.0000
  H   H792      1.0  0.52189  0.19603  0.43867  1.0000
  H   H793      1.0  0.47971  0.15990  0.44513  1.0000
  S   S134      1.0  0.37194  0.47199  0.43124  1.0000
  C   C997      1.0  0.48503  0.46460  0.46382  1.0000
  H   H794      1.0  0.64697  0.03820  0.45515  1.0000
  C   C998      1.0  0.66027  0.46095  0.30470  1.0000
  C   C999      1.0  0.54878  0.18915  0.47307  1.0000
  P   P34       1.0  0.55837  0.24363  0.26592  1.0000
  C   C1000     1.0  0.59001  0.25738  0.25713  1.0000
  C   C1001     1.0  0.54509  0.26662  0.26830  1.0000
  C   C1002     1.0  0.55741  0.29172  0.26205  1.0000
  C   C1003     1.0  0.54577  0.30853  0.26316  1.0000
  H   H795      1.0  0.50387  0.06668  0.42858  1.0000
  C   C1004     1.0  0.38160  0.25254  0.37897  1.0000
  C   C1005     1.0  0.45779  0.28874  0.42993  1.0000
  C   C1006     1.0  0.61055  0.27972  0.26344  1.0000
  P   P35       1.0  0.61450  0.42749  0.36404  1.0000
  C   C1007     1.0  0.57042  0.22843  0.42942  1.0000
  C   C1008     1.0  0.56345  0.23100  0.28375  1.0000
  C   C1009     1.0  0.57509  0.21401  0.28368  1.0000
  C   C1010     1.0  0.58092  0.20536  0.29735  1.0000
  C   C1011     1.0  0.57549  0.21383  0.31121  1.0000
  C   C1012     1.0  0.56382  0.23062  0.31139  1.0000
  C   C1013     1.0  0.55789  0.23929  0.29773  1.0000
  C   C1014     1.0  0.38533  0.44366  0.45246  1.0000
  C   C1015     1.0  0.58510  0.46671  0.32799  1.0000
  C   C1016     1.0  0.46881  0.31303  0.35199  1.0000
  H   H796      1.0  0.51299  0.31354  0.27135  1.0000
  C   C1017     1.0  0.33845  0.26230  0.38317  1.0000
  C   C1018     1.0  0.51259  0.48953  0.48477  1.0000
  C   C1019     1.0  0.62593  0.42403  0.26178  1.0000
  H   H797      1.0  0.59383  0.49127  0.42522  1.0000
  H   H798      1.0  0.60714  0.28951  0.27310  1.0000
  C   C1020     1.0  0.62029  0.43376  0.39571  1.0000
  H   H799      1.0  0.58039  0.20802  0.27306  1.0000
  H   H800      1.0  0.59064  0.19292  0.29722  1.0000
  H   H801      1.0  0.58099  0.20789  0.32179  1.0000
  H   H802      1.0  0.56007  0.23755  0.32215  1.0000
  H   H803      1.0  0.54986  0.25311  0.29821  1.0000
  C   C1021     1.0  0.44260  0.26299  0.43439  1.0000
  C   C1022     1.0  0.55946  0.24490  0.42502  1.0000
  S   S135      1.0  0.50375  0.14303  0.47010  1.0000
  H   H804      1.0  0.43930  0.39172  0.39618  1.0000
  H   H805      1.0  0.57963  0.43256  0.42424  1.0000
  H   H806      1.0  0.51009  0.05595  0.45494  1.0000
  H   H807      1.0  0.61677  0.41775  0.27269  1.0000
  H   H808      1.0  0.41591  0.31930  0.36447  1.0000
  C   C1023     1.0  0.57067  0.10503  0.44885  1.0000
  C   C1024     1.0  0.57610  0.04075  0.48152  1.0000
  H   H809      1.0  0.63972  0.43549  0.39422  1.0000
  C   C1025     1.0  0.64984  0.44142  0.36330  1.0000
  C   C1026     1.0  0.50596  0.20042  0.44147  1.0000
  C   C1027     1.0  0.57860  0.24818  0.39995  1.0000
  H   H810      1.0  0.54694  0.43567  0.33251  1.0000
  H   H811      1.0  0.54970  0.42433  0.40228  1.0000
  H   H812      1.0  0.64769  0.20430  0.39181  1.0000
  C   C1028     1.0  0.58899  0.23139  0.40443  1.0000
  C   C1029     1.0  0.53325  0.02243  0.46976  1.0000
  C   C1030     1.0  0.61340  0.35924  0.24993  1.0000
  C   C1031     1.0  0.41437  0.37068  0.41462  1.0000
  C   C1032     1.0  0.56751  0.44444  0.33552  1.0000
  C   C1033     1.0  0.62675  0.06333  0.39942  1.0000
  H   H813      1.0  0.59415  0.35721  0.32642  1.0000
  H   H814      1.0  0.60019  0.22595  0.39651  1.0000
  H   H815      1.0  0.58930  0.11663  0.45428  1.0000
  C   C1034     1.0  0.42875  0.37286  0.40147  1.0000
  C   C1035     1.0  0.59165  0.36160  0.33810  1.0000
  C   C1036     1.0  0.57652  0.43274  0.34644  1.0000
  C   C1037     1.0  0.62076  0.46596  0.34256  1.0000
  C   C1038     1.0  0.43359  0.36298  0.26715  1.0000
  H   H816      1.0  0.40973  0.01727  0.48502  1.0000
  C   C1039     1.0  0.52629  0.07093  0.44907  1.0000
  C   C1040     1.0  0.56960  0.42745  0.40043  1.0000
  H   H817      1.0  0.61068  0.09310  0.46963  1.0000
  S   S136      1.0  0.64472  0.22955  0.33870  1.0000
  C   C1041     1.0  0.60917  0.10516  0.47873  1.0000
  C   C1042     1.0  0.43798  0.30458  0.37804  1.0000
  C   C1043     1.0  0.60314  0.44365  0.35032  1.0000
  C   C1044     1.0  0.60261  0.38752  0.34300  1.0000
  H   H818      1.0  0.56782  0.32152  0.34396  1.0000
  C   C1045     1.0  0.58504  0.22167  0.41921  1.0000
  C   C1046     1.0  0.40222  0.32447  0.41553  1.0000
  H   H819      1.0  0.51940  0.29826  0.48057  1.0000
  C   C1047     1.0  0.42977  0.35081  0.39526  1.0000
  H   H820      1.0  0.39218  0.30595  0.42126  1.0000
  C   C1048     1.0  0.48512  0.26170  0.48411  1.0000
  C   C1049     1.0  0.42362  0.02989  0.47677  1.0000
  C   C1050     1.0  0.62624  0.44484  0.47187  1.0000
  H   H821      1.0  0.62553  0.20698  0.36793  1.0000
  Fe  Fe67      1.0  0.64563  0.20176  0.44587  1.0000
  C   C1051     1.0  0.57484  0.20594  0.46960  1.0000
  S   S137      1.0  0.66031  0.22177  0.26114  1.0000
  C   C1052     1.0  0.57377  0.34749  0.36312  1.0000
  H   H822      1.0  0.59111  0.42174  0.25106  1.0000
  C   C1053     1.0  0.63201  0.12490  0.48495  1.0000
  C   C1054     1.0  0.54469  0.25708  0.47039  1.0000
  C   C1055     1.0  0.41775  0.47187  0.48643  1.0000
  C   C1056     1.0  0.50568  0.46963  0.47389  1.0000
  C   C1057     1.0  0.58461  0.10132  0.48399  1.0000
  H   H823      1.0  0.59679  0.27700  0.44659  1.0000
  C   C1058     1.0  0.58578  0.27342  0.45702  1.0000
  C   C1059     1.0  0.56400  0.25504  0.41020  1.0000
  C   C1060     1.0  0.41171  0.25733  0.41411  1.0000
  C   C1061     1.0  0.57818  0.42661  0.38566  1.0000
  S   S138      1.0  0.44279  0.14722  0.48435  1.0000
  H   H824      1.0  0.45510  0.47507  0.45679  1.0000
  H   H825      1.0  0.63772  0.34030  0.25427  1.0000
  H   H826      1.0  0.51106  0.25920  0.41318  1.0000
  H   H827      1.0  0.51665  0.02425  0.46528  1.0000
  H   H828      1.0  0.44842  0.25538  0.44416  1.0000
  H   H829      1.0  0.64629  0.38864  0.30842  1.0000
  C   C1062     1.0  0.44786  0.31921  0.35189  1.0000
  H   H830      1.0  0.44266  0.16853  0.45271  1.0000
  C   C1063     1.0  0.45024  0.29869  0.41738  1.0000
  H   H831      1.0  0.41950  0.06380  0.48415  1.0000
  C   C1064     1.0  0.58640  0.43178  0.41282  1.0000
  H   H832      1.0  0.52157  0.33775  0.41881  1.0000
  P   P36       1.0  0.41654  0.29735  0.39421  1.0000
  C   C1065     1.0  0.45922  0.29861  0.37808  1.0000
  C   C1066     1.0  0.42706  0.28314  0.40943  1.0000
  C   C1067     1.0  0.55837  0.26169  0.45666  1.0000
  C   C1068     1.0  0.55532  0.04436  0.47526  1.0000
  C   C1069     1.0  0.65026  0.40883  0.30752  1.0000
  H   H833      1.0  0.64292  0.25919  0.38256  1.0000
  H   H834      1.0  0.52309  0.10385  0.47554  1.0000
  C   C1070     1.0  0.51529  0.08858  0.48396  1.0000
  C   C1071     1.0  0.61146  0.42622  0.24952  1.0000
  S   S139      1.0  0.65530  0.17602  0.46090  1.0000
  C   C1072     1.0  0.65845  0.28447  0.40213  1.0000
  C   C1073     1.0  0.46391  0.38011  0.24632  1.0000
  C   C1074     1.0  0.58542  0.27560  0.48454  1.0000
  P   P37       1.0  0.59472  0.01233  0.38951  1.0000
  H   H835      1.0  0.33298  0.40861  0.46915  1.0000
  H   H836      1.0  0.53792  0.19579  0.48043  1.0000
  H   H837      1.0  0.63862  0.47773  0.26648  1.0000
  H   H838      1.0  0.53804  0.04954  0.40997  1.0000
  C   C1075     1.0  0.64661  0.21563  0.36846  1.0000
  C   C1076     1.0  0.64658  0.08167  0.37063  1.0000
  H   H839      1.0  0.59308  0.05673  0.48638  1.0000
  C   C1077     1.0  0.50376  0.17275  0.24963  1.0000
  H   H840      1.0  0.57575  0.29835  0.25619  1.0000
  H   H841      1.0  0.64609  0.26992  0.41015  1.0000
  H   H842      1.0  0.66339  0.42871  0.26967  1.0000
  H   H843      1.0  0.62032  0.28835  0.47114  1.0000
  C   C1078     1.0  0.63099  0.49734  0.43450  1.0000
  H   H844      1.0  0.65583  0.47701  0.37501  1.0000
  H   H845      1.0  0.62542  0.49398  0.32513  1.0000
  H   H846      1.0  0.65084  0.12779  0.48070  1.0000
  H   H847      1.0  0.64567  0.35436  0.32215  1.0000
  H   H848      1.0  0.58650  0.37400  0.24285  1.0000
  C   C1079     1.0  0.59525  0.24406  0.24523  1.0000
  C   C1080     1.0  0.62431  0.34248  0.24633  1.0000
  H   H849      1.0  0.53834  0.40910  0.24348  1.0000
  C   C1081     1.0  0.64881  0.34541  0.34552  1.0000
  C   C1082     1.0  0.65912  0.21409  0.38201  1.0000
  C   C1083     1.0  0.52698  0.07209  0.48659  1.0000
  C   C1084     1.0  0.66118  0.22807  0.35554  1.0000
  Fe  Fe68      1.0  0.48394  0.15443  0.48878  1.0000
  C   C1085     1.0  0.39233  0.45726  0.49174  1.0000
  C   C1086     1.0  0.57507  0.01592  0.48176  1.0000
  H   H850      1.0  0.59150  0.01334  0.48608  1.0000
  C   C1087     1.0  0.65849  0.47517  0.48934  1.0000
  S   S140      1.0  0.44011  0.21458  0.48802  1.0000
  C   C1088     1.0  0.38474  0.49542  0.49039  1.0000
  H   H851      1.0  0.65783  0.08461  0.45015  1.0000
  C   C1089     1.0  0.57584  0.45369  0.49237  1.0000
  C   C1090     1.0  0.49330  0.08545  0.49218  1.0000
  S   S141      1.0  0.59399  0.40850  0.67001  1.0000
  Fe  Fe69      1.0  0.58518  0.23013  0.64428  1.0000
  S   S142      1.0  0.57819  0.24755  0.62300  1.0000
  S   S143      1.0  0.61126  0.21020  0.64391  1.0000
  Fe  Fe70      1.0  0.54715  0.24145  0.66323  1.0000
  S   S144      1.0  0.53685  0.26000  0.64335  1.0000
  S   S145      1.0  0.52628  0.23731  0.68588  1.0000
  Fe  Fe71      1.0  0.53578  0.22680  0.62896  1.0000
  S   S146      1.0  0.50218  0.20522  0.61216  1.0000
  Fe  Fe72      1.0  0.57985  0.27919  0.63881  1.0000
  S   S147      1.0  0.60383  0.32047  0.63101  1.0000
  S   S148      1.0  0.54247  0.20658  0.64921  1.0000
  S   S149      1.0  0.59044  0.26346  0.65969  1.0000
  Fe  Fe73      1.0  0.43375  0.12655  0.50684  1.0000
  S   S150      1.0  0.47455  0.13203  0.51055  1.0000
  S   S151      1.0  0.39743  0.08644  0.50699  1.0000
  H   H852      1.0  0.35597  0.45766  0.49744  1.0000
  S   S152      1.0  0.49564  0.19342  0.49995  1.0000
  H   H853      1.0  0.64234  0.32270  0.61009  1.0000
  C   C1091     1.0  0.57111  0.49717  0.71752  1.0000
  H   H854      1.0  0.57014  0.43851  0.50082  1.0000
  Fe  Fe74      1.0  0.48261  0.17044  0.52172  1.0000
  S   S153      1.0  0.51198  0.18596  0.54137  1.0000
  C   C1092     1.0  0.52416  0.29945  0.71663  1.0000
  S   S154      1.0  0.44092  0.16394  0.51950  1.0000
  H   H855      1.0  0.60153  0.37917  0.73653  1.0000
  C   C1093     1.0  0.39104  0.05350  0.51107  1.0000
  C   C1094     1.0  0.40869  0.04727  0.51905  1.0000
  C   C1095     1.0  0.40196  0.02100  0.52268  1.0000
  C   C1096     1.0  0.64344  0.22688  0.65103  1.0000
  H   H856      1.0  0.39650  0.11608  0.53260  1.0000
  C   C1097     1.0  0.36705  0.03293  0.50637  1.0000
  H   H857      1.0  0.42720  0.06271  0.52279  1.0000
  H   H858      1.0  0.57992  0.43570  0.71813  1.0000
  H   H859      1.0  0.62004  0.46584  0.61592  1.0000
  H   H860      1.0  0.47967  0.13284  0.55164  1.0000
  H   H861      1.0  0.57816  0.38183  0.61130  1.0000
  C   C1098     1.0  0.51765  0.17675  0.70153  1.0000
  C   C1099     1.0  0.39042  0.00048  0.57200  1.0000
  H   H862      1.0  0.61117  0.37621  0.69364  1.0000
  H   H863      1.0  0.49494  0.13284  0.57871  1.0000
  H   H864      1.0  0.63717  0.26290  0.70002  1.0000
  C   C1100     1.0  0.50519  0.20018  0.59245  1.0000
  C   C1101     1.0  0.52954  0.20909  0.58551  1.0000
  C   C1102     1.0  0.53113  0.20453  0.56987  1.0000
  C   C1103     1.0  0.50847  0.19114  0.56097  1.0000
  C   C1104     1.0  0.48410  0.18200  0.56791  1.0000
  C   C1105     1.0  0.48249  0.18654  0.58358  1.0000
  H   H865      1.0  0.54715  0.21939  0.59221  1.0000
  H   H866      1.0  0.55008  0.21146  0.56462  1.0000
  H   H867      1.0  0.46653  0.17143  0.56122  1.0000
  H   H868      1.0  0.46357  0.17935  0.58888  1.0000
  C   C1106     1.0  0.54034  0.24019  0.70428  1.0000
  C   C1107     1.0  0.52497  0.23726  0.71725  1.0000
  C   C1108     1.0  0.53499  0.23765  0.73201  1.0000
  H   H869      1.0  0.65021  0.19307  0.64834  1.0000
  C   C1109     1.0  0.56605  0.24418  0.70624  1.0000
  H   H870      1.0  0.50499  0.23402  0.71584  1.0000
  H   H871      1.0  0.57805  0.24662  0.69636  1.0000
  C   C1110     1.0  0.59676  0.38418  0.65907  1.0000
  C   C1111     1.0  0.57753  0.35828  0.66011  1.0000
  C   C1112     1.0  0.57980  0.33843  0.65177  1.0000
  C   C1113     1.0  0.60108  0.34459  0.64216  1.0000
  C   C1114     1.0  0.62016  0.37053  0.64103  1.0000
  C   C1115     1.0  0.61803  0.39029  0.64947  1.0000
  H   H872      1.0  0.56091  0.35357  0.66739  1.0000
  H   H873      1.0  0.56497  0.31845  0.65266  1.0000
  H   H874      1.0  0.63679  0.37533  0.63374  1.0000
  H   H875      1.0  0.63287  0.41019  0.64858  1.0000
  C   C1116     1.0  0.44925  0.22555  0.53054  1.0000
  C   C1117     1.0  0.40680  0.13597  0.56954  1.0000
  C   C1118     1.0  0.44509  0.09419  0.60188  1.0000
  H   H876      1.0  0.60658  0.17895  0.66965  1.0000
  C   C1119     1.0  0.65257  0.43481  0.71959  1.0000
  C   C1120     1.0  0.61094  0.36690  0.56627  1.0000
  C   C1121     1.0  0.64544  0.19958  0.69614  1.0000
  C   C1122     1.0  0.65780  0.39532  0.72115  1.0000
  H   H877      1.0  0.44357  0.04760  0.58974  1.0000
  C   C1123     1.0  0.61418  0.37317  0.59784  1.0000
  C   C1124     1.0  0.57605  0.24453  0.72097  1.0000
  C   C1125     1.0  0.58332  0.11815  0.49528  1.0000
  C   C1126     1.0  0.49440  0.13718  0.60281  1.0000
  C   C1127     1.0  0.59082  0.38417  0.72805  1.0000
  H   H878      1.0  0.42554  0.07824  0.60167  1.0000
  H   H879      1.0  0.66127  0.48051  0.60370  1.0000
  H   H880      1.0  0.48822  0.13842  0.62684  1.0000
  C   C1128     1.0  0.65690  0.44106  0.60538  1.0000
  H   H881      1.0  0.56257  0.17467  0.72593  1.0000
  H   H882      1.0  0.64794  0.18208  0.69460  1.0000
  H   H883      1.0  0.63574  0.17764  0.72384  1.0000
  H   H884      1.0  0.48025  0.33153  0.52443  1.0000
  C   C1129     1.0  0.56609  0.39915  0.62914  1.0000
  C   C1130     1.0  0.45921  0.10306  0.58834  1.0000
  C   C1131     1.0  0.62019  0.44582  0.58247  1.0000
  C   C1132     1.0  0.60926  0.34912  0.59131  1.0000
  C   C1133     1.0  0.47466  0.07141  0.55367  1.0000
  C   C1134     1.0  0.51701  0.05318  0.49803  1.0000
  C   C1135     1.0  0.63957  0.24524  0.69920  1.0000
  C   C1136     1.0  0.61792  0.22087  0.70059  1.0000
  C   C1137     1.0  0.62075  0.19788  0.69929  1.0000
  H   H885      1.0  0.40251  0.14791  0.57756  1.0000
  P   P38       1.0  0.59300  0.16632  0.70145  1.0000
  C   C1138     1.0  0.59505  0.15130  0.71912  1.0000
  C   C1139     1.0  0.56326  0.17002  0.70142  1.0000
  C   C1140     1.0  0.55294  0.17377  0.71519  1.0000
  H   H886      1.0  0.44458  0.09997  0.62611  1.0000
  C   C1141     1.0  0.59804  0.31301  0.73611  1.0000
  C   C1142     1.0  0.52799  0.17353  0.68778  1.0000
  C   C1143     1.0  0.55075  0.17026  0.68768  1.0000
  H   H887      1.0  0.65722  0.37810  0.71571  1.0000
  C   C1144     1.0  0.49488  0.07444  0.54381  1.0000
  C   C1145     1.0  0.42696  0.03912  0.58207  1.0000
  C   C1146     1.0  0.56579  0.39940  0.70569  1.0000
  C   C1147     1.0  0.63759  0.47797  0.56239  1.0000
  C   C1148     1.0  0.59235  0.14651  0.68524  1.0000
  C   C1149     1.0  0.60008  0.15819  0.67097  1.0000
  C   C1150     1.0  0.59898  0.14315  0.65818  1.0000
  C   C1151     1.0  0.59039  0.11629  0.65955  1.0000
  C   C1152     1.0  0.58286  0.10448  0.67375  1.0000
  C   C1153     1.0  0.58378  0.11950  0.68656  1.0000
  H   H888      1.0  0.64296  0.26382  0.65491  1.0000
  H   H889      1.0  0.51314  0.15440  0.60313  1.0000
  H   H890      1.0  0.60134  0.42197  0.73819  1.0000
  H   H891      1.0  0.59898  0.21996  0.70248  1.0000
  C   C1154     1.0  0.58185  0.32516  0.73355  1.0000
  C   C1155     1.0  0.42100  0.12282  0.57429  1.0000
  H   H892      1.0  0.51581  0.13818  0.53465  1.0000
  H   H893      1.0  0.65882  0.40484  0.61039  1.0000
  H   H894      1.0  0.51865  0.17429  0.67718  1.0000
  H   H895      1.0  0.55864  0.16843  0.67684  1.0000
  H   H896      1.0  0.61347  0.48300  0.71951  1.0000
  H   H897      1.0  0.60947  0.36440  0.55402  1.0000
  H   H898      1.0  0.61514  0.37500  0.61010  1.0000
  H   H899      1.0  0.55513  0.36206  0.69534  1.0000
  H   H900      1.0  0.61870  0.40700  0.56531  1.0000
  C   C1156     1.0  0.38532  0.01585  0.56152  1.0000
  H   H901      1.0  0.60456  0.15246  0.64718  1.0000
  H   H902      1.0  0.58943  0.10464  0.64960  1.0000
  H   H903      1.0  0.57612  0.08363  0.67479  1.0000
  H   H904      1.0  0.57770  0.10990  0.69738  1.0000
  C   C1157     1.0  0.60510  0.44701  0.61944  1.0000
  C   C1158     1.0  0.60754  0.34592  0.57554  1.0000
  C   C1159     1.0  0.42682  0.10734  0.56396  1.0000
  H   H905      1.0  0.65087  0.33933  0.66992  1.0000
  H   H906      1.0  0.43749  0.22072  0.52024  1.0000
  Fe  Fe75      1.0  0.62796  0.44839  0.66803  1.0000
  C   C1160     1.0  0.48395  0.12476  0.58893  1.0000
  C   C1161     1.0  0.41119  0.01211  0.58229  1.0000
  C   C1162     1.0  0.65846  0.21328  0.65194  1.0000
  C   C1163     1.0  0.65439  0.25314  0.65563  1.0000
  C   C1164     1.0  0.60479  0.31462  0.69752  1.0000
  C   C1165     1.0  0.61759  0.39445  0.58868  1.0000
  C   C1166     1.0  0.65352  0.41345  0.71249  1.0000
  C   C1167     1.0  0.64154  0.46397  0.57426  1.0000
  C   C1168     1.0  0.55008  0.46133  0.69964  1.0000
  C   C1169     1.0  0.63312  0.36051  0.68145  1.0000
  C   C1170     1.0  0.65660  0.26641  0.61972  1.0000
  H   H907      1.0  0.48343  0.27211  0.71804  1.0000
  H   H908      1.0  0.38655  0.14327  0.55086  1.0000
  H   H909      1.0  0.64834  0.15728  0.50068  1.0000
  H   H910      1.0  0.55705  0.40566  0.69664  1.0000
  H   H911      1.0  0.36959  0.00669  0.55327  1.0000
  C   C1171     1.0  0.33863  0.49401  0.52015  1.0000
  H   H912      1.0  0.55812  0.42144  0.64636  1.0000
  H   H913      1.0  0.42735  0.12497  0.58603  1.0000
  H   H914      1.0  0.64964  0.24499  0.73280  1.0000
  C   C1172     1.0  0.61607  0.39109  0.57278  1.0000
  P   P39       1.0  0.62432  0.42589  0.59713  1.0000
  H   H915      1.0  0.55451  0.12239  0.71844  1.0000
  C   C1173     1.0  0.56982  0.42219  0.63656  1.0000
  C   C1174     1.0  0.59102  0.45573  0.56656  1.0000
  H   H916      1.0  0.46561  0.06350  0.50932  1.0000
  C   C1175     1.0  0.59105  0.40864  0.72897  1.0000
  P   P40       1.0  0.44410  0.08923  0.57020  1.0000
  H   H917      1.0  0.46368  0.05267  0.55896  1.0000
  H   H918      1.0  0.55133  0.38057  0.63316  1.0000
  H   H919      1.0  0.56474  0.11623  0.49929  1.0000
  H   H920      1.0  0.48243  0.25588  0.51993  1.0000
  C   C1176     1.0  0.57275  0.13014  0.72478  1.0000
  H   H921      1.0  0.51026  0.34935  0.50265  1.0000
  H   H922      1.0  0.62550  0.29844  0.68409  1.0000
  H   H923      1.0  0.39668  0.05404  0.55288  1.0000
  C   C1177     1.0  0.39791  0.13345  0.55453  1.0000
  C   C1178     1.0  0.50970  0.09848  0.53694  1.0000
  H   H924      1.0  0.65749  0.32461  0.58362  1.0000
  H   H925      1.0  0.57148  0.45260  0.56353  1.0000
  H   H926      1.0  0.60637  0.33283  0.59857  1.0000
  H   H927      1.0  0.60931  0.48431  0.54911  1.0000
  C   C1179     1.0  0.46899  0.09244  0.55667  1.0000
  H   H928      1.0  0.49919  0.05818  0.54159  1.0000
  C   C1180     1.0  0.45569  0.10663  0.61575  1.0000
  C   C1181     1.0  0.42170  0.05485  0.57174  1.0000
  C   C1182     1.0  0.49485  0.05002  0.50614  1.0000
  C   C1183     1.0  0.54207  0.30810  0.69124  1.0000
  C   C1184     1.0  0.41854  0.10568  0.54878  1.0000
  S   S155      1.0  0.62124  0.48295  0.67409  1.0000
  H   H929      1.0  0.41924  0.19586  0.54378  1.0000
  C   C1185     1.0  0.57882  0.41637  0.71770  1.0000
  H   H930      1.0  0.60808  0.30889  0.72698  1.0000
  H   H931      1.0  0.51532  0.28738  0.67307  1.0000
  H   H932      1.0  0.55821  0.31742  0.68352  1.0000
  H   H933      1.0  0.60328  0.32707  0.57058  1.0000
  C   C1186     1.0  0.58906  0.44614  0.63156  1.0000
  C   C1187     1.0  0.43893  0.21157  0.54382  1.0000
  C   C1188     1.0  0.45417  0.21757  0.55704  1.0000
  C   C1189     1.0  0.47971  0.23765  0.55703  1.0000
  C   C1190     1.0  0.49015  0.25208  0.54377  1.0000
  C   C1191     1.0  0.47481  0.24551  0.53043  1.0000
  P   P41       1.0  0.52265  0.27908  0.54364  1.0000
  C   C1192     1.0  0.52078  0.30370  0.53162  1.0000
  C   C1193     1.0  0.53274  0.29081  0.56289  1.0000
  C   C1194     1.0  0.53281  0.31397  0.56826  1.0000
  C   C1195     1.0  0.53981  0.32201  0.58339  1.0000
  C   C1196     1.0  0.54667  0.30697  0.59323  1.0000
  C   C1197     1.0  0.54703  0.28414  0.58790  1.0000
  C   C1198     1.0  0.54035  0.27623  0.57277  1.0000
  C   C1199     1.0  0.53788  0.31417  0.51934  1.0000
  C   C1200     1.0  0.53426  0.33088  0.50909  1.0000
  C   C1201     1.0  0.51353  0.33713  0.51094  1.0000
  C   C1202     1.0  0.49659  0.32701  0.52318  1.0000
  C   C1203     1.0  0.50016  0.31036  0.53348  1.0000
  C   C1204     1.0  0.54609  0.26912  0.53616  1.0000
  C   C1205     1.0  0.53801  0.24619  0.52749  1.0000
  C   C1206     1.0  0.55636  0.23838  0.52208  1.0000
  C   C1207     1.0  0.58289  0.25353  0.52515  1.0000
  C   C1208     1.0  0.59117  0.27669  0.53356  1.0000
  C   C1209     1.0  0.57285  0.28448  0.53905  1.0000
  H   H934      1.0  0.44634  0.20647  0.56729  1.0000
  H   H935      1.0  0.49099  0.24162  0.56743  1.0000
  H   H936      1.0  0.52732  0.32576  0.56091  1.0000
  H   H937      1.0  0.53968  0.33977  0.58755  1.0000
  H   H938      1.0  0.55178  0.31297  0.60502  1.0000
  H   H939      1.0  0.55204  0.27229  0.59559  1.0000
  H   H940      1.0  0.54036  0.25825  0.56889  1.0000
  H   H941      1.0  0.55348  0.30888  0.51730  1.0000
  C   C1210     1.0  0.61919  0.15003  0.74167  1.0000
  H   H942      1.0  0.48630  0.30195  0.54261  1.0000
  H   H943      1.0  0.51750  0.23383  0.52526  1.0000
  H   H944      1.0  0.54983  0.22010  0.51586  1.0000
  H   H945      1.0  0.59693  0.24709  0.52114  1.0000
  H   H946      1.0  0.61174  0.28834  0.53601  1.0000
  H   H947      1.0  0.57946  0.30234  0.54565  1.0000
  C   C1211     1.0  0.63723  0.33866  0.67864  1.0000
  H   H948      1.0  0.52615  0.04071  0.50059  1.0000
  C   C1212     1.0  0.50423  0.11946  0.53990  1.0000
  H   H949      1.0  0.65061  0.41086  0.70031  1.0000
  C   C1213     1.0  0.51762  0.29126  0.68520  1.0000
  H   H950      1.0  0.59279  0.29628  0.70294  1.0000
  H   H951      1.0  0.42312  0.09435  0.54048  1.0000
  H   H952      1.0  0.57811  0.42785  0.58461  1.0000
  C   C1214     1.0  0.56046  0.24074  0.73390  1.0000
  H   H953      1.0  0.41546  0.01658  0.52925  1.0000
  C   C1215     1.0  0.59548  0.47878  0.49581  1.0000
  H   H954      1.0  0.50052  0.18017  0.70149  1.0000
  H   H955      1.0  0.59206  0.46408  0.63730  1.0000
  C   C1216     1.0  0.59489  0.44184  0.57852  1.0000
  H   H956      1.0  0.52618  0.30199  0.72881  1.0000
  C   C1217     1.0  0.60216  0.42389  0.61224  1.0000
  C   C1218     1.0  0.48028  0.12820  0.61619  1.0000
  H   H957      1.0  0.52539  0.10089  0.52929  1.0000
  P   P42       1.0  0.57710  0.33509  0.71464  1.0000
  C   C1219     1.0  0.56484  0.37462  0.70495  1.0000
  C   C1220     1.0  0.37774  0.00047  0.51818  1.0000
  C   C1221     1.0  0.40085  0.04287  0.56136  1.0000
  C   C1222     1.0  0.54559  0.31242  0.70702  1.0000
  H   H958      1.0  0.47780  0.26460  0.69016  1.0000
  H   H959      1.0  0.65412  0.49236  0.55628  1.0000
  Fe  Fe76      1.0  0.45372  0.18503  0.49706  1.0000
  C   C1223     1.0  0.49973  0.28251  0.71055  1.0000
  C   C1224     1.0  0.60624  0.13818  0.50133  1.0000
  C   C1225     1.0  0.40363  0.11819  0.54421  1.0000
  C   C1226     1.0  0.62450  0.48870  0.73003  1.0000
  C   C1227     1.0  0.58191  0.39997  0.61689  1.0000
  C   C1228     1.0  0.48372  0.11638  0.54954  1.0000
  S   S156      1.0  0.61103  0.48467  0.51373  1.0000
  C   C1229     1.0  0.61500  0.35949  0.69235  1.0000
  C   C1230     1.0  0.61235  0.47370  0.55846  1.0000
  C   C1231     1.0  0.53017  0.17697  0.71522  1.0000
  C   C1232     1.0  0.60141  0.33686  0.70095  1.0000
  C   C1233     1.0  0.49648  0.27836  0.69485  1.0000
  C   C1234     1.0  0.57731  0.36673  0.71614  1.0000
  H   H960      1.0  0.54777  0.45719  0.72400  1.0000
  C   C1235     1.0  0.62298  0.31567  0.68665  1.0000
  C   C1236     1.0  0.63057  0.14151  0.49620  1.0000
  H   H961      1.0  0.63587  0.25407  0.62107  1.0000
  C   C1237     1.0  0.36053  0.00663  0.50975  1.0000
  H   H962      1.0  0.52268  0.18050  0.72583  1.0000
  C   C1238     1.0  0.55550  0.47060  0.71461  1.0000
  H   H963      1.0  0.59589  0.24739  0.72239  1.0000
  C   C1239     1.0  0.61833  0.16111  0.72768  1.0000
  H   H964      1.0  0.64339  0.37805  0.67485  1.0000
  C   C1240     1.0  0.48286  0.06600  0.50312  1.0000
  S   S157      1.0  0.65170  0.46618  0.64725  1.0000
  H   H965      1.0  0.53823  0.44070  0.69737  1.0000
  C   C1241     1.0  0.57370  0.11907  0.73875  1.0000
  H   H966      1.0  0.54694  0.33835  0.49936  1.0000
  H   H967      1.0  0.64773  0.44816  0.71322  1.0000
  H   H968      1.0  0.60514  0.15139  0.50983  1.0000
  H   H969      1.0  0.55576  0.47153  0.67594  1.0000
  C   C1242     1.0  0.55991  0.47869  0.68757  1.0000
  H   H970      1.0  0.60540  0.20855  0.73196  1.0000
  H   H971      1.0  0.41529  0.00008  0.59029  1.0000
  H   H972      1.0  0.35320  0.03739  0.50019  1.0000
  H   H973      1.0  0.48685  0.03513  0.51475  1.0000
  H   H974      1.0  0.66099  0.16846  0.58725  1.0000
  H   H975      1.0  0.52276  0.23469  0.74185  1.0000
  C   C1243     1.0  0.37578  0.46900  0.49361  1.0000
  H   H976      1.0  0.35355  0.49650  0.52848  1.0000
  H   H977      1.0  0.65643  0.45561  0.74039  1.0000
  H   H978      1.0  0.38536  0.43671  0.49412  1.0000
  C   C1244     1.0  0.66102  0.33817  0.60675  1.0000
  H   H979      1.0  0.54734  0.26040  0.49476  1.0000
  H   H980      1.0  0.59582  0.28058  0.49531  1.0000
  C   C1245     1.0  0.66243  0.39929  0.73681  1.0000
  H   H981      1.0  0.66124  0.46757  0.57698  1.0000
  H   H982      1.0  0.66320  0.23599  0.60951  1.0000
  H   H983      1.0  0.62417  0.44112  0.49628  1.0000
  H   H984      1.0  0.65578  0.29948  0.63101  1.0000
  Fe  Fe77      1.0  0.65791  0.49627  0.68819  1.0000
  C   C1246     1.0  0.65745  0.43896  0.73512  1.0000
  H   H985      1.0  0.66321  0.14839  0.61180  1.0000
  S   S158      1.0  0.66273  0.46030  0.68330  1.0000
  C   C1247     1.0  0.61635  0.21340  0.74250  1.0000
  S   S159      1.0  0.57355  0.39806  0.82756  1.0000
  Fe  Fe78      1.0  0.59754  0.22849  0.80384  1.0000
  S   S160      1.0  0.58635  0.25022  0.82108  1.0000
  S   S161      1.0  0.62058  0.20750  0.81140  1.0000
  Fe  Fe79      1.0  0.56866  0.23999  0.77756  1.0000
  S   S162      1.0  0.55409  0.26223  0.79310  1.0000
  S   S163      1.0  0.57342  0.23794  0.75180  1.0000
  Fe  Fe80      1.0  0.59458  0.28016  0.80307  1.0000
  S   S164      1.0  0.62134  0.32236  0.80794  1.0000
  Fe  Fe81      1.0  0.54668  0.23033  0.81035  1.0000
  S   S165      1.0  0.51138  0.21175  0.82598  1.0000
  S   S166      1.0  0.60971  0.26031  0.78678  1.0000
  S   S167      1.0  0.55743  0.20635  0.79388  1.0000
  C   C1248     1.0  0.58396  0.39505  0.78091  1.0000
  Fe  Fe82      1.0  0.49293  0.18097  0.91465  1.0000
  S   S168      1.0  0.44996  0.16870  0.91298  1.0000
  S   S169      1.0  0.52460  0.20404  0.89765  1.0000
  Fe  Fe83      1.0  0.48788  0.15928  0.94674  1.0000
  S   S170      1.0  0.44471  0.14622  0.94758  1.0000
  S   S171      1.0  0.50510  0.14810  0.96671  1.0000
  Fe  Fe84      1.0  0.44457  0.13085  0.92401  1.0000
  S   S172      1.0  0.41906  0.08958  0.91469  1.0000
  Fe  Fe85      1.0  0.45458  0.18531  0.93690  1.0000
  S   S173      1.0  0.43684  0.21251  0.94366  1.0000
  S   S174      1.0  0.48751  0.14231  0.92373  1.0000
  S   S175      1.0  0.49781  0.19920  0.93795  1.0000
  C   C1249     1.0  0.45146  0.24135  0.95514  1.0000
  C   C1250     1.0  0.43659  0.25444  0.95912  1.0000
  C   C1251     1.0  0.44752  0.27773  0.96785  1.0000
  C   C1252     1.0  0.47361  0.28840  0.97260  1.0000
  C   C1253     1.0  0.48845  0.27521  0.96873  1.0000
  C   C1254     1.0  0.47749  0.25187  0.96006  1.0000
  H   H986      1.0  0.41645  0.24652  0.95540  1.0000
  H   H987      1.0  0.66128  0.19810  0.82445  1.0000
  H   H988      1.0  0.63104  0.44875  0.76435  1.0000
  H   H989      1.0  0.48922  0.24213  0.95710  1.0000
  H   H990      1.0  0.59757  0.12062  0.75811  1.0000
  C   C1255     1.0  0.58153  0.19881  0.96250  1.0000
  C   C1256     1.0  0.55453  0.18534  0.95978  1.0000
  C   C1257     1.0  0.53885  0.16528  0.96951  1.0000
  C   C1258     1.0  0.46743  0.08118  0.98200  1.0000
  H   H991      1.0  0.59366  0.21439  0.95503  1.0000
  H   H992      1.0  0.54583  0.19048  0.95025  1.0000
  C   C1259     1.0  0.59766  0.38028  0.78249  1.0000
  C   C1260     1.0  0.38209  0.00947  0.93846  1.0000
  S   S176      1.0  0.62659  0.20927  0.97808  1.0000
  P   P43       1.0  0.47240  0.00001  0.95116  1.0000
  H   H993      1.0  0.49439  0.01538  0.92072  1.0000
  C   C1261     1.0  0.58894  0.31067  0.76309  1.0000
  C   C1262     1.0  0.58812  0.46769  0.99177  1.0000
  C   C1263     1.0  0.38533  0.01119  0.92268  1.0000
  C   C1264     1.0  0.39731  0.03586  0.91564  1.0000
  C   C1265     1.0  0.40668  0.05911  0.92428  1.0000
  C   C1266     1.0  0.40454  0.05738  0.94012  1.0000
  C   C1267     1.0  0.39203  0.03274  0.94712  1.0000
  H   H994      1.0  0.63799  0.26074  0.90969  1.0000
  H   H995      1.0  0.39878  0.03693  0.90338  1.0000
  H   H996      1.0  0.41145  0.07504  0.94693  1.0000
  H   H997      1.0  0.38947  0.03175  0.95930  1.0000
  C   C1268     1.0  0.51492  0.21079  0.84605  1.0000
  C   C1269     1.0  0.49269  0.19780  0.85515  1.0000
  C   C1270     1.0  0.49512  0.19576  0.87103  1.0000
  C   C1271     1.0  0.51985  0.20687  0.87793  1.0000
  C   C1272     1.0  0.54188  0.22062  0.86892  1.0000
  C   C1273     1.0  0.53946  0.22241  0.85312  1.0000
  H   H998      1.0  0.47356  0.18890  0.84986  1.0000
  H   H999      1.0  0.47793  0.18535  0.87786  1.0000
  H   H1000     1.0  0.56106  0.22968  0.87411  1.0000
  H   H1001     1.0  0.55667  0.23267  0.84645  1.0000
  C   C1274     1.0  0.60153  0.39503  0.97702  1.0000
  H   H1002     1.0  0.34660  0.44984  0.98102  1.0000
  H   H1003     1.0  0.58509  0.18417  0.75531  1.0000
  C   C1275     1.0  0.58670  0.37659  0.82275  1.0000
  C   C1276     1.0  0.57016  0.35006  0.82009  1.0000
  C   C1277     1.0  0.58057  0.33296  0.81587  1.0000
  C   C1278     1.0  0.60758  0.34249  0.81428  1.0000
  C   C1279     1.0  0.62410  0.36883  0.81735  1.0000
  C   C1280     1.0  0.61369  0.38584  0.82156  1.0000
  H   H1004     1.0  0.54930  0.34290  0.82093  1.0000
  H   H1005     1.0  0.56772  0.31261  0.81357  1.0000
  H   H1006     1.0  0.65851  0.47783  0.87657  1.0000
  H   H1007     1.0  0.62662  0.40616  0.82382  1.0000
  H   H1008     1.0  0.44719  0.10929  0.83743  1.0000
  C   C1281     1.0  0.55609  0.38493  0.98005  1.0000
  C   C1282     1.0  0.65162  0.29909  0.96660  1.0000
  C   C1283     1.0  0.57675  0.48417  0.96902  1.0000
  H   H1009     1.0  0.55620  0.33869  0.74443  1.0000
  S   S177      1.0  0.63129  0.45004  0.80470  1.0000
  C   C1284     1.0  0.64133  0.31319  0.99057  1.0000
  C   C1285     1.0  0.54822  0.04936  0.99239  1.0000
  H   H1010     1.0  0.48025  0.28045  0.81778  1.0000
  C   C1286     1.0  0.46807  0.04255  0.93876  1.0000
  Fe  Fe86      1.0  0.60311  0.43988  0.82383  1.0000
  C   C1287     1.0  0.61156  0.48354  0.74415  1.0000
  C   C1288     1.0  0.51120  0.10702  0.89434  1.0000
  C   C1289     1.0  0.50284  0.08075  0.89023  1.0000
  H   H1011     1.0  0.53560  0.46860  0.96422  1.0000
  C   C1290     1.0  0.46450  0.08549  0.86875  1.0000
  H   H1012     1.0  0.53870  0.06590  0.91606  1.0000
  H   H1013     1.0  0.58139  0.11776  0.97393  1.0000
  H   H1014     1.0  0.58840  0.18060  0.93301  1.0000
  C   C1291     1.0  0.50105  0.31050  0.83446  1.0000
  C   C1292     1.0  0.45329  0.09479  0.87990  1.0000
  H   H1015     1.0  0.49705  0.32509  0.82882  1.0000
  C   C1293     1.0  0.60140  0.16546  0.91411  1.0000
  C   C1294     1.0  0.58919  0.17929  0.92073  1.0000
  C   C1295     1.0  0.57831  0.19167  0.91149  1.0000
  C   C1296     1.0  0.57936  0.18997  0.89566  1.0000
  C   C1297     1.0  0.59046  0.17511  0.88891  1.0000
  C   C1298     1.0  0.60224  0.16354  0.89826  1.0000
  P   P44       1.0  0.59266  0.17401  0.86843  1.0000
  C   C1299     1.0  0.56297  0.16811  0.85842  1.0000
  C   C1300     1.0  0.61962  0.20445  0.86312  1.0000
  C   C1301     1.0  0.61566  0.22325  0.85481  1.0000
  C   C1302     1.0  0.43121  0.00287  0.96699  1.0000
  H   H1016     1.0  0.65963  0.35188  0.77047  1.0000
  C   C1303     1.0  0.55277  0.26461  0.94972  1.0000
  C   C1304     1.0  0.64324  0.22821  0.77023  1.0000
  C   C1305     1.0  0.56323  0.16989  0.84248  1.0000
  C   C1306     1.0  0.54017  0.16396  0.83441  1.0000
  C   C1307     1.0  0.51660  0.15562  0.84213  1.0000
  C   C1308     1.0  0.51610  0.15336  0.85796  1.0000
  C   C1309     1.0  0.53918  0.15957  0.86609  1.0000
  C   C1310     1.0  0.59837  0.14690  0.86246  1.0000
  C   C1311     1.0  0.58389  0.12219  0.86888  1.0000
  C   C1312     1.0  0.58747  0.10082  0.86389  1.0000
  C   C1313     1.0  0.60513  0.10387  0.85225  1.0000
  C   C1314     1.0  0.61904  0.12825  0.84551  1.0000
  C   C1315     1.0  0.61557  0.14968  0.85051  1.0000
  C   C1316     1.0  0.61720  0.26813  0.98234  1.0000
  H   H1017     1.0  0.57134  0.20012  0.88866  1.0000
  H   H1018     1.0  0.61240  0.15332  0.89339  1.0000
  H   H1019     1.0  0.59627  0.22012  0.85148  1.0000
  H   H1020     1.0  0.60900  0.19708  0.77984  1.0000
  C   C1317     1.0  0.63705  0.24624  0.85034  1.0000
  C   C1318     1.0  0.60485  0.19973  0.75570  1.0000
  C   C1319     1.0  0.55011  0.15866  0.98184  1.0000
  H   H1021     1.0  0.58133  0.17622  0.83626  1.0000
  H   H1022     1.0  0.54066  0.16642  0.82218  1.0000
  H   H1023     1.0  0.49891  0.15196  0.83589  1.0000
  H   H1024     1.0  0.49793  0.14761  0.86397  1.0000
  H   H1025     1.0  0.53830  0.15794  0.87831  1.0000
  H   H1026     1.0  0.56967  0.11942  0.87765  1.0000
  H   H1027     1.0  0.57631  0.08181  0.86889  1.0000
  H   H1028     1.0  0.60785  0.08730  0.84833  1.0000
  H   H1029     1.0  0.63242  0.13057  0.83631  1.0000
  H   H1030     1.0  0.62602  0.16824  0.84484  1.0000
  Fe  Fe87      1.0  0.62124  0.48267  0.79941  1.0000
  C   C1320     1.0  0.49684  0.26663  0.83548  1.0000
  C   C1321     1.0  0.51601  0.31695  0.84784  1.0000
  C   C1322     1.0  0.52189  0.29831  0.85497  1.0000
  C   C1323     1.0  0.51178  0.27299  0.84886  1.0000
  P   P45       1.0  0.54040  0.30582  0.87249  1.0000
  C   C1324     1.0  0.55828  0.34078  0.87473  1.0000
  C   C1325     1.0  0.51697  0.28938  0.88726  1.0000
  C   C1326     1.0  0.49991  0.29931  0.89225  1.0000
  C   C1327     1.0  0.48102  0.28598  0.90321  1.0000
  C   C1328     1.0  0.47870  0.26243  0.90908  1.0000
  C   C1329     1.0  0.49484  0.25188  0.90370  1.0000
  C   C1330     1.0  0.51372  0.26514  0.89275  1.0000
  C   C1331     1.0  0.55686  0.35361  0.88809  1.0000
  C   C1332     1.0  0.57127  0.38073  0.88942  1.0000
  C   C1333     1.0  0.58749  0.39509  0.87762  1.0000
  C   C1334     1.0  0.58939  0.38241  0.86446  1.0000
  C   C1335     1.0  0.57490  0.35539  0.86301  1.0000
  C   C1336     1.0  0.56573  0.29535  0.87144  1.0000
  C   C1337     1.0  0.57658  0.29408  0.85736  1.0000
  C   C1338     1.0  0.59766  0.28810  0.85671  1.0000
  C   C1339     1.0  0.60796  0.28318  0.87005  1.0000
  C   C1340     1.0  0.59744  0.28464  0.88412  1.0000
  C   C1341     1.0  0.57663  0.29104  0.88484  1.0000
  H   H1031     1.0  0.52307  0.33651  0.85243  1.0000
  H   H1032     1.0  0.51549  0.25818  0.85441  1.0000
  H   H1033     1.0  0.50083  0.31706  0.88746  1.0000
  H   H1034     1.0  0.46773  0.29354  0.90693  1.0000
  H   H1035     1.0  0.46391  0.25195  0.91750  1.0000
  H   H1036     1.0  0.49233  0.23307  0.90777  1.0000
  H   H1037     1.0  0.52521  0.25599  0.88833  1.0000
  H   H1038     1.0  0.54508  0.34284  0.89755  1.0000
  H   H1039     1.0  0.57010  0.39076  0.89960  1.0000
  C   C1342     1.0  0.63593  0.41519  0.77122  1.0000
  H   H1040     1.0  0.57655  0.34596  0.85263  1.0000
  H   H1041     1.0  0.56915  0.29810  0.84685  1.0000
  H   H1042     1.0  0.60622  0.28766  0.84582  1.0000
  H   H1043     1.0  0.62431  0.27860  0.86946  1.0000
  H   H1044     1.0  0.60541  0.28081  0.89446  1.0000
  H   H1045     1.0  0.56901  0.29257  0.89583  1.0000
  H   H1046     1.0  0.53156  0.09453  0.95762  1.0000
  H   H1047     1.0  0.58535  0.43105  0.77289  1.0000
  H   H1048     1.0  0.61045  0.15645  0.92129  1.0000
  C   C1343     1.0  0.47542  0.06913  0.93683  1.0000
  H   H1049     1.0  0.61270  0.29505  0.75264  1.0000
  H   H1050     1.0  0.52035  0.02331  0.84115  1.0000
  H   H1051     1.0  0.56030  0.43968  0.84450  1.0000
  C   C1344     1.0  0.59520  0.37926  0.96394  1.0000
  C   C1345     1.0  0.56927  0.36668  0.95861  1.0000
  C   C1346     1.0  0.54969  0.36925  0.96696  1.0000
  P   P46       1.0  0.56131  0.34750  0.94121  1.0000
  C   C1347     1.0  0.53060  0.34519  0.93422  1.0000
  C   C1348     1.0  0.58681  0.36398  0.92743  1.0000
  C   C1349     1.0  0.60011  0.39139  0.92722  1.0000
  C   C1350     1.0  0.62006  0.40425  0.91676  1.0000
  C   C1351     1.0  0.62692  0.38984  0.90640  1.0000
  C   C1352     1.0  0.61381  0.36258  0.90648  1.0000
  C   C1353     1.0  0.59389  0.34968  0.91696  1.0000
  C   C1354     1.0  0.50704  0.32421  0.93860  1.0000
  C   C1355     1.0  0.48313  0.32357  0.93469  1.0000
  C   C1356     1.0  0.48246  0.34384  0.92628  1.0000
  C   C1357     1.0  0.50577  0.36484  0.92186  1.0000
  C   C1358     1.0  0.52978  0.36562  0.92589  1.0000
  C   C1359     1.0  0.55803  0.31508  0.94462  1.0000
  C   C1360     1.0  0.56879  0.30974  0.95774  1.0000
  C   C1361     1.0  0.55029  0.46832  0.97189  1.0000
  C   C1362     1.0  0.33033  0.44433  0.98872  1.0000
  H   H1052     1.0  0.63327  0.37790  0.77852  1.0000
  C   C1363     1.0  0.54470  0.29488  0.93404  1.0000
  C   C1364     1.0  0.54273  0.45214  0.98466  1.0000
  H   H1053     1.0  0.61136  0.46120  0.87653  1.0000
  H   H1054     1.0  0.50396  0.11897  0.88844  1.0000
  H   H1055     1.0  0.61057  0.37723  0.95784  1.0000
  C   C1365     1.0  0.56966  0.05585  0.98285  1.0000
  H   H1056     1.0  0.59511  0.40289  0.93516  1.0000
  H   H1057     1.0  0.63010  0.42542  0.91660  1.0000
  C   C1366     1.0  0.58199  0.39800  0.98500  1.0000
  C   C1367     1.0  0.64898  0.48090  0.88647  1.0000
  H   H1058     1.0  0.58404  0.32862  0.91672  1.0000
  H   H1059     1.0  0.50702  0.30875  0.94556  1.0000
  H   H1060     1.0  0.46512  0.30756  0.93852  1.0000
  H   H1061     1.0  0.46386  0.34352  0.92352  1.0000
  H   H1062     1.0  0.50514  0.38089  0.91578  1.0000
  H   H1063     1.0  0.54755  0.38257  0.92299  1.0000
  C   C1368     1.0  0.33989  0.03946  0.92219  1.0000
  C   C1369     1.0  0.62336  0.39004  0.77743  1.0000
  H   H1064     1.0  0.57785  0.04224  0.98129  1.0000
  C   C1370     1.0  0.53602  0.06447  0.83667  1.0000
  H   H1065     1.0  0.53601  0.29840  0.92389  1.0000
  C   C1371     1.0  0.64507  0.20949  0.86745  1.0000
  H   H1066     1.0  0.65140  0.26355  0.80803  1.0000
  C   C1372     1.0  0.44859  0.02752  0.89418  1.0000
  H   H1067     1.0  0.45824  0.04121  0.90336  1.0000
  C   C1373     1.0  0.57710  0.17186  0.98444  1.0000
  H   H1068     1.0  0.59186  0.30517  0.77446  1.0000
  P   P47       1.0  0.57404  0.46497  0.89906  1.0000
  C   C1374     1.0  0.56012  0.44897  0.91681  1.0000
  C   C1375     1.0  0.55846  0.44269  0.88326  1.0000
  H   H1069     1.0  0.57916  0.47083  0.86578  1.0000
  S   S178      1.0  0.48507  0.38636  0.98904  1.0000
  H   H1070     1.0  0.59908  0.08592  0.96946  1.0000
  H   H1071     1.0  0.63414  0.26014  0.84325  1.0000
  H   H1072     1.0  0.53180  0.25431  0.92839  1.0000
  C   C1376     1.0  0.53453  0.44411  0.92052  1.0000
  C   C1377     1.0  0.52348  0.43214  0.93425  1.0000
  C   C1378     1.0  0.53797  0.42521  0.94448  1.0000
  C   C1379     1.0  0.56352  0.43024  0.94100  1.0000
  C   C1380     1.0  0.57446  0.44166  0.92711  1.0000
  C   C1381     1.0  0.60931  0.47668  0.89890  1.0000
  H   H1073     1.0  0.65275  0.23449  0.78121  1.0000
  H   H1074     1.0  0.61595  0.49563  0.92108  1.0000
  H   H1075     1.0  0.43739  0.02212  0.96239  1.0000
  H   H1076     1.0  0.64211  0.39981  0.89813  1.0000
  C   C1382     1.0  0.62189  0.47165  0.88648  1.0000
  C   C1383     1.0  0.66231  0.25086  0.85446  1.0000
  H   H1077     1.0  0.58851  0.36141  0.78788  1.0000
  C   C1384     1.0  0.57174  0.09839  0.97878  1.0000
  H   H1078     1.0  0.52940  0.35938  0.96345  1.0000
  H   H1079     1.0  0.46313  0.07535  0.93027  1.0000
  H   H1080     1.0  0.53441  0.40972  0.89726  1.0000
  C   C1385     1.0  0.58164  0.08047  0.97620  1.0000
  H   H1081     1.0  0.50869  0.28331  0.97227  1.0000
  C   C1386     1.0  0.48166  0.06888  0.98796  1.0000
  C   C1387     1.0  0.55402  0.49711  0.88581  1.0000
  H   H1082     1.0  0.52324  0.44991  0.91287  1.0000
  H   H1083     1.0  0.50391  0.42888  0.93720  1.0000
  H   H1084     1.0  0.52968  0.41669  0.95534  1.0000
  H   H1085     1.0  0.57500  0.42596  0.94933  1.0000
  H   H1086     1.0  0.59424  0.44532  0.92467  1.0000
  C   C1388     1.0  0.62468  0.49115  0.91132  1.0000
  H   H1087     1.0  0.48935  0.24710  0.83072  1.0000
  H   H1088     1.0  0.44988  0.02834  0.93371  1.0000
  C   C1389     1.0  0.51883  0.08826  0.85205  1.0000
  H   H1089     1.0  0.59857  0.41604  0.87861  1.0000
  H   H1090     1.0  0.43588  0.28765  0.97065  1.0000
  H   H1091     1.0  0.50738  0.04597  0.89479  1.0000
  C   C1390     1.0  0.48343  0.03443  0.94773  1.0000
  H   H1092     1.0  0.54830  0.10584  0.83495  1.0000
  H   H1093     1.0  0.60184  0.39359  0.85524  1.0000
  C   C1391     1.0  0.42858  0.00290  0.89768  1.0000
  C   C1392     1.0  0.65324  0.22882  0.81581  1.0000
  C   C1393     1.0  0.57261  0.32246  0.76069  1.0000
  C   C1394     1.0  0.49163  0.28541  0.82823  1.0000
  H   H1094     1.0  0.56891  0.20254  0.91657  1.0000
  C   C1395     1.0  0.55443  0.43337  0.85606  1.0000
  C   C1396     1.0  0.51316  0.06609  0.89801  1.0000
  C   C1397     1.0  0.53652  0.40755  0.85879  1.0000
  C   C1398     1.0  0.53558  0.08789  0.84065  1.0000
  C   C1399     1.0  0.52917  0.11826  0.90622  1.0000
  H   H1095     1.0  0.51893  0.10658  0.85510  1.0000
  S   S179      1.0  0.63286  0.46476  0.84116  1.0000
  H   H1096     1.0  0.51520  0.37923  0.87574  1.0000
  H   H1097     1.0  0.61618  0.49644  0.97692  1.0000
  H   H1098     1.0  0.57397  0.28039  0.97057  1.0000
  C   C1400     1.0  0.59589  0.41948  0.77404  1.0000
  C   C1401     1.0  0.59284  0.19204  0.97483  1.0000
  H   H1099     1.0  0.56249  0.32575  0.77020  1.0000
  H   H1100     1.0  0.45879  0.07608  0.97073  1.0000
  C   C1402     1.0  0.50202  0.06514  0.85938  1.0000
  H   H1101     1.0  0.64851  0.19530  0.87391  1.0000
  H   H1102     1.0  0.54091  0.38707  0.98634  1.0000
  C   C1403     1.0  0.54001  0.41676  0.88586  1.0000
  C   C1404     1.0  0.61831  0.20710  0.76954  1.0000
  H   H1103     1.0  0.52873  0.39396  0.84931  1.0000
  P   P48       1.0  0.48096  0.06634  0.87427  1.0000
  C   C1405     1.0  0.50309  0.04179  0.85562  1.0000
  H   H1104     1.0  0.46917  0.08245  0.84444  1.0000
  C   C1406     1.0  0.46175  0.09033  0.85335  1.0000
  H   H1105     1.0  0.49108  0.02382  0.86144  1.0000
  C   C1407     1.0  0.45560  0.03438  0.87897  1.0000
  C   C1408     1.0  0.50676  0.05331  0.95424  1.0000
  H   H1106     1.0  0.45431  0.09045  0.89179  1.0000
  C   C1409     1.0  0.51401  0.07989  0.95226  1.0000
  C   C1410     1.0  0.64141  0.23418  0.74308  1.0000
  H   H1107     1.0  0.43234  0.11718  0.88457  1.0000
  C   C1411     1.0  0.44910  0.10539  0.84930  1.0000
  C   C1412     1.0  0.56516  0.45091  0.86818  1.0000
  H   H1108     1.0  0.64502  0.37621  0.81631  1.0000
  C   C1413     1.0  0.43882  0.11537  0.86055  1.0000
  C   C1414     1.0  0.44116  0.01689  0.86732  1.0000
  C   C1415     1.0  0.65626  0.31876  0.97735  1.0000
  H   H1109     1.0  0.50354  0.10838  0.94265  1.0000
  H   H1110     1.0  0.52227  0.44029  0.98690  1.0000
  C   C1416     1.0  0.49822  0.08777  0.94374  1.0000
  C   C1417     1.0  0.56605  0.28456  0.96030  1.0000
  C   C1418     1.0  0.44076  0.10991  0.87583  1.0000
  H   H1111     1.0  0.44529  0.02226  0.85549  1.0000
  H   H1112     1.0  0.42909  0.12710  0.85742  1.0000
  H   H1113     1.0  0.56428  0.38774  0.78523  1.0000
  H   H1114     1.0  0.59048  0.47359  0.74442  1.0000
  C   C1419     1.0  0.53906  0.10345  0.91404  1.0000
  H   H1115     1.0  0.65995  0.29465  0.89049  1.0000
  C   C1420     1.0  0.59570  0.48415  0.97908  1.0000
  S   S180      1.0  0.48942  0.31915  0.98216  1.0000
  H   H1116     1.0  0.55039  0.24503  0.95179  1.0000
  H   H1117     1.0  0.62160  0.40525  0.98091  1.0000
  C   C1421     1.0  0.63225  0.27377  0.96916  1.0000
  C   C1422     1.0  0.52906  0.39931  0.87367  1.0000
  H   H1118     1.0  0.54894  0.06417  0.82778  1.0000
  H   H1119     1.0  0.51898  0.04766  0.96121  1.0000
  H   H1120     1.0  0.35634  0.07168  0.93800  1.0000
  H   H1121     1.0  0.57905  0.32486  0.96607  1.0000
  C   C1423     1.0  0.54223  0.26982  0.93656  1.0000
  C   C1424     1.0  0.53104  0.07736  0.90995  1.0000
  S   S181      1.0  0.59066  0.47051  0.81773  1.0000
  H   H1122     1.0  0.41301  0.44281  0.98641  1.0000
  C   C1425     1.0  0.62183  0.42957  0.76928  1.0000
  H   H1123     1.0  0.62932  0.25822  0.96116  1.0000
  H   H1124     1.0  0.55278  0.11219  0.92336  1.0000
  H   H1125     1.0  0.61884  0.35146  0.89823  1.0000
  H   H1126     1.0  0.53526  0.13846  0.90943  1.0000
  C   C1426     1.0  0.60121  0.30552  0.75079  1.0000
  H   H1127     1.0  0.60277  0.24819  0.98417  1.0000
  H   H1128     1.0  0.54761  0.48391  0.87620  1.0000
  C   C1427     1.0  0.51990  0.04146  0.84421  1.0000
  H   H1129     1.0  0.56544  0.33852  0.99109  1.0000
  H   H1130     1.0  0.48358  0.05391  0.98132  1.0000
  C   C1428     1.0  0.56706  0.49284  0.89828  1.0000
  H   H1131     1.0  0.64578  0.34767  0.86281  1.0000
  H   H1132     1.0  0.64928  0.33150  0.83720  1.0000
  C   C1429     1.0  0.65522  0.24151  0.75692  1.0000
  C   C1430     1.0  0.59690  0.12904  0.74721  1.0000
  H   H1133     1.0  0.59923  0.32299  0.99250  1.0000
  H   H1134     1.0  0.63710  0.15798  0.74832  1.0000
  C   C1431     1.0  0.46494  0.10068  0.99040  1.0000
  Fe  Fe88      1.0  0.62265  0.49654  0.83380  1.0000
  H   H1135     1.0  0.45458  0.11077  0.98556  1.0000
  H   H1136     1.0  0.35272  0.05027  0.91303  1.0000
  H   H1137     1.0  0.54316  0.10615  0.99034  1.0000
  C   C1432     1.0  0.34190  0.05158  0.93628  1.0000
  C   C1433     1.0  0.56902  0.32962  0.74602  1.0000
  H   H1138     1.0  0.53780  0.14361  0.98955  1.0000
  C   C1434     1.0  0.66117  0.33031  0.84651  1.0000
  H   H1139     1.0  0.39861  0.00416  0.97838  1.0000
  C   C1435     1.0  0.62566  0.49176  0.75792  1.0000
  S   S182      1.0  0.60834  0.48724  0.77528  1.0000
  C   C1436     1.0  0.55006  0.09176  0.98813  1.0000
  C   C1437     1.0  0.65891  0.27283  0.91040  1.0000
  Fe  Fe89      1.0  0.66018  0.47785  0.82135  1.0000
  C   C1438     1.0  0.65930  0.33950  0.86096  1.0000
  H   H1140     1.0  0.55636  0.10287  0.74308  1.0000
  H   H1141     1.0  0.65980  0.33763  0.74375  1.0000
  Fe  Fe90      1.0  0.49186  0.90600  0.01779  1.0000
  Fe  Fe91      1.0  0.34786  0.63115  0.16572  1.0000
  H   H1142     1.0  0.40474  0.82869  0.22372  1.0000
  Fe  Fe92      1.0  0.53170  0.90664  0.04104  1.0000
  S   S183      1.0  0.56540  0.92818  0.02520  1.0000
  S   S184      1.0  0.53902  0.89330  0.06410  1.0000
  Fe  Fe93      1.0  0.54586  0.95383  0.01976  1.0000
  C   C1439     1.0  0.37664  0.57577  0.23546  1.0000
  Fe  Fe94      1.0  0.53905  0.89991  0.00723  1.0000
  H   H1143     1.0  0.44923  0.79893  0.01356  1.0000
  S   S185      1.0  0.51373  0.93350  0.03682  1.0000
  S   S186      1.0  0.50697  0.87709  0.02347  1.0000
  Fe  Fe95      1.0  0.38424  0.55682  0.02049  1.0000
  S   S187      1.0  0.36913  0.52291  0.00408  1.0000
  S   S188      1.0  0.42117  0.59460  0.01871  1.0000
  H   H1144     1.0  0.35765  0.84954  0.03218  1.0000
  S   S189      1.0  0.37860  0.53218  0.04119  1.0000
  C   C1440     1.0  0.37435  0.81149  0.12724  1.0000
  Fe  Fe96      1.0  0.46946  0.85478  0.14480  1.0000
  S   S190      1.0  0.45770  0.86637  0.16704  1.0000
  S   S191      1.0  0.47068  0.87807  0.12360  1.0000
  Fe  Fe97      1.0  0.46341  0.80303  0.15770  1.0000
  S   S192      1.0  0.45041  0.81010  0.18047  1.0000
  S   S193      1.0  0.46562  0.76521  0.15321  1.0000
  Fe  Fe98      1.0  0.42642  0.82503  0.16748  1.0000
  S   S194      1.0  0.38609  0.81638  0.17555  1.0000
  Fe  Fe99      1.0  0.48272  0.85062  0.17853  1.0000
  S   S195      1.0  0.50896  0.86566  0.19944  1.0000
  S   S196      1.0  0.43638  0.81433  0.14469  1.0000
  S   S197      1.0  0.49770  0.84270  0.15623  1.0000
  C   C1441     1.0  0.49785  0.87060  0.21745  1.0000
  C   C1442     1.0  0.47781  0.87805  0.21879  1.0000
  C   C1443     1.0  0.36142  0.55505  0.08418  1.0000
  C   C1444     1.0  0.51065  0.86867  0.23071  1.0000
  H   H1145     1.0  0.46801  0.87990  0.20868  1.0000
  H   H1146     1.0  0.52670  0.86378  0.22971  1.0000
  H   H1147     1.0  0.41857  0.60583  0.20186  1.0000
  H   H1148     1.0  0.52711  0.81644  0.22811  1.0000
  C   C1445     1.0  0.36772  0.77302  0.15722  1.0000
  C   C1446     1.0  0.36142  0.78860  0.16695  1.0000
  C   C1447     1.0  0.34978  0.74886  0.21851  1.0000
  H   H1149     1.0  0.48510  0.52568  0.03240  1.0000
  H   H1150     1.0  0.38779  0.77810  0.15489  1.0000
  H   H1151     1.0  0.39900  0.63679  0.00572  1.0000
  H   H1152     1.0  0.41997  0.50879  0.01489  1.0000
  C   C1448     1.0  0.38551  0.69767  0.16239  1.0000
  C   C1449     1.0  0.40594  0.69236  0.15768  1.0000
  C   C1450     1.0  0.43063  0.71309  0.15463  1.0000
  C   C1451     1.0  0.43492  0.73900  0.15661  1.0000
  C   C1452     1.0  0.41451  0.74410  0.16135  1.0000
  C   C1453     1.0  0.38991  0.72356  0.16411  1.0000
  H   H1153     1.0  0.40273  0.67239  0.15648  1.0000
  H   H1154     1.0  0.44636  0.70911  0.15081  1.0000
  H   H1155     1.0  0.41768  0.76393  0.16300  1.0000
  H   H1156     1.0  0.37432  0.72779  0.16775  1.0000
  H   H1157     1.0  0.45563  0.76156  0.12052  1.0000
  H   H1158     1.0  0.43969  0.55574  0.02181  1.0000
  C   C1454     1.0  0.48951  0.88149  0.10706  1.0000
  C   C1455     1.0  0.50752  0.87130  0.10610  1.0000
  C   C1456     1.0  0.52249  0.87506  0.09284  1.0000
  C   C1457     1.0  0.51917  0.88845  0.08031  1.0000
  C   C1458     1.0  0.50083  0.89822  0.08117  1.0000
  C   C1459     1.0  0.48632  0.89502  0.09456  1.0000
  H   H1159     1.0  0.51028  0.86099  0.11566  1.0000
  H   H1160     1.0  0.53690  0.86777  0.09234  1.0000
  H   H1161     1.0  0.49812  0.90858  0.07163  1.0000
  H   H1162     1.0  0.47249  0.90303  0.09523  1.0000
  H   H1163     1.0  0.39261  0.64736  0.08904  1.0000
  H   H1164     1.0  0.36212  0.76640  0.19646  1.0000
  C   C1460     1.0  0.47006  0.56708  0.00504  1.0000
  H   H1165     1.0  0.47308  0.62549  0.20793  1.0000
  H   H1166     1.0  0.37039  0.71291  0.08161  1.0000
  C   C1461     1.0  0.42097  0.71187  0.19748  1.0000
  C   C1462     1.0  0.37296  0.56402  0.09862  1.0000
  C   C1463     1.0  0.51171  0.80767  0.10537  1.0000
  C   C1464     1.0  0.43975  0.85603  0.06618  1.0000
  C   C1465     1.0  0.44830  0.84905  0.05284  1.0000
  C   C1466     1.0  0.45550  0.82875  0.05296  1.0000
  H   H1167     1.0  0.50095  0.79211  0.12792  1.0000
  H   H1168     1.0  0.53140  0.82136  0.10869  1.0000
  H   H1169     1.0  0.43490  0.87225  0.06616  1.0000
  H   H1170     1.0  0.44509  0.76547  0.99422  1.0000
  H   H1171     1.0  0.46240  0.82389  0.04255  1.0000
  C   C1467     1.0  0.52632  0.61189  0.99355  1.0000
  H   H1172     1.0  0.51326  0.83211  0.00367  1.0000
  S   S198      1.0  0.36204  0.57348  0.20560  1.0000
  C   C1468     1.0  0.47130  0.88429  0.23320  1.0000
  H   H1173     1.0  0.50846  0.67598  0.20441  1.0000
  H   H1174     1.0  0.40660  0.79685  0.20515  1.0000
  C   C1469     1.0  0.34798  0.75061  0.15056  1.0000
  C   C1470     1.0  0.50868  0.71723  0.16953  1.0000
  C   C1471     1.0  0.53219  0.71996  0.17586  1.0000
  C   C1472     1.0  0.53193  0.70502  0.18843  1.0000
  C   C1473     1.0  0.50818  0.68737  0.19472  1.0000
  C   C1474     1.0  0.48448  0.68464  0.18848  1.0000
  C   C1475     1.0  0.48497  0.69956  0.17576  1.0000
  C   C1476     1.0  0.43047  0.67456  0.19668  1.0000
  C   C1477     1.0  0.40377  0.65789  0.19810  1.0000
  C   C1478     1.0  0.38581  0.66814  0.19902  1.0000
  C   C1479     1.0  0.39438  0.69510  0.19872  1.0000
  H   H1175     1.0  0.50875  0.72888  0.15983  1.0000
  H   H1176     1.0  0.55059  0.73368  0.17103  1.0000
  H   H1177     1.0  0.55018  0.70711  0.19331  1.0000
  H   H1178     1.0  0.46692  0.69755  0.17067  1.0000
  H   H1179     1.0  0.45885  0.65228  0.16315  1.0000
  H   H1180     1.0  0.39675  0.63694  0.19841  1.0000
  H   H1181     1.0  0.36515  0.65510  0.19932  1.0000
  H   H1182     1.0  0.38032  0.70291  0.19878  1.0000
  C   C1480     1.0  0.38970  0.63317  0.99460  1.0000
  H   H1183     1.0  0.40282  0.85613  0.03541  1.0000
  H   H1184     1.0  0.41435  0.86989  0.18437  1.0000
  C   C1481     1.0  0.52248  0.82634  0.99471  1.0000
  C   C1482     1.0  0.36355  0.66180  0.08695  1.0000
  H   H1185     1.0  0.46669  0.50448  0.05680  1.0000
  P   P49       1.0  0.36881  0.67611  0.10584  1.0000
  C   C1483     1.0  0.37821  0.71080  0.10558  1.0000
  C   C1484     1.0  0.39511  0.67233  0.11505  1.0000
  C   C1485     1.0  0.42106  0.69116  0.11291  1.0000
  C   C1486     1.0  0.44167  0.68812  0.11963  1.0000
  C   C1487     1.0  0.43655  0.66613  0.12839  1.0000
  C   C1488     1.0  0.41085  0.64722  0.13041  1.0000
  C   C1489     1.0  0.39015  0.65018  0.12373  1.0000
  C   C1490     1.0  0.37725  0.72355  0.09216  1.0000
  C   C1491     1.0  0.38566  0.75057  0.09221  1.0000
  C   C1492     1.0  0.39528  0.76508  0.10560  1.0000
  C   C1493     1.0  0.36915  0.61197  0.22726  1.0000
  C   C1494     1.0  0.35202  0.74837  0.20268  1.0000
  H   H1186     1.0  0.55982  0.60659  0.00094  1.0000
  H   H1187     1.0  0.53467  0.95834  0.07244  1.0000
  C   C1495     1.0  0.45009  0.65231  0.24230  1.0000
  H   H1188     1.0  0.54822  0.52279  0.99997  1.0000
  H   H1189     1.0  0.34107  0.72433  0.18243  1.0000
  Fe  Fe100     1.0  0.33927  0.53159  0.04236  1.0000
  H   H1190     1.0  0.37572  0.84682  0.20006  1.0000
  S   S199      1.0  0.52243  0.92752  0.00042  1.0000
  C   C1496     1.0  0.33436  0.65233  0.24025  1.0000
  C   C1497     1.0  0.43696  0.52264  0.00884  1.0000
  S   S200      1.0  0.34609  0.55864  0.02262  1.0000
  H   H1191     1.0  0.42546  0.70823  0.10605  1.0000
  H   H1192     1.0  0.46159  0.70289  0.11812  1.0000
  H   H1193     1.0  0.45246  0.66372  0.13362  1.0000
  H   H1194     1.0  0.40691  0.63018  0.13718  1.0000
  H   H1195     1.0  0.37042  0.63507  0.12525  1.0000
  S   S201      1.0  0.35442  0.67284  0.16673  1.0000
  H   H1196     1.0  0.38498  0.76035  0.08183  1.0000
  H   H1197     1.0  0.40204  0.78604  0.10564  1.0000
  C   C1498     1.0  0.38134  0.85632  0.12785  1.0000
  H   H1198     1.0  0.35690  0.81061  0.21728  1.0000
  H   H1199     1.0  0.58167  0.98740  0.07531  1.0000
  H   H1200     1.0  0.35030  0.89585  0.21213  1.0000
  C   C1499     1.0  0.35883  0.56823  0.11048  1.0000
  H   H1201     1.0  0.48822  0.49932  0.01067  1.0000
  H   H1202     1.0  0.44576  0.93230  0.21714  1.0000
  S   S202      1.0  0.37785  0.61629  0.16725  1.0000
  H   H1203     1.0  0.47816  0.58746  0.00829  1.0000
  H   H1204     1.0  0.38200  0.79740  0.12816  1.0000
  C   C1500     1.0  0.44765  0.51413  0.99708  1.0000
  C   C1501     1.0  0.37746  0.64826  0.08204  1.0000
  C   C1502     1.0  0.49007  0.98517  0.02179  1.0000
  H   H1205     1.0  0.39695  0.87924  0.00312  1.0000
  C   C1503     1.0  0.45224  0.98697  0.01084  1.0000
  C   C1504     1.0  0.33682  0.64753  0.06397  1.0000
  H   H1206     1.0  0.38312  0.69162  0.05066  1.0000
  H   H1207     1.0  0.40053  0.56672  0.18550  1.0000
  C   C1505     1.0  0.33310  0.56377  0.10765  1.0000
  H   H1208     1.0  0.51737  0.98077  0.99412  1.0000
  P   P50       1.0  0.36073  0.85940  0.23047  1.0000
  C   C1506     1.0  0.44660  0.63381  0.16832  1.0000
  H   H1209     1.0  0.40445  0.76374  0.12932  1.0000
  C   C1507     1.0  0.35330  0.79631  0.01238  1.0000
  C   C1508     1.0  0.33552  0.55006  0.08144  1.0000
  H   H1210     1.0  0.35298  0.73849  0.14309  1.0000
  C   C1509     1.0  0.38879  0.83909  0.02928  1.0000
  H   H1211     1.0  0.41093  0.57007  0.15798  1.0000
  C   C1510     1.0  0.49454  0.79125  0.11621  1.0000
  H   H1212     1.0  0.51683  0.82033  0.08226  1.0000
  P   P51       1.0  0.45355  0.66106  0.19596  1.0000
  C   C1511     1.0  0.44066  0.63217  0.18390  1.0000
  C   C1512     1.0  0.50332  0.80697  0.09033  1.0000
  C   C1513     1.0  0.43849  0.84279  0.07968  1.0000
  H   H1213     1.0  0.45935  0.71506  0.19587  1.0000
  C   C1514     1.0  0.47763  0.78979  0.08602  1.0000
  C   C1515     1.0  0.43895  0.70167  0.19668  1.0000
  C   C1516     1.0  0.41764  0.80087  0.21570  1.0000
  C   C1517     1.0  0.45479  0.81567  0.06657  1.0000
  H   H1214     1.0  0.43282  0.84886  0.09016  1.0000
  C   C1518     1.0  0.43384  0.78897  0.21855  1.0000
  H   H1215     1.0  0.43469  0.77545  0.21019  1.0000
  H   H1216     1.0  0.42760  0.73274  0.19670  1.0000
  C   C1519     1.0  0.46898  0.77403  0.11202  1.0000
  C   C1520     1.0  0.44615  0.82282  0.07992  1.0000
  C   C1521     1.0  0.46050  0.77336  0.09702  1.0000
  H   H1217     1.0  0.47919  0.75927  0.04477  1.0000
  H   H1218     1.0  0.41629  0.77524  0.05032  1.0000
  H   H1219     1.0  0.44608  0.81370  0.09066  1.0000
  P   P52       1.0  0.46589  0.79069  0.06700  1.0000
  C   C1522     1.0  0.45726  0.65169  0.21510  1.0000
  C   C1523     1.0  0.49328  0.77953  0.04392  1.0000
  H   H1220     1.0  0.51272  0.74121  0.20127  1.0000
  H   H1221     1.0  0.44158  0.67544  0.22631  1.0000
  H   H1222     1.0  0.37247  0.55167  0.07524  1.0000
  H   H1223     1.0  0.39287  0.56748  0.10066  1.0000
  C   C1524     1.0  0.41971  0.58723  0.16526  1.0000
  C   C1525     1.0  0.41751  0.75775  0.05383  1.0000
  H   H1224     1.0  0.44043  0.76041  0.09416  1.0000
  C   C1526     1.0  0.50128  0.79258  0.19187  1.0000
  C   C1527     1.0  0.50930  0.77302  0.19030  1.0000
  C   C1528     1.0  0.50585  0.75589  0.20229  1.0000
  C   C1529     1.0  0.49346  0.75766  0.21561  1.0000
  C   C1530     1.0  0.48471  0.77683  0.21707  1.0000
  H   H1225     1.0  0.51849  0.77149  0.17986  1.0000
  H   H1226     1.0  0.49114  0.74439  0.22484  1.0000
  C   C1531     1.0  0.44811  0.81323  0.24219  1.0000
  C   C1532     1.0  0.49176  0.79879  0.05327  1.0000
  C   C1533     1.0  0.43918  0.75936  0.06213  1.0000
  H   H1227     1.0  0.45825  0.64405  0.00723  1.0000
  C   C1534     1.0  0.48946  0.79476  0.20530  1.0000
  H   H1228     1.0  0.50459  0.80638  0.18277  1.0000
  S   S203      1.0  0.37394  0.57859  0.12865  1.0000
  C   C1535     1.0  0.45028  0.80346  0.00157  1.0000
  H   H1229     1.0  0.38127  0.62339  0.06472  1.0000
  C   C1536     1.0  0.42953  0.73185  0.23632  1.0000
  C   C1537     1.0  0.38851  0.87608  0.21814  1.0000
  C   C1538     1.0  0.42413  0.60770  0.19000  1.0000
  C   C1539     1.0  0.39728  0.73338  0.04979  1.0000
  H   H1230     1.0  0.42117  0.69419  0.06538  1.0000
  C   C1540     1.0  0.40822  0.90075  0.22250  1.0000
  C   C1541     1.0  0.44918  0.66138  0.22769  1.0000
  C   C1542     1.0  0.51316  0.78639  0.03316  1.0000
  C   C1543     1.0  0.51066  0.82481  0.05179  1.0000
  H   H1231     1.0  0.39022  0.71656  0.12931  1.0000
  H   H1232     1.0  0.50996  0.83996  0.05889  1.0000
  C   C1544     1.0  0.56394  0.64444  0.00717  1.0000
  C   C1545     1.0  0.46688  0.63334  0.21746  1.0000
  C   C1546     1.0  0.36946  0.58820  0.22395  1.0000
  H   H1233     1.0  0.48459  0.81085  0.20661  1.0000
  C   C1547     1.0  0.52407  0.81718  0.24019  1.0000
  C   C1548     1.0  0.39680  0.82166  0.02271  1.0000
  C   C1549     1.0  0.53049  0.83161  0.04105  1.0000
  C   C1550     1.0  0.44033  0.73625  0.06627  1.0000
  H   H1234     1.0  0.54484  0.85185  0.03995  1.0000
  H   H1235     1.0  0.41214  0.84480  0.12970  1.0000
  H   H1236     1.0  0.45270  0.95169  0.01899  1.0000
  H   H1237     1.0  0.34595  0.68925  0.13297  1.0000
  C   C1551     1.0  0.44962  0.79540  0.23172  1.0000
  C   C1552     1.0  0.53173  0.81241  0.03172  1.0000
  C   C1553     1.0  0.39859  0.71049  0.05397  1.0000
  H   H1238     1.0  0.45711  0.73705  0.07243  1.0000
  C   C1554     1.0  0.56907  0.99512  0.07060  1.0000
  C   C1555     1.0  0.41384  0.58536  0.18074  1.0000
  H   H1239     1.0  0.33036  0.79381  0.17757  1.0000
  H   H1240     1.0  0.34545  0.62283  0.04869  1.0000
  C   C1556     1.0  0.43617  0.61142  0.15907  1.0000
  H   H1241     1.0  0.44025  0.61279  0.14700  1.0000
  H   H1242     1.0  0.51420  0.77160  0.02583  1.0000
  H   H1243     1.0  0.39454  0.87694  0.12901  1.0000
  H   H1244     1.0  0.58298  0.65043  0.01237  1.0000
  C   C1557     1.0  0.42005  0.71194  0.06226  1.0000
  H   H1245     1.0  0.54700  0.81775  0.02328  1.0000
  C   C1558     1.0  0.46391  0.97257  0.01732  1.0000
  C   C1559     1.0  0.41656  0.81880  0.22612  1.0000
  C   C1560     1.0  0.39130  0.83814  0.12827  1.0000
  C   C1561     1.0  0.43171  0.60493  0.00015  1.0000
  C   C1562     1.0  0.44815  0.54910  0.01278  1.0000
  H   H1246     1.0  0.37716  0.55750  0.23302  1.0000
  H   H1247     1.0  0.45603  0.84298  0.00529  1.0000
  C   C1563     1.0  0.35074  0.63410  0.05920  1.0000
  C   C1564     1.0  0.33837  0.65892  0.11597  1.0000
  H   H1248     1.0  0.45010  0.85994  0.04249  1.0000
  C   C1565     1.0  0.37103  0.63450  0.06822  1.0000
  C   C1566     1.0  0.34518  0.81398  0.01875  1.0000
  H   H1249     1.0  0.33132  0.67041  0.08177  1.0000
  C   C1567     1.0  0.41540  0.70669  0.24208  1.0000
  S   S204      1.0  0.44837  0.89254  0.01506  1.0000
  H   H1250     1.0  0.38073  0.73221  0.04324  1.0000
  C   C1568     1.0  0.38837  0.72570  0.11890  1.0000
  C   C1569     1.0  0.33421  0.83171  0.22128  1.0000
  C   C1570     1.0  0.41034  0.88469  0.99368  1.0000
  C   C1571     1.0  0.34305  0.66114  0.07785  1.0000
  C   C1572     1.0  0.33256  0.92098  0.24255  1.0000
  Fe  Fe101     1.0  0.35421  0.58763  0.14881  1.0000
  H   H1251     1.0  0.63491  0.49934  0.01599  1.0000
  C   C1573     1.0  0.39073  0.86525  0.20417  1.0000
  H   H1252     1.0  0.56349  0.68130  0.01145  1.0000
  H   H1253     1.0  0.43174  0.97731  0.00785  1.0000
  C   C1574     1.0  0.55067  0.61950  0.00068  1.0000
  C   C1575     1.0  0.39669  0.75262  0.11892  1.0000
  C   C1576     1.0  0.45008  0.63084  0.99767  1.0000
  H   H1254     1.0  0.33995  0.78003  0.00546  1.0000
  C   C1577     1.0  0.43026  0.91369  0.21345  1.0000
  P   P53       1.0  0.47186  0.78128  0.23493  1.0000
  C   C1578     1.0  0.33597  0.72557  0.22651  1.0000
  H   H1255     1.0  0.45639  0.89086  0.23406  1.0000
  H   H1256     1.0  0.35827  0.76744  0.22448  1.0000
  C   C1579     1.0  0.66237  0.50302  0.03370  1.0000
  H   H1257     1.0  0.52032  0.66792  0.99902  1.0000
  C   C1580     1.0  0.41267  0.87843  0.19508  1.0000
  H   H1258     1.0  0.42191  0.73754  0.22653  1.0000
  C   C1581     1.0  0.33239  0.67033  0.12860  1.0000
  C   C1582     1.0  0.35447  0.84789  0.12626  1.0000
  H   H1259     1.0  0.34792  0.67282  0.23953  1.0000
  C   C1583     1.0  0.34630  0.89853  0.22388  1.0000
  C   C1584     1.0  0.52588  0.98791  0.06262  1.0000
  H   H1260     1.0  0.34706  0.86225  0.12634  1.0000
  Fe  Fe102     1.0  0.35035  0.58763  0.18402  1.0000
  C   C1585     1.0  0.36309  0.83530  0.02735  1.0000
  H   H1261     1.0  0.50050  0.78507  0.99902  1.0000
  C   C1586     1.0  0.43692  0.89203  0.99635  1.0000
  C   C1587     1.0  0.43255  0.90245  0.19978  1.0000
  H   H1262     1.0  0.56625  0.51834  0.06227  1.0000
  H   H1263     1.0  0.62268  0.98685  0.02656  1.0000
  H   H1264     1.0  0.44979  0.91227  0.19283  1.0000
  H   H1265     1.0  0.41694  0.82519  0.02383  1.0000
  H   H1266     1.0  0.37263  0.59144  0.99678  1.0000
  C   C1588     1.0  0.55300  0.66186  0.00662  1.0000
  H   H1267     1.0  0.36356  0.62163  0.21852  1.0000
  H   H1268     1.0  0.40680  0.90987  0.23306  1.0000
  C   C1589     1.0  0.34965  0.88339  0.23539  1.0000
  C   C1590     1.0  0.46770  0.62430  0.23210  1.0000
  C   C1591     1.0  0.52872  0.65434  0.99962  1.0000
  H   H1269     1.0  0.51857  0.54328  0.00230  1.0000
  H   H1270     1.0  0.49925  0.97422  0.02695  1.0000
  C   C1592     1.0  0.37903  0.80018  0.01434  1.0000
  H   H1271     1.0  0.47447  0.60965  0.23383  1.0000
  C   C1593     1.0  0.34745  0.80294  0.12562  1.0000
  C   C1594     1.0  0.33808  0.81055  0.21599  1.0000
  C   C1595     1.0  0.34046  0.72468  0.19474  1.0000
  C   C1596     1.0  0.45432  0.82827  0.99695  1.0000
  C   C1597     1.0  0.33735  0.82113  0.12479  1.0000
  C   C1598     1.0  0.33523  0.78164  0.17012  1.0000
  H   H1272     1.0  0.50529  0.97491  0.06116  1.0000
  C   C1599     1.0  0.33777  0.91724  0.22746  1.0000
  H   H1273     1.0  0.33469  0.78217  0.12530  1.0000
  C   C1600     1.0  0.53180  0.54834  0.99281  1.0000
  H   H1274     1.0  0.38542  0.78697  0.00900  1.0000
  C   C1601     1.0  0.54241  0.97857  0.06898  1.0000
  C   C1602     1.0  0.47873  0.50492  0.03369  1.0000
  C   C1603     1.0  0.51546  0.62949  0.99308  1.0000
  C   C1604     1.0  0.48105  0.55859  0.99330  1.0000
  H   H1275     1.0  0.39727  0.69325  0.23668  1.0000
  C   C1605     1.0  0.43152  0.82466  0.23943  1.0000
  H   H1276     1.0  0.33528  0.92891  0.21854  1.0000
  H   H1277     1.0  0.59885  0.99705  0.04641  1.0000
  H   H1278     1.0  0.38331  0.49836  0.08897  1.0000
  C   C1606     1.0  0.55984  0.49807  0.05913  1.0000
  C   C1607     1.0  0.37660  0.62345  0.24185  1.0000
  S   S205      1.0  0.37801  0.53929  0.44165  1.0000
  Fe  Fe103     1.0  0.36001  0.53859  0.46431  1.0000
  H   H1279     1.0  0.41825  0.65379  0.48314  1.0000
  Fe  Fe104     1.0  0.51044  0.92065  0.46222  1.0000
  S   S206      1.0  0.54965  0.92271  0.46765  1.0000
  S   S207      1.0  0.48784  0.92766  0.48113  1.0000
  Fe  Fe105     1.0  0.51647  0.91572  0.42806  1.0000
  S   S208      1.0  0.55622  0.91755  0.43106  1.0000
  S   S209      1.0  0.49268  0.91223  0.40659  1.0000
  Fe  Fe106     1.0  0.53826  0.88963  0.45072  1.0000
  S   S210      1.0  0.54159  0.85107  0.45231  1.0000
  Fe  Fe107     1.0  0.56385  0.95055  0.44783  1.0000
  C   C1608     1.0  0.37010  0.84845  0.24767  1.0000
  S   S211      1.0  0.49800  0.88615  0.44652  1.0000
  S   S212      1.0  0.52519  0.95000  0.44355  1.0000
  H   H1280     1.0  0.45199  0.94990  0.46654  1.0000
  Fe  Fe108     1.0  0.49431  0.87570  0.32104  1.0000
  S   S213      1.0  0.46787  0.88943  0.30914  1.0000
  S   S214      1.0  0.52506  0.89701  0.33930  1.0000
  Fe  Fe109     1.0  0.47152  0.82415  0.30386  1.0000
  S   S215      1.0  0.44302  0.83328  0.29091  1.0000
  S   S216      1.0  0.47311  0.78597  0.29989  1.0000
  Fe  Fe110     1.0  0.47613  0.87290  0.28750  1.0000
  S   S217      1.0  0.47515  0.89044  0.26433  1.0000
  Fe  Fe111     1.0  0.43666  0.84876  0.31316  1.0000
  S   S218      1.0  0.39675  0.84160  0.32145  1.0000
  S   S219      1.0  0.50560  0.86287  0.29904  1.0000
  S   S220      1.0  0.46238  0.83610  0.32651  1.0000
  C   C1609     1.0  0.64761  0.51487  0.27678  1.0000
  C   C1610     1.0  0.37503  0.72862  0.26122  1.0000
  H   H1281     1.0  0.44313  0.65916  0.25194  1.0000
  C   C1611     1.0  0.52549  0.98585  0.41221  1.0000
  C   C1612     1.0  0.47359  0.54520  0.48942  1.0000
  H   H1282     1.0  0.46348  0.94290  0.41903  1.0000
  C   C1613     1.0  0.47162  0.76513  0.43055  1.0000
  C   C1614     1.0  0.37274  0.81043  0.31607  1.0000
  C   C1615     1.0  0.38005  0.79304  0.30884  1.0000
  C   C1616     1.0  0.39886  0.88316  0.48268  1.0000
  H   H1283     1.0  0.52106  0.62424  0.46578  1.0000
  H   H1284     1.0  0.51534  0.82292  0.28345  1.0000
  H   H1285     1.0  0.40026  0.79869  0.30672  1.0000
  C   C1617     1.0  0.40068  0.71670  0.31744  1.0000
  C   C1618     1.0  0.40292  0.74194  0.31845  1.0000
  C   C1619     1.0  0.42486  0.76307  0.31267  1.0000
  C   C1620     1.0  0.44460  0.75907  0.30574  1.0000
  C   C1621     1.0  0.44199  0.73369  0.30413  1.0000
  C   C1622     1.0  0.41993  0.71243  0.30995  1.0000
  H   H1286     1.0  0.38767  0.74517  0.32374  1.0000
  H   H1287     1.0  0.42707  0.78262  0.31412  1.0000
  H   H1288     1.0  0.45732  0.73055  0.29880  1.0000
  H   H1289     1.0  0.41831  0.69295  0.30911  1.0000
  C   C1623     1.0  0.50261  0.90873  0.38797  1.0000
  C   C1624     1.0  0.52759  0.91129  0.38493  1.0000
  C   C1625     1.0  0.53439  0.90802  0.36994  1.0000
  C   C1626     1.0  0.51611  0.90154  0.35796  1.0000
  C   C1627     1.0  0.49123  0.89911  0.36102  1.0000
  C   C1628     1.0  0.48473  0.90308  0.37590  1.0000
  H   H1290     1.0  0.54154  0.91562  0.39413  1.0000
  H   H1291     1.0  0.55377  0.91015  0.36764  1.0000
  H   H1292     1.0  0.47704  0.89435  0.35190  1.0000
  H   H1293     1.0  0.46564  0.90153  0.37808  1.0000
  C   C1629     1.0  0.46853  0.78047  0.41919  1.0000
  H   H1294     1.0  0.55216  0.97509  0.47663  1.0000
  C   C1630     1.0  0.54061  0.80705  0.46569  1.0000
  C   C1631     1.0  0.53923  0.83073  0.46820  1.0000
  Fe  Fe112     1.0  0.37380  0.61980  0.29277  1.0000
  H   H1295     1.0  0.54079  0.77264  0.47573  1.0000
  H   H1296     1.0  0.54303  0.80161  0.45422  1.0000
  H   H1297     1.0  0.51090  0.96723  0.41619  1.0000
  C   C1632     1.0  0.45374  0.90911  0.48190  1.0000
  C   C1633     1.0  0.43991  0.88974  0.47109  1.0000
  C   C1634     1.0  0.41249  0.87651  0.47163  1.0000
  C   C1635     1.0  0.33586  0.90600  0.25407  1.0000
  Fe  Fe113     1.0  0.36438  0.65113  0.31785  1.0000
  H   H1298     1.0  0.45029  0.88494  0.46236  1.0000
  H   H1299     1.0  0.40184  0.86119  0.46346  1.0000
  H   H1300     1.0  0.41255  0.85145  0.35586  1.0000
  C   C1636     1.0  0.41216  0.58546  0.48365  1.0000
  C   C1637     1.0  0.42234  0.59420  0.46923  1.0000
  C   C1638     1.0  0.44668  0.61604  0.46777  1.0000
  H   H1301     1.0  0.33163  0.68432  0.44654  1.0000
  C   C1639     1.0  0.58612  0.63417  0.48481  1.0000
  H   H1302     1.0  0.41146  0.58425  0.45919  1.0000
  H   H1303     1.0  0.45453  0.62263  0.45657  1.0000
  C   C1640     1.0  0.37603  0.81839  0.40683  1.0000
  H   H1304     1.0  0.57363  0.59745  0.44508  1.0000
  H   H1305     1.0  0.34668  0.81182  0.42371  1.0000
  C   C1641     1.0  0.53195  0.99756  0.47050  1.0000
  C   C1642     1.0  0.42674  0.49838  0.48296  1.0000
  C   C1643     1.0  0.54461  0.53396  0.43353  1.0000
  C   C1644     1.0  0.34081  0.93211  0.45770  1.0000
  C   C1645     1.0  0.45328  0.74932  0.24311  1.0000
  H   H1306     1.0  0.34511  0.55202  0.27115  1.0000
  H   H1307     1.0  0.39468  0.91979  0.42713  1.0000
  H   H1308     1.0  0.54439  0.99079  0.37253  1.0000
  H   H1309     1.0  0.35296  0.69013  0.35747  1.0000
  C   C1646     1.0  0.34939  0.68519  0.42488  1.0000
  C   C1647     1.0  0.35734  0.82272  0.27079  1.0000
  H   H1310     1.0  0.49233  0.71024  0.47541  1.0000
  C   C1648     1.0  0.34437  0.88725  0.25054  1.0000
  C   C1649     1.0  0.36523  0.57640  0.36368  1.0000
  C   C1650     1.0  0.38273  0.83621  0.27646  1.0000
  C   C1651     1.0  0.40192  0.85536  0.26774  1.0000
  C   C1652     1.0  0.45908  0.63363  0.24450  1.0000
  C   C1653     1.0  0.54982  0.97152  0.35294  1.0000
  C   C1654     1.0  0.36312  0.80843  0.42050  1.0000
  H   H1311     1.0  0.35302  0.91511  0.41576  1.0000
  C   C1655     1.0  0.57839  0.65410  0.48525  1.0000
  C   C1656     1.0  0.44831  0.71602  0.26161  1.0000
  H   H1312     1.0  0.45897  0.62615  0.25581  1.0000
  H   H1313     1.0  0.59959  0.93187  0.40514  1.0000
  H   H1314     1.0  0.55393  0.57026  0.42223  1.0000
  H   H1315     1.0  0.35242  0.60633  0.36237  1.0000
  H   H1316     1.0  0.46001  0.81891  0.25238  1.0000
  S   S221      1.0  0.34540  0.57401  0.41463  1.0000
  S   S222      1.0  0.38160  0.55835  0.48585  1.0000
  C   C1657     1.0  0.44785  0.96974  0.42497  1.0000
  H   H1317     1.0  0.36175  0.78692  0.44076  1.0000
  C   C1658     1.0  0.43580  0.52149  0.44896  1.0000
  S   S223      1.0  0.60105  0.98959  0.45044  1.0000
  C   C1659     1.0  0.57065  0.61052  0.47721  1.0000
  C   C1660     1.0  0.60131  0.98910  0.36305  1.0000
  C   C1661     1.0  0.62720  0.96535  0.41764  1.0000
  H   H1318     1.0  0.42159  0.86589  0.27226  1.0000
  H   H1319     1.0  0.62116  0.99530  0.36702  1.0000
  H   H1320     1.0  0.33704  0.96731  0.45379  1.0000
  H   H1321     1.0  0.48133  0.75359  0.26096  1.0000
  C   C1662     1.0  0.41011  0.51011  0.48513  1.0000
  C   C1663     1.0  0.35331  0.71402  0.37661  1.0000
  C   C1664     1.0  0.46279  0.74100  0.25567  1.0000
  C   C1665     1.0  0.45054  0.64828  0.42021  1.0000
  C   C1666     1.0  0.43574  0.62187  0.41665  1.0000
  C   C1667     1.0  0.41213  0.60741  0.42401  1.0000
  C   C1668     1.0  0.40321  0.61927  0.43494  1.0000
  C   C1669     1.0  0.41801  0.64578  0.43870  1.0000
  C   C1670     1.0  0.44167  0.66023  0.43112  1.0000
  P   P54       1.0  0.40516  0.66187  0.45157  1.0000
  C   C1671     1.0  0.38679  0.63955  0.46642  1.0000
  C   C1672     1.0  0.43140  0.69039  0.46019  1.0000
  C   C1673     1.0  0.45451  0.68956  0.46475  1.0000
  C   C1674     1.0  0.47465  0.71121  0.47179  1.0000
  C   C1675     1.0  0.47189  0.73389  0.47439  1.0000
  C   C1676     1.0  0.44903  0.73500  0.46983  1.0000
  C   C1677     1.0  0.42880  0.71334  0.46278  1.0000
  C   C1678     1.0  0.59283  0.97418  0.34970  1.0000
  S   S224      1.0  0.37357  0.57733  0.34416  1.0000
  H   H1322     1.0  0.39522  0.88444  0.44278  1.0000
  H   H1323     1.0  0.55794  0.52769  0.47042  1.0000
  C   C1679     1.0  0.36072  0.62121  0.46374  1.0000
  C   C1680     1.0  0.38357  0.67132  0.44110  1.0000
  C   C1681     1.0  0.38598  0.67481  0.42530  1.0000
  C   C1682     1.0  0.36897  0.68178  0.41725  1.0000
  H   H1324     1.0  0.41805  0.52315  0.42761  1.0000
  H   H1325     1.0  0.34687  0.87601  0.25968  1.0000
  C   C1683     1.0  0.36405  0.67513  0.44873  1.0000
  H   H1326     1.0  0.46882  0.65952  0.41444  1.0000
  H   H1327     1.0  0.44238  0.61257  0.40809  1.0000
  H   H1328     1.0  0.40041  0.58702  0.42106  1.0000
  H   H1329     1.0  0.38458  0.60763  0.44023  1.0000
  H   H1330     1.0  0.45329  0.68073  0.43355  1.0000
  H   H1331     1.0  0.45682  0.67201  0.46304  1.0000
  Fe  Fe114     1.0  0.34373  0.54331  0.43171  1.0000
  C   C1684     1.0  0.64934  0.50886  0.40474  1.0000
  H   H1332     1.0  0.44700  0.75266  0.47188  1.0000
  H   H1333     1.0  0.41123  0.71461  0.45948  1.0000
  H   H1334     1.0  0.52968  0.96399  0.34919  1.0000
  P   P55       1.0  0.58058  0.58466  0.47646  1.0000
  H   H1335     1.0  0.65652  0.51384  0.39325  1.0000
  H   H1336     1.0  0.36627  0.70768  0.25964  1.0000
  H   H1337     1.0  0.35170  0.61958  0.45267  1.0000
  H   H1338     1.0  0.40073  0.67178  0.41919  1.0000
  S   S225      1.0  0.49121  0.65656  0.47857  1.0000
  C   C1685     1.0  0.39335  0.96521  0.46450  1.0000
  C   C1686     1.0  0.45927  0.52843  0.45698  1.0000
  H   H1339     1.0  0.36187  0.67259  0.46093  1.0000
  C   C1687     1.0  0.34624  0.80301  0.31866  1.0000
  C   C1688     1.0  0.37677  0.90207  0.42881  1.0000
  C   C1689     1.0  0.36255  0.74320  0.25577  1.0000
  C   C1690     1.0  0.45818  0.76944  0.40500  1.0000
  C   C1691     1.0  0.45087  0.74290  0.40203  1.0000
  C   C1692     1.0  0.45367  0.72751  0.41358  1.0000
  P   P56       1.0  0.43908  0.72948  0.38326  1.0000
  C   C1693     1.0  0.40567  0.72402  0.38056  1.0000
  C   C1694     1.0  0.46067  0.75272  0.36973  1.0000
  C   C1695     1.0  0.45131  0.75642  0.35563  1.0000
  C   C1696     1.0  0.46811  0.77530  0.34563  1.0000
  C   C1697     1.0  0.49440  0.79013  0.34938  1.0000
  C   C1698     1.0  0.50403  0.78620  0.36323  1.0000
  C   C1699     1.0  0.48730  0.76755  0.37336  1.0000
  C   C1700     1.0  0.39433  0.73536  0.39043  1.0000
  C   C1701     1.0  0.36829  0.73045  0.38841  1.0000
  H   H1340     1.0  0.33191  0.90896  0.26579  1.0000
  C   C1702     1.0  0.36438  0.70254  0.36681  1.0000
  C   C1703     1.0  0.39044  0.70754  0.36873  1.0000
  C   C1704     1.0  0.43970  0.69841  0.38059  1.0000
  C   C1705     1.0  0.46001  0.69664  0.37258  1.0000
  C   C1706     1.0  0.45941  0.67227  0.36991  1.0000
  C   C1707     1.0  0.43867  0.64955  0.37526  1.0000
  C   C1708     1.0  0.41862  0.65117  0.38343  1.0000
  C   C1709     1.0  0.41906  0.67545  0.38602  1.0000
  H   H1341     1.0  0.45649  0.78179  0.39620  1.0000
  H   H1342     1.0  0.44845  0.70713  0.41156  1.0000
  H   H1343     1.0  0.43122  0.74475  0.35220  1.0000
  H   H1344     1.0  0.46090  0.77844  0.33486  1.0000
  H   H1345     1.0  0.50726  0.80459  0.34147  1.0000
  H   H1346     1.0  0.52448  0.79768  0.36612  1.0000
  H   H1347     1.0  0.49522  0.76475  0.38401  1.0000
  H   H1348     1.0  0.40541  0.74795  0.39970  1.0000
  H   H1349     1.0  0.35978  0.73962  0.39587  1.0000
  C   C1710     1.0  0.53626  0.83749  0.48314  1.0000
  C   C1711     1.0  0.54590  0.52217  0.44714  1.0000
  H   H1350     1.0  0.39867  0.69864  0.36084  1.0000
  H   H1351     1.0  0.47603  0.71388  0.36808  1.0000
  H   H1352     1.0  0.47475  0.67091  0.36338  1.0000
  H   H1353     1.0  0.43781  0.63059  0.37285  1.0000
  H   H1354     1.0  0.40243  0.63346  0.38743  1.0000
  H   H1355     1.0  0.40292  0.67615  0.39191  1.0000
  C   C1712     1.0  0.60765  0.95281  0.40676  1.0000
  H   H1356     1.0  0.41954  0.78323  0.36984  1.0000
  H   H1357     1.0  0.41705  0.50989  0.45413  1.0000
  H   H1358     1.0  0.39645  0.92950  0.46872  1.0000
  H   H1359     1.0  0.46638  0.93092  0.44576  1.0000
  C   C1713     1.0  0.35534  0.59279  0.36971  1.0000
  C   C1714     1.0  0.33488  0.76060  0.30714  1.0000
  C   C1715     1.0  0.36283  0.55783  0.38903  1.0000
  C   C1716     1.0  0.39459  0.80257  0.37063  1.0000
  C   C1717     1.0  0.45932  0.94516  0.44322  1.0000
  C   C1718     1.0  0.35765  0.92159  0.46189  1.0000
  H   H1360     1.0  0.46702  0.72707  0.43656  1.0000
  H   H1361     1.0  0.55841  0.84878  0.27183  1.0000
  C   C1719     1.0  0.54207  0.83583  0.26481  1.0000
  C   C1720     1.0  0.39815  0.78254  0.26597  1.0000
  C   C1721     1.0  0.41003  0.76787  0.27180  1.0000
  H   H1362     1.0  0.40702  0.80339  0.26784  1.0000
  H   H1363     1.0  0.42808  0.77733  0.27826  1.0000
  H   H1364     1.0  0.66104  0.53257  0.46811  1.0000
  H   H1365     1.0  0.36917  0.82920  0.39951  1.0000
  H   H1366     1.0  0.53521  0.85559  0.48532  1.0000
  C   C1722     1.0  0.39577  0.86138  0.25338  1.0000
  H   H1367     1.0  0.34262  0.80805  0.27779  1.0000
  H   H1368     1.0  0.47481  0.80110  0.42132  1.0000
  H   H1369     1.0  0.62726  0.51025  0.27844  1.0000
  C   C1723     1.0  0.45759  0.95188  0.42818  1.0000
  H   H1370     1.0  0.45542  0.70989  0.27151  1.0000
  H   H1371     1.0  0.53591  0.52200  0.42351  1.0000
  C   C1724     1.0  0.39239  0.78940  0.42573  1.0000
  H   H1372     1.0  0.48741  0.75051  0.48006  1.0000
  C   C1725     1.0  0.39767  0.81448  0.40269  1.0000
  C   C1726     1.0  0.40521  0.79918  0.41200  1.0000
  P   P57       1.0  0.41364  0.82659  0.38477  1.0000
  C   C1727     1.0  0.44756  0.83316  0.38505  1.0000
  C   C1728     1.0  0.46012  0.83280  0.37144  1.0000
  C   C1729     1.0  0.48656  0.83865  0.37153  1.0000
  C   C1730     1.0  0.50077  0.84526  0.38515  1.0000
  C   C1731     1.0  0.48869  0.84662  0.39866  1.0000
  C   C1732     1.0  0.46228  0.84098  0.39859  1.0000
  C   C1733     1.0  0.41411  0.85746  0.38034  1.0000
  C   C1734     1.0  0.41665  0.87534  0.39199  1.0000
  C   C1735     1.0  0.41734  0.89941  0.38846  1.0000
  C   C1736     1.0  0.41594  0.90592  0.37328  1.0000
  C   C1737     1.0  0.41405  0.88844  0.36163  1.0000
  C   C1738     1.0  0.41334  0.86440  0.36512  1.0000
  H   H1373     1.0  0.39880  0.77825  0.43308  1.0000
  H   H1374     1.0  0.59046  0.67235  0.49107  1.0000
  H   H1375     1.0  0.42116  0.79503  0.40876  1.0000
  H   H1376     1.0  0.44977  0.82886  0.36067  1.0000
  H   H1377     1.0  0.49633  0.83930  0.36090  1.0000
  H   H1378     1.0  0.52148  0.85071  0.38510  1.0000
  H   H1379     1.0  0.50014  0.85334  0.40906  1.0000
  H   H1380     1.0  0.45376  0.84370  0.40900  1.0000
  H   H1381     1.0  0.41880  0.87102  0.40374  1.0000
  H   H1382     1.0  0.41970  0.91328  0.39746  1.0000
  H   H1383     1.0  0.41692  0.92472  0.37050  1.0000
  S   S226      1.0  0.37471  0.69142  0.32671  1.0000
  C   C1739     1.0  0.48165  0.57093  0.48453  1.0000
  H   H1384     1.0  0.41122  0.87649  0.24708  1.0000
  C   C1740     1.0  0.36124  0.76828  0.30432  1.0000
  H   H1385     1.0  0.36488  0.81607  0.36902  1.0000
  C   C1741     1.0  0.37139  0.80210  0.36501  1.0000
  H   H1386     1.0  0.59616  0.50784  0.46202  1.0000
  H   H1387     1.0  0.54902  0.66596  0.47877  1.0000
  H   H1388     1.0  0.63415  0.95416  0.42459  1.0000
  C   C1742     1.0  0.51769  0.82138  0.27135  1.0000
  H   H1389     1.0  0.36721  0.75496  0.29873  1.0000
  C   C1743     1.0  0.40226  0.78392  0.36536  1.0000
  C   C1744     1.0  0.38376  0.58706  0.25005  1.0000
  H   H1390     1.0  0.36579  0.78218  0.25359  1.0000
  H   H1391     1.0  0.41354  0.89358  0.34981  1.0000
  C   C1745     1.0  0.45147  0.95633  0.45507  1.0000
  P   P58       1.0  0.42783  0.98566  0.46706  1.0000
  C   C1746     1.0  0.46412  0.73868  0.42776  1.0000
  C   C1747     1.0  0.43626  0.52894  0.43380  1.0000
  C   C1748     1.0  0.36518  0.76632  0.34810  1.0000
  C   C1749     1.0  0.61586  0.59901  0.47585  1.0000
  C   C1750     1.0  0.39805  0.64051  0.48078  1.0000
  C   C1751     1.0  0.55506  0.65053  0.47831  1.0000
  C   C1752     1.0  0.55705  0.53742  0.46011  1.0000
  H   H1392     1.0  0.50136  0.54707  0.45534  1.0000
  H   H1393     1.0  0.60601  0.96897  0.34338  1.0000
  H   H1394     1.0  0.35442  0.75303  0.33897  1.0000
  C   C1753     1.0  0.38768  0.76604  0.35404  1.0000
  S   S227      1.0  0.39396  0.63601  0.31527  1.0000
  H   H1395     1.0  0.61852  0.59451  0.45150  1.0000
  H   H1396     1.0  0.39382  0.75196  0.34978  1.0000
  C   C1754     1.0  0.38374  0.93804  0.46541  1.0000
  H   H1397     1.0  0.66231  0.55285  0.28732  1.0000
  H   H1398     1.0  0.48028  0.77389  0.44143  1.0000
  H   H1399     1.0  0.58232  0.95682  0.39016  1.0000
  C   C1755     1.0  0.53932  0.62695  0.47097  1.0000
  C   C1756     1.0  0.37706  0.88207  0.43766  1.0000
  H   H1400     1.0  0.47969  0.57515  0.47275  1.0000
  C   C1757     1.0  0.60781  0.99421  0.40052  1.0000
  C   C1758     1.0  0.37466  0.77036  0.25789  1.0000
  C   C1759     1.0  0.35290  0.57417  0.39503  1.0000
  C   C1760     1.0  0.44219  0.97474  0.45204  1.0000
  C   C1761     1.0  0.49634  0.80504  0.26233  1.0000
  C   C1762     1.0  0.39844  0.74091  0.26945  1.0000
  C   C1763     1.0  0.62909  0.60139  0.46210  1.0000
  S   S228      1.0  0.39712  0.62721  0.27081  1.0000
  C   C1764     1.0  0.34697  0.68192  0.44062  1.0000
  C   C1765     1.0  0.56582  0.57643  0.44581  1.0000
  H   H1401     1.0  0.33934  0.78423  0.34911  1.0000
  H   H1402     1.0  0.40744  0.72955  0.27430  1.0000
  H   H1403     1.0  0.44612  0.97463  0.41327  1.0000
  H   H1404     1.0  0.47750  0.79428  0.26760  1.0000
  C   C1766     1.0  0.48347  0.55004  0.43440  1.0000
  C   C1767     1.0  0.48311  0.54241  0.44951  1.0000
  C   C1768     1.0  0.36910  0.55908  0.37345  1.0000
  S   S229      1.0  0.36454  0.86778  0.48245  1.0000
  H   H1405     1.0  0.50187  0.56088  0.42870  1.0000
  C   C1769     1.0  0.56686  0.56469  0.45962  1.0000
  C   C1770     1.0  0.37148  0.79421  0.43004  1.0000
  H   H1406     1.0  0.37065  0.68412  0.40504  1.0000
  C   C1771     1.0  0.38352  0.61084  0.25341  1.0000
  C   C1772     1.0  0.37641  0.97569  0.46011  1.0000
  H   H1407     1.0  0.53391  0.58847  0.46534  1.0000
  H   H1408     1.0  0.41339  0.67964  0.25956  1.0000
  C   C1773     1.0  0.46003  0.54331  0.42655  1.0000
  C   C1774     1.0  0.65641  0.61278  0.46193  1.0000
  S   S230      1.0  0.34622  0.58174  0.30324  1.0000
  C   C1775     1.0  0.54679  0.60683  0.47068  1.0000
  C   C1776     1.0  0.43980  0.98083  0.43683  1.0000
  C   C1777     1.0  0.53933  0.79053  0.47789  1.0000
  C   C1778     1.0  0.55470  0.56110  0.43284  1.0000
  H   H1409     1.0  0.55000  0.96952  0.40376  1.0000
  C   C1779     1.0  0.54526  0.83375  0.24923  1.0000
  Fe  Fe115     1.0  0.36335  0.59970  0.32607  1.0000
  H   H1410     1.0  0.33593  0.69010  0.41856  1.0000
  H   H1411     1.0  0.33106  0.70688  0.27737  1.0000
  H   H1412     1.0  0.53832  0.50111  0.44764  1.0000
  P   P59       1.0  0.45947  0.51796  0.47628  1.0000
  H   H1413     1.0  0.36570  0.54424  0.39636  1.0000
  C   C1780     1.0  0.34937  0.59175  0.38531  1.0000
  H   H1414     1.0  0.60409  0.63740  0.49051  1.0000
  C   C1781     1.0  0.55297  0.99433  0.47634  1.0000
  C   C1782     1.0  0.49885  0.50444  0.48559  1.0000
  C   C1783     1.0  0.65710  0.50337  0.43140  1.0000
  H   H1415     1.0  0.46017  0.54888  0.41479  1.0000
  C   C1784     1.0  0.35679  0.78404  0.35376  1.0000
  C   C1785     1.0  0.42461  0.69892  0.25485  1.0000
  C   C1786     1.0  0.34611  0.60448  0.47531  1.0000
  H   H1416     1.0  0.39013  0.57768  0.25863  1.0000
  C   C1787     1.0  0.46069  0.62948  0.48072  1.0000
  C   C1788     1.0  0.35391  0.85940  0.44026  1.0000
  S   S231      1.0  0.34637  0.63783  0.29477  1.0000
  C   C1789     1.0  0.54780  0.98723  0.40508  1.0000
  C   C1790     1.0  0.48372  0.88177  0.24651  1.0000
  C   C1791     1.0  0.65766  0.61956  0.48915  1.0000
  H   H1417     1.0  0.51324  0.87191  0.25528  1.0000
  H   H1418     1.0  0.56026  0.95312  0.33457  1.0000
  S   S232      1.0  0.33477  0.61591  0.32996  1.0000
  P   P60       1.0  0.33079  0.72718  0.24673  1.0000
  C   C1792     1.0  0.59787  0.96710  0.39830  1.0000
  C   C1793     1.0  0.35016  0.95915  0.45689  1.0000
  C   C1794     1.0  0.35332  0.89944  0.42246  1.0000
  H   H1419     1.0  0.38761  0.83202  0.28767  1.0000
  H   H1420     1.0  0.35046  0.90066  0.46272  1.0000
  H   H1421     1.0  0.37676  0.54635  0.36891  1.0000
  H   H1422     1.0  0.61812  0.51758  0.48733  1.0000
  C   C1795     1.0  0.56706  0.96530  0.34469  1.0000
  H   H1423     1.0  0.35457  0.84454  0.44755  1.0000
  C   C1796     1.0  0.62314  0.50182  0.40783  1.0000
  C   C1797     1.0  0.50321  0.87354  0.24520  1.0000
  C   C1798     1.0  0.33027  0.85651  0.43381  1.0000
  C   C1799     1.0  0.43849  0.98089  0.48562  1.0000
  H   H1424     1.0  0.47878  0.99473  0.47909  1.0000
  C   C1800     1.0  0.47777  0.49920  0.47565  1.0000
  H   H1425     1.0  0.33614  0.65172  0.26467  1.0000
  H   H1426     1.0  0.37755  0.64236  0.24412  1.0000
  C   C1801     1.0  0.35096  0.82872  0.25642  1.0000
  H   H1427     1.0  0.41663  0.53058  0.48258  1.0000
  C   C1802     1.0  0.46491  0.98752  0.48823  1.0000
  H   H1428     1.0  0.51459  0.98067  0.46660  1.0000
  H   H1429     1.0  0.34044  0.81650  0.32415  1.0000
  C   C1803     1.0  0.55826  0.98660  0.36625  1.0000
  H   H1430     1.0  0.33326  0.71048  0.37489  1.0000
  H   H1431     1.0  0.38329  0.99651  0.45902  1.0000
  C   C1804     1.0  0.49935  0.80262  0.24667  1.0000
  H   H1432     1.0  0.59630  0.54744  0.48989  1.0000
  H   H1433     1.0  0.33294  0.64430  0.39451  1.0000
  C   C1805     1.0  0.63726  0.99225  0.41991  1.0000
  H   H1434     1.0  0.33016  0.71128  0.32708  1.0000
  H   H1435     1.0  0.49761  0.61145  0.49129  1.0000
  H   H1436     1.0  0.34186  0.60452  0.38985  1.0000
  H   H1437     1.0  0.43111  0.99364  0.43413  1.0000
  C   C1806     1.0  0.58406  0.99531  0.37149  1.0000
  C   C1807     1.0  0.60279  0.49830  0.48483  1.0000
  C   C1808     1.0  0.63040  0.60802  0.48937  1.0000
  C   C1809     1.0  0.35746  0.60561  0.48955  1.0000
  C   C1810     1.0  0.33016  0.87678  0.42495  1.0000
  H   H1438     1.0  0.33096  0.81860  0.25241  1.0000
  H   H1439     1.0  0.60989  0.50088  0.39875  1.0000
  H   H1440     1.0  0.37195  0.50458  0.49178  1.0000
  H   H1441     1.0  0.56408  0.84528  0.24408  1.0000
  H   H1442     1.0  0.43112  0.83887  0.24745  1.0000
  C   C1811     1.0  0.38336  0.62369  0.49229  1.0000
  Fe  Fe116     1.0  0.63849  0.52597  0.52077  1.0000
  H   H1443     1.0  0.40048  0.96703  0.49616  1.0000
  S   S233      1.0  0.61145  0.59423  0.53210  1.0000
  S   S234      1.0  0.62891  0.54074  0.54230  1.0000
  H   H1444     1.0  0.41589  0.96174  0.52147  1.0000
  S   S235      1.0  0.36068  0.89895  0.52333  1.0000
  C   C1812     1.0  0.36138  0.84463  0.73978  1.0000
  H   H1445     1.0  0.37356  0.87187  0.55281  1.0000
  H   H1446     1.0  0.45258  0.82569  0.58784  1.0000
  Fe  Fe117     1.0  0.55799  0.69953  0.51857  1.0000
  S   S236      1.0  0.51922  0.66434  0.52061  1.0000
  S   S237      1.0  0.59661  0.69714  0.52091  1.0000
  Fe  Fe118     1.0  0.53274  0.73662  0.51127  1.0000
  S   S238      1.0  0.49245  0.70325  0.51284  1.0000
  S   S239      1.0  0.53543  0.77775  0.50885  1.0000
  Fe  Fe119     1.0  0.50702  0.69100  0.53372  1.0000
  S   S240      1.0  0.48030  0.67864  0.55438  1.0000
  Fe  Fe120     1.0  0.50876  0.68021  0.49981  1.0000
  C   C1813     1.0  0.40340  0.77085  0.57243  1.0000
  S   S241      1.0  0.54650  0.72547  0.53302  1.0000
  C   C1814     1.0  0.35270  0.78030  0.59918  1.0000
  C   C1815     1.0  0.36404  0.68682  0.72587  1.0000
  Fe  Fe121     1.0  0.48623  0.69530  0.64260  1.0000
  S   S242      1.0  0.46445  0.65965  0.65692  1.0000
  S   S243      1.0  0.51582  0.69983  0.62413  1.0000
  Fe  Fe122     1.0  0.45988  0.72459  0.65782  1.0000
  S   S244      1.0  0.43533  0.69162  0.67306  1.0000
  S   S245      1.0  0.45794  0.76282  0.65872  1.0000
  Fe  Fe123     1.0  0.47160  0.68706  0.67692  1.0000
  S   S246      1.0  0.47898  0.67494  0.70047  1.0000
  Fe  Fe124     1.0  0.42968  0.66669  0.65232  1.0000
  S   S247      1.0  0.39126  0.63282  0.64624  1.0000
  S   S248      1.0  0.49714  0.72228  0.66307  1.0000
  S   S249      1.0  0.45068  0.70018  0.63659  1.0000
  C   C1816     1.0  0.36539  0.64060  0.64939  1.0000
  C   C1817     1.0  0.37042  0.66541  0.65466  1.0000
  H   H1447     1.0  0.41850  0.59206  0.50780  1.0000
  C   C1818     1.0  0.45586  0.97520  0.51463  1.0000
  H   H1448     1.0  0.45412  0.75569  0.70874  1.0000
  H   H1449     1.0  0.63501  0.53707  0.58102  1.0000
  H   H1450     1.0  0.39018  0.68004  0.65642  1.0000
  C   C1819     1.0  0.34796  0.65415  0.59286  1.0000
  H   H1451     1.0  0.57724  0.81920  0.55329  1.0000
  C   C1820     1.0  0.56705  0.77121  0.58081  1.0000
  C   C1821     1.0  0.45508  0.71163  0.73245  1.0000
  C   C1822     1.0  0.46115  0.70379  0.71838  1.0000
  C   C1823     1.0  0.46972  0.68447  0.71785  1.0000
  C   C1824     1.0  0.47160  0.67277  0.73153  1.0000
  H   H1452     1.0  0.63453  0.53467  0.69055  1.0000
  H   H1453     1.0  0.45964  0.71300  0.70798  1.0000
  H   H1454     1.0  0.47831  0.65790  0.73127  1.0000
  C   C1825     1.0  0.37814  0.75449  0.64403  1.0000
  C   C1826     1.0  0.39630  0.77755  0.65100  1.0000
  C   C1827     1.0  0.42082  0.78005  0.65551  1.0000
  C   C1828     1.0  0.42709  0.75935  0.65326  1.0000
  C   C1829     1.0  0.40879  0.73615  0.64656  1.0000
  C   C1830     1.0  0.38438  0.73376  0.64191  1.0000
  H   H1455     1.0  0.39157  0.79352  0.65284  1.0000
  H   H1456     1.0  0.43489  0.79799  0.66080  1.0000
  H   H1457     1.0  0.41362  0.72024  0.64464  1.0000
  H   H1458     1.0  0.37041  0.71586  0.63654  1.0000
  C   C1831     1.0  0.49095  0.68493  0.57365  1.0000
  C   C1832     1.0  0.47219  0.67878  0.58511  1.0000
  C   C1833     1.0  0.47959  0.68342  0.60054  1.0000
  C   C1834     1.0  0.50589  0.69384  0.60475  1.0000
  C   C1835     1.0  0.52473  0.69977  0.59330  1.0000
  C   C1836     1.0  0.51735  0.69567  0.57781  1.0000
  H   H1459     1.0  0.45178  0.67022  0.58206  1.0000
  H   H1460     1.0  0.46490  0.67857  0.60921  1.0000
  H   H1461     1.0  0.54509  0.70767  0.59645  1.0000
  H   H1462     1.0  0.53205  0.70073  0.56911  1.0000
  C   C1837     1.0  0.55131  0.56616  0.50298  1.0000
  C   C1838     1.0  0.37130  0.69105  0.54398  1.0000
  H   H1463     1.0  0.54260  0.57903  0.50051  1.0000
  H   H1464     1.0  0.37844  0.97950  0.57195  1.0000
  H   H1465     1.0  0.45076  0.92941  0.50182  1.0000
  H   H1466     1.0  0.44139  0.86492  0.53788  1.0000
  H   H1467     1.0  0.46121  0.63124  0.50520  1.0000
  C   C1839     1.0  0.49445  0.74788  0.54878  1.0000
  C   C1840     1.0  0.60813  0.62303  0.52804  1.0000
  C   C1841     1.0  0.62951  0.64724  0.52552  1.0000
  C   C1842     1.0  0.62565  0.66966  0.52325  1.0000
  C   C1843     1.0  0.60043  0.66817  0.52335  1.0000
  C   C1844     1.0  0.57907  0.64386  0.52558  1.0000
  C   C1845     1.0  0.58295  0.62153  0.52793  1.0000
  C   C1846     1.0  0.60657  0.86581  0.58792  1.0000
  H   H1468     1.0  0.64235  0.68836  0.52154  1.0000
  H   H1469     1.0  0.55957  0.64230  0.52568  1.0000
  H   H1470     1.0  0.35154  0.69203  0.73274  1.0000
  H   H1471     1.0  0.65968  0.59255  0.65563  1.0000
  H   H1472     1.0  0.51455  0.74023  0.56724  1.0000
  H   H1473     1.0  0.41504  0.79793  0.69022  1.0000
  C   C1847     1.0  0.44479  0.76830  0.71041  1.0000
  C   C1848     1.0  0.38680  0.66067  0.72149  1.0000
  H   H1474     1.0  0.35642  0.69368  0.53763  1.0000
  C   C1849     1.0  0.39196  0.69511  0.70397  1.0000
  H   H1475     1.0  0.62067  0.60619  0.50012  1.0000
  C   C1850     1.0  0.58149  0.54844  0.49708  1.0000
  H   H1476     1.0  0.36201  0.74758  0.67432  1.0000
  C   C1851     1.0  0.44009  0.91492  0.49327  1.0000
  H   H1477     1.0  0.47750  0.80110  0.58177  1.0000
  H   H1478     1.0  0.36495  0.78412  0.60921  1.0000
  H   H1479     1.0  0.35552  0.57807  0.71937  1.0000
  C   C1852     1.0  0.33960  0.62179  0.64698  1.0000
  C   C1853     1.0  0.42093  0.80097  0.71455  1.0000
  H   H1480     1.0  0.34502  0.89038  0.56892  1.0000
  H   H1481     1.0  0.60787  0.73224  0.58107  1.0000
  H   H1482     1.0  0.49727  0.60971  0.54599  1.0000
  H   H1483     1.0  0.34261  0.54514  0.64659  1.0000
  H   H1484     1.0  0.46238  0.97244  0.52575  1.0000
  C   C1854     1.0  0.44439  0.76807  0.57228  1.0000
  H   H1485     1.0  0.53305  0.82668  0.50683  1.0000
  H   H1486     1.0  0.36942  0.77246  0.69848  1.0000
  S   S250      1.0  0.34724  0.86479  0.62204  1.0000
  C   C1855     1.0  0.48465  0.56125  0.51545  1.0000
  H   H1487     1.0  0.46119  0.89374  0.72418  1.0000
  H   H1488     1.0  0.34074  0.86211  0.70096  1.0000
  C   C1856     1.0  0.58499  0.83218  0.56303  1.0000
  H   H1489     1.0  0.57511  0.50375  0.72920  1.0000
  P   P61       1.0  0.60086  0.54930  0.70919  1.0000
  C   C1857     1.0  0.36531  0.83398  0.72616  1.0000
  H   H1490     1.0  0.39233  0.64573  0.72487  1.0000
  C   C1858     1.0  0.53172  0.78824  0.59759  1.0000
  C   C1859     1.0  0.58657  0.84063  0.59016  1.0000
  H   H1491     1.0  0.37082  0.71697  0.70943  1.0000
  C   C1860     1.0  0.52514  0.80821  0.60180  1.0000
  H   H1492     1.0  0.53366  0.59707  0.71845  1.0000
  C   C1861     1.0  0.50464  0.78474  0.62466  1.0000
  C   C1862     1.0  0.51035  0.76441  0.62028  1.0000
  C   C1863     1.0  0.52333  0.76588  0.60665  1.0000
  H   H1493     1.0  0.58021  0.83423  0.60163  1.0000
  C   C1864     1.0  0.42634  0.59876  0.49662  1.0000
  C   C1865     1.0  0.51169  0.80646  0.61532  1.0000
  C   C1866     1.0  0.58157  0.51472  0.70547  1.0000
  H   H1494     1.0  0.55025  0.52371  0.53025  1.0000
  H   H1495     1.0  0.50458  0.74738  0.62744  1.0000
  H   H1496     1.0  0.52695  0.74959  0.60333  1.0000
  H   H1497     1.0  0.33484  0.63254  0.57167  1.0000
  C   C1867     1.0  0.49343  0.58685  0.51041  1.0000
  S   S251      1.0  0.36949  0.96795  0.52431  1.0000
  C   C1868     1.0  0.44259  0.80644  0.58271  1.0000
  C   C1869     1.0  0.35915  0.59615  0.69735  1.0000
  C   C1870     1.0  0.36869  0.59054  0.71089  1.0000
  C   C1871     1.0  0.39560  0.60095  0.71356  1.0000
  C   C1872     1.0  0.41317  0.61674  0.70267  1.0000
  C   C1873     1.0  0.40385  0.62208  0.68910  1.0000
  C   C1874     1.0  0.37699  0.61203  0.68651  1.0000
  C   C1875     1.0  0.53766  0.56477  0.70823  1.0000
  Fe  Fe125     1.0  0.33616  0.78133  0.64658  1.0000
  H   H1498     1.0  0.33325  0.67235  0.69124  1.0000
  H   H1499     1.0  0.40296  0.59694  0.72409  1.0000
  H   H1500     1.0  0.43402  0.62491  0.70475  1.0000
  H   H1501     1.0  0.41746  0.63415  0.68059  1.0000
  H   H1502     1.0  0.37010  0.61644  0.67596  1.0000
  C   C1876     1.0  0.57223  0.76162  0.56719  1.0000
  C   C1877     1.0  0.63670  0.71697  0.55223  1.0000
  H   H1503     1.0  0.33485  0.75991  0.71728  1.0000
  H   H1504     1.0  0.53006  0.55271  0.52385  1.0000
  C   C1878     1.0  0.33458  0.56103  0.66704  1.0000
  C   C1879     1.0  0.62024  0.67968  0.56913  1.0000
  C   C1880     1.0  0.61573  0.69610  0.55902  1.0000
  P   P62       1.0  0.59352  0.65393  0.57896  1.0000
  C   C1881     1.0  0.56406  0.64037  0.56744  1.0000
  C   C1882     1.0  0.60308  0.62866  0.58339  1.0000
  C   C1883     1.0  0.61468  0.61990  0.57213  1.0000
  C   C1884     1.0  0.62245  0.60058  0.57540  1.0000
  H   H1505     1.0  0.58235  0.51839  0.68088  1.0000
  C   C1885     1.0  0.60729  0.59852  0.60123  1.0000
  C   C1886     1.0  0.59934  0.61778  0.59798  1.0000
  C   C1887     1.0  0.54953  0.65445  0.56566  1.0000
  C   C1888     1.0  0.52562  0.64338  0.55790  1.0000
  C   C1889     1.0  0.51594  0.61819  0.55186  1.0000
  C   C1890     1.0  0.53027  0.60405  0.55348  1.0000
  C   C1891     1.0  0.55422  0.61503  0.56125  1.0000
  C   C1892     1.0  0.58682  0.66744  0.59608  1.0000
  C   C1893     1.0  0.60651  0.68955  0.60321  1.0000
  C   C1894     1.0  0.60076  0.70074  0.61595  1.0000
  C   C1895     1.0  0.57536  0.68998  0.62163  1.0000
  C   C1896     1.0  0.55583  0.66769  0.61479  1.0000
  C   C1897     1.0  0.56153  0.65630  0.60216  1.0000
  H   H1506     1.0  0.58317  0.52100  0.51315  1.0000
  H   H1507     1.0  0.48530  0.55749  0.52745  1.0000
  C   C1898     1.0  0.34654  0.78588  0.57240  1.0000
  H   H1508     1.0  0.61482  0.52779  0.60672  1.0000
  H   H1509     1.0  0.59615  0.69271  0.55606  1.0000
  H   H1510     1.0  0.61760  0.62792  0.56077  1.0000
  H   H1511     1.0  0.49369  0.98835  0.50434  1.0000
  C   C1899     1.0  0.36719  0.68358  0.55925  1.0000
  H   H1512     1.0  0.60452  0.59019  0.61251  1.0000
  H   H1513     1.0  0.59040  0.62411  0.60685  1.0000
  H   H1514     1.0  0.55639  0.67381  0.57055  1.0000
  H   H1515     1.0  0.51445  0.65428  0.55666  1.0000
  C   C1900     1.0  0.35765  0.83990  0.71211  1.0000
  H   H1516     1.0  0.52291  0.58456  0.54872  1.0000
  H   H1517     1.0  0.56483  0.60359  0.56235  1.0000
  H   H1518     1.0  0.62622  0.69834  0.59890  1.0000
  H   H1519     1.0  0.65853  0.55268  0.66675  1.0000
  H   H1520     1.0  0.57061  0.69895  0.63126  1.0000
  H   H1521     1.0  0.53609  0.65958  0.61915  1.0000
  H   H1522     1.0  0.54601  0.63910  0.59700  1.0000
  C   C1901     1.0  0.41574  0.63189  0.60987  1.0000
  C   C1902     1.0  0.41764  0.61558  0.59860  1.0000
  C   C1903     1.0  0.40798  0.61557  0.58398  1.0000
  C   C1904     1.0  0.39683  0.63220  0.58057  1.0000
  C   C1905     1.0  0.39592  0.64948  0.59168  1.0000
  C   C1906     1.0  0.40463  0.64858  0.60650  1.0000
  P   P63       1.0  0.38177  0.67114  0.58731  1.0000
  C   C1907     1.0  0.38626  0.67977  0.56745  1.0000
  Fe  Fe126     1.0  0.64735  0.50176  0.65407  1.0000
  C   C1908     1.0  0.47459  0.54048  0.50502  1.0000
  C   C1909     1.0  0.62106  0.55423  0.72595  1.0000
  C   C1910     1.0  0.50437  0.79308  0.54487  1.0000
  H   H1523     1.0  0.49459  0.78354  0.63525  1.0000
  H   H1524     1.0  0.35408  0.79414  0.56140  1.0000
  C   C1911     1.0  0.34650  0.85719  0.71174  1.0000
  H   H1525     1.0  0.61154  0.59688  0.69162  1.0000
  C   C1912     1.0  0.39462  0.69516  0.53689  1.0000
  C   C1913     1.0  0.41398  0.69212  0.54512  1.0000
  C   C1914     1.0  0.40995  0.68474  0.56036  1.0000
  C   C1915     1.0  0.39890  0.70213  0.59696  1.0000
  C   C1916     1.0  0.42570  0.71217  0.60012  1.0000
  C   C1917     1.0  0.43913  0.73659  0.60714  1.0000
  C   C1918     1.0  0.42609  0.75138  0.61080  1.0000
  C   C1919     1.0  0.39963  0.74195  0.60717  1.0000
  C   C1920     1.0  0.38608  0.71744  0.60025  1.0000
  H   H1526     1.0  0.42293  0.63167  0.62127  1.0000
  H   H1527     1.0  0.42649  0.60289  0.60126  1.0000
  H   H1528     1.0  0.40931  0.60280  0.57526  1.0000
  H   H1529     1.0  0.38924  0.63172  0.56922  1.0000
  H   H1530     1.0  0.40296  0.66078  0.61548  1.0000
  C   C1921     1.0  0.62092  0.56420  0.69281  1.0000
  H   H1531     1.0  0.35028  0.64001  0.69058  1.0000
  H   H1532     1.0  0.44877  0.72677  0.73274  1.0000
  H   H1533     1.0  0.53199  0.82086  0.56036  1.0000
  H   H1534     1.0  0.65026  0.67283  0.58051  1.0000
  H   H1535     1.0  0.35464  0.66978  0.61592  1.0000
  C   C1922     1.0  0.41775  0.75723  0.56884  1.0000
  H   H1536     1.0  0.39777  0.70081  0.52505  1.0000
  H   H1537     1.0  0.43217  0.69538  0.53970  1.0000
  H   H1538     1.0  0.42539  0.68290  0.56658  1.0000
  H   H1539     1.0  0.43627  0.70114  0.59730  1.0000
  H   H1540     1.0  0.45958  0.74383  0.60994  1.0000
  H   H1541     1.0  0.43638  0.76990  0.61671  1.0000
  H   H1542     1.0  0.38938  0.75327  0.61016  1.0000
  H   H1543     1.0  0.63119  0.89372  0.57152  1.0000
  C   C1923     1.0  0.63474  0.55217  0.68579  1.0000
  Fe  Fe127     1.0  0.33446  0.83231  0.63957  1.0000
  C   C1924     1.0  0.63600  0.59740  0.67320  1.0000
  C   C1925     1.0  0.57141  0.59897  0.72318  1.0000
  H   H1544     1.0  0.61591  0.71791  0.62136  1.0000
  H   H1545     1.0  0.51826  0.55622  0.70321  1.0000
  P   P64       1.0  0.39755  0.81376  0.58357  1.0000
  C   C1926     1.0  0.40764  0.83071  0.60166  1.0000
  C   C1927     1.0  0.40231  0.83667  0.56837  1.0000
  C   C1928     1.0  0.38476  0.84740  0.56645  1.0000
  C   C1929     1.0  0.38750  0.86407  0.55432  1.0000
  C   C1930     1.0  0.40786  0.87034  0.54403  1.0000
  C   C1931     1.0  0.42563  0.86004  0.54591  1.0000
  C   C1932     1.0  0.42290  0.84326  0.55802  1.0000
  C   C1933     1.0  0.40316  0.85239  0.60489  1.0000
  C   C1934     1.0  0.40981  0.86470  0.61913  1.0000
  C   C1935     1.0  0.42097  0.85552  0.63028  1.0000
  C   C1936     1.0  0.42517  0.83376  0.62727  1.0000
  C   C1937     1.0  0.41825  0.82120  0.61311  1.0000
  H   H1546     1.0  0.36562  0.71047  0.59757  1.0000
  H   H1547     1.0  0.40249  0.90760  0.50210  1.0000
  H   H1548     1.0  0.43574  0.76850  0.68666  1.0000
  C   C1938     1.0  0.42962  0.96900  0.51218  1.0000
  C   C1939     1.0  0.36319  0.79162  0.58513  1.0000
  H   H1549     1.0  0.57817  0.61691  0.72976  1.0000
  C   C1940     1.0  0.34573  0.87892  0.59229  1.0000
  C   C1941     1.0  0.57920  0.56391  0.71247  1.0000
  C   C1942     1.0  0.64827  0.52758  0.61790  1.0000
  Fe  Fe128     1.0  0.34142  0.81834  0.67278  1.0000
  H   H1550     1.0  0.41142  0.81348  0.71585  1.0000
  H   H1551     1.0  0.36864  0.84255  0.57419  1.0000
  H   H1552     1.0  0.40975  0.88307  0.53454  1.0000
  C   C1943     1.0  0.44970  0.88072  0.73307  1.0000
  H   H1553     1.0  0.40819  0.73820  0.56346  1.0000
  H   H1554     1.0  0.39381  0.85950  0.59670  1.0000
  H   H1555     1.0  0.40545  0.88087  0.62168  1.0000
  H   H1556     1.0  0.42551  0.86474  0.64142  1.0000
  H   H1557     1.0  0.43311  0.82620  0.63608  1.0000
  H   H1558     1.0  0.42056  0.80369  0.61131  1.0000
  H   H1559     1.0  0.50694  0.82203  0.61870  1.0000
  H   H1560     1.0  0.57573  0.77641  0.60498  1.0000
  H   H1561     1.0  0.59038  0.73981  0.55673  1.0000
  C   C1944     1.0  0.44341  0.77751  0.72497  1.0000
  H   H1562     1.0  0.54705  0.53521  0.69920  1.0000
  H   H1563     1.0  0.35385  0.69080  0.66161  1.0000
  S   S252      1.0  0.36422  0.82298  0.65125  1.0000
  S   S253      1.0  0.36307  0.82552  0.69548  1.0000
  C   C1945     1.0  0.57522  0.82385  0.57768  1.0000
  H   H1564     1.0  0.50187  0.80778  0.53834  1.0000
  C   C1946     1.0  0.39783  0.67496  0.70839  1.0000
  H   H1565     1.0  0.35245  0.56338  0.67253  1.0000
  C   C1947     1.0  0.57820  0.76800  0.59442  1.0000
  H   H1566     1.0  0.35797  0.89862  0.59625  1.0000
  C   C1948     1.0  0.36963  0.66634  0.73030  1.0000
  H   H1567     1.0  0.39235  0.62406  0.50321  1.0000
  Fe  Fe129     1.0  0.64226  0.57905  0.53002  1.0000
  C   C1949     1.0  0.60495  0.85736  0.56083  1.0000
  H   H1568     1.0  0.40070  0.70627  0.69384  1.0000
  C   C1950     1.0  0.43147  0.79398  0.72722  1.0000
  H   H1569     1.0  0.34640  0.59199  0.49831  1.0000
  H   H1570     1.0  0.41148  0.67074  0.70188  1.0000
  H   H1571     1.0  0.48414  0.72758  0.54537  1.0000
  H   H1572     1.0  0.61222  0.86372  0.54947  1.0000
  H   H1573     1.0  0.60062  0.75087  0.60513  1.0000
  H   H1574     1.0  0.56630  0.60297  0.52985  1.0000
  C   C1951     1.0  0.43448  0.77556  0.69793  1.0000
  C   C1952     1.0  0.51188  0.75516  0.56110  1.0000
  C   C1953     1.0  0.59267  0.75380  0.59452  1.0000
  C   C1954     1.0  0.34981  0.67149  0.65755  1.0000
  C   C1955     1.0  0.52171  0.80042  0.55724  1.0000
  C   C1956     1.0  0.55403  0.55287  0.70602  1.0000
  H   H1575     1.0  0.45197  0.77183  0.73430  1.0000
  P   P65       1.0  0.54994  0.79109  0.58043  1.0000
  C   C1957     1.0  0.58784  0.58714  0.72100  1.0000
  C   C1958     1.0  0.54633  0.58779  0.71681  1.0000
  C   C1959     1.0  0.64793  0.56183  0.72474  1.0000
  C   C1960     1.0  0.59674  0.74330  0.58098  1.0000
  C   C1961     1.0  0.52623  0.78156  0.56513  1.0000
  C   C1962     1.0  0.49098  0.76685  0.54054  1.0000
  H   H1576     1.0  0.47835  0.76129  0.53059  1.0000
  H   H1577     1.0  0.64903  0.64882  0.52563  1.0000
  C   C1963     1.0  0.37511  0.70111  0.71275  1.0000
  C   C1964     1.0  0.58674  0.74743  0.56730  1.0000
  H   H1578     1.0  0.56528  0.76534  0.55645  1.0000
  C   C1965     1.0  0.64856  0.56240  0.67241  1.0000
  C   C1966     1.0  0.57404  0.53337  0.51023  1.0000
  C   C1967     1.0  0.54402  0.55116  0.51620  1.0000
  C   C1968     1.0  0.42279  0.79208  0.69997  1.0000
  C   C1969     1.0  0.42090  0.97184  0.49774  1.0000
  C   C1970     1.0  0.60989  0.55065  0.74048  1.0000
  H   H1579     1.0  0.50117  0.60306  0.51839  1.0000
  S   S254      1.0  0.34779  0.75122  0.63761  1.0000
  C   C1971     1.0  0.47348  0.98426  0.50261  1.0000
  C   C1972     1.0  0.45044  0.62094  0.49516  1.0000
  H   H1580     1.0  0.61519  0.87875  0.59757  1.0000
  H   H1581     1.0  0.53063  0.82523  0.59472  1.0000
  C   C1973     1.0  0.61566  0.87423  0.57325  1.0000
  H   H1582     1.0  0.37644  0.78275  0.73208  1.0000
  H   H1583     1.0  0.38280  0.76213  0.56965  1.0000
  H   H1584     1.0  0.43676  0.83538  0.55911  1.0000
  C   C1974     1.0  0.63446  0.53009  0.60526  1.0000
  C   C1975     1.0  0.33102  0.74850  0.70697  1.0000
  C   C1976     1.0  0.64587  0.53540  0.59069  1.0000
  H   H1585     1.0  0.45540  0.75736  0.56963  1.0000
  H   H1586     1.0  0.37427  0.82103  0.72653  1.0000
  H   H1587     1.0  0.63303  0.72921  0.54418  1.0000
  C   C1977     1.0  0.55539  0.53481  0.51983  1.0000
  S   S255      1.0  0.63376  0.52152  0.63614  1.0000
  C   C1978     1.0  0.44780  0.85557  0.73401  1.0000
  Fe  Fe130     1.0  0.34473  0.88055  0.50063  1.0000
  C   C1979     1.0  0.41565  0.79544  0.57959  1.0000
  C   C1980     1.0  0.45682  0.79269  0.57918  1.0000
  H   H1588     1.0  0.35449  0.53520  0.51546  1.0000
  C   C1981     1.0  0.33914  0.51584  0.51287  1.0000
  C   C1982     1.0  0.62187  0.58708  0.68649  1.0000
  H   H1589     1.0  0.45835  0.84961  0.72595  1.0000
  C   C1983     1.0  0.35085  0.86237  0.73946  1.0000
  H   H1590     1.0  0.46739  0.52067  0.50910  1.0000
  C   C1984     1.0  0.66229  0.72151  0.55537  1.0000
  S   S256      1.0  0.64948  0.56308  0.50793  1.0000
  C   C1985     1.0  0.61888  0.58997  0.58996  1.0000
  H   H1591     1.0  0.63651  0.61491  0.66829  1.0000
  C   C1986     1.0  0.34669  0.74181  0.68268  1.0000
  C   C1987     1.0  0.53505  0.82101  0.49535  1.0000
  C   C1988     1.0  0.35098  0.75559  0.69635  1.0000
  C   C1989     1.0  0.33736  0.85823  0.60268  1.0000
  C   C1990     1.0  0.64915  0.58493  0.66610  1.0000
  C   C1991     1.0  0.66324  0.56564  0.73781  1.0000
  C   C1992     1.0  0.49167  0.59162  0.49502  1.0000
  H   H1592     1.0  0.34179  0.99122  0.50627  1.0000
  C   C1993     1.0  0.57531  0.50531  0.69045  1.0000
  C   C1994     1.0  0.41275  0.90234  0.49353  1.0000
  Fe  Fe131     1.0  0.34125  0.92496  0.51830  1.0000
  H   H1593     1.0  0.60736  0.59626  0.72584  1.0000
  H   H1594     1.0  0.63121  0.59382  0.56658  1.0000
  C   C1995     1.0  0.34042  0.65717  0.60764  1.0000
  H   H1595     1.0  0.33573  0.60269  0.64271  1.0000
  C   C1996     1.0  0.57017  0.56491  0.49333  1.0000
  H   H1596     1.0  0.62510  0.57512  0.59251  1.0000
  C   C1997     1.0  0.34344  0.86864  0.72538  1.0000
  H   H1597     1.0  0.34927  0.68102  0.56464  1.0000
  C   C1998     1.0  0.64612  0.68479  0.57250  1.0000
  H   H1598     1.0  0.65720  0.56437  0.71379  1.0000
  S   S257      1.0  0.54824  0.71417  0.49686  1.0000
  H   H1599     1.0  0.58926  0.54489  0.74177  1.0000
  C   C1999     1.0  0.33834  0.87432  0.57681  1.0000
  C   C2000     1.0  0.65168  0.50271  0.72953  1.0000
  H   H1600     1.0  0.33535  0.88243  0.72501  1.0000
  H   H1601     1.0  0.50487  0.51995  0.49391  1.0000
  C   C2001     1.0  0.53664  0.79745  0.49285  1.0000
  H   H1602     1.0  0.43747  0.90822  0.74258  1.0000
  S   S258      1.0  0.41228  0.82703  0.79808  1.0000
  Fe  Fe132     1.0  0.41634  0.70102  0.81596  1.0000
  S   S259      1.0  0.40267  0.67674  0.79472  1.0000
  S   S260      1.0  0.39329  0.71950  0.82721  1.0000
  Fe  Fe133     1.0  0.46242  0.68946  0.82002  1.0000
  S   S261      1.0  0.45333  0.66480  0.79864  1.0000
  S   S262      1.0  0.49540  0.69477  0.83626  1.0000
  Fe  Fe134     1.0  0.44472  0.69556  0.78765  1.0000
  S   S263      1.0  0.45147  0.71256  0.76360  1.0000
  Fe  Fe135     1.0  0.41184  0.64785  0.80678  1.0000
  S   S264      1.0  0.38666  0.60440  0.80581  1.0000
  S   S265      1.0  0.45795  0.72209  0.80839  1.0000
  S   S266      1.0  0.42154  0.67003  0.82878  1.0000
  Fe  Fe136     1.0  0.48843  0.67338  0.94937  1.0000
  S   S267      1.0  0.52491  0.69434  0.96349  1.0000
  S   S268      1.0  0.45355  0.63415  0.95172  1.0000
  Fe  Fe137     1.0  0.50542  0.71495  0.92500  1.0000
  S   S269      1.0  0.48346  0.72145  0.90523  1.0000
  Fe  Fe138     1.0  0.52040  0.73117  0.95865  1.0000
  S   S270      1.0  0.51700  0.75734  0.97777  1.0000
  S   S271      1.0  0.50941  0.67817  0.92739  1.0000
  S   S272      1.0  0.48227  0.70874  0.94632  1.0000
  Fe  Fe139     1.0  0.37041  0.89518  0.94478  1.0000
  S   S273      1.0  0.40783  0.89189  0.94780  1.0000
  S   S274      1.0  0.36897  0.91963  0.92529  1.0000
  C   C2002     1.0  0.44625  0.62302  0.97043  1.0000
  C   C2003     1.0  0.45746  0.70032  0.74616  1.0000
  C   C2004     1.0  0.42863  0.59692  0.97294  1.0000
  C   C2005     1.0  0.37593  0.66100  0.90784  1.0000
  H   H1603     1.0  0.44072  0.87690  0.82367  1.0000
  H   H1604     1.0  0.42044  0.58367  0.96342  1.0000
  C   C2006     1.0  0.52696  0.79151  0.98042  1.0000
  H   H1605     1.0  0.40622  0.88044  0.83892  1.0000
  C   C2007     1.0  0.41839  0.89167  0.96658  1.0000
  C   C2008     1.0  0.40107  0.88451  0.97880  1.0000
  C   C2009     1.0  0.52566  0.64707  0.86269  1.0000
  H   H1606     1.0  0.38060  0.87892  0.97679  1.0000
  C   C2010     1.0  0.49186  0.70185  0.85549  1.0000
  C   C2011     1.0  0.51119  0.70464  0.86621  1.0000
  C   C2012     1.0  0.50864  0.70995  0.88162  1.0000
  C   C2013     1.0  0.48679  0.71283  0.88633  1.0000
  C   C2014     1.0  0.46738  0.70980  0.87563  1.0000
  C   C2015     1.0  0.46990  0.70440  0.86029  1.0000
  H   H1607     1.0  0.45032  0.71172  0.87916  1.0000
  H   H1608     1.0  0.45505  0.70271  0.85216  1.0000
  C   C2016     1.0  0.35285  0.59236  0.80249  1.0000
  H   H1609     1.0  0.35149  0.62921  0.80485  1.0000
  H   H1610     1.0  0.34771  0.55303  0.79965  1.0000
  C   C2017     1.0  0.40749  0.79809  0.80725  1.0000
  C   C2018     1.0  0.42655  0.78926  0.80593  1.0000
  C   C2019     1.0  0.42236  0.76520  0.81207  1.0000
  C   C2020     1.0  0.39936  0.75015  0.81991  1.0000
  C   C2021     1.0  0.38064  0.75936  0.82167  1.0000
  C   C2022     1.0  0.38463  0.78323  0.81529  1.0000
  H   H1611     1.0  0.44426  0.80071  0.79975  1.0000
  H   H1612     1.0  0.43693  0.75835  0.81070  1.0000
  H   H1613     1.0  0.36266  0.74763  0.82753  1.0000
  H   H1614     1.0  0.36977  0.78978  0.81633  1.0000
  H   H1615     1.0  0.45217  0.63976  0.83139  1.0000
  C   C2023     1.0  0.39800  0.64236  0.76014  1.0000
  C   C2024     1.0  0.36172  0.67260  0.76284  1.0000
  C   C2025     1.0  0.36892  0.70937  0.78588  1.0000
  C   C2026     1.0  0.38222  0.69803  0.76198  1.0000
  C   C2027     1.0  0.46547  0.68059  0.74561  1.0000
  H   H1616     1.0  0.42973  0.63737  0.77017  1.0000
  H   H1617     1.0  0.40699  0.66309  0.76251  1.0000
  C   C2028     1.0  0.38565  0.71631  0.77346  1.0000
  H   H1618     1.0  0.37187  0.72330  0.79493  1.0000
  C   C2029     1.0  0.45095  0.62310  0.83772  1.0000
  C   C2030     1.0  0.49183  0.90108  0.93691  1.0000
  C   C2031     1.0  0.50155  0.78484  0.92382  1.0000
  C   C2032     1.0  0.48728  0.79554  0.91614  1.0000
  C   C2033     1.0  0.47495  0.80784  0.92431  1.0000
  C   C2034     1.0  0.47639  0.80904  0.94028  1.0000
  C   C2035     1.0  0.49193  0.79950  0.94782  1.0000
  P   P66       1.0  0.46014  0.82478  0.95066  1.0000
  C   C2036     1.0  0.42770  0.81491  0.94306  1.0000
  C   C2037     1.0  0.41435  0.79085  0.93544  1.0000
  C   C2038     1.0  0.38950  0.78361  0.92923  1.0000
  C   C2039     1.0  0.37764  0.80012  0.93080  1.0000
  C   C2040     1.0  0.39037  0.82358  0.93890  1.0000
  C   C2041     1.0  0.41517  0.83082  0.94517  1.0000
  C   C2042     1.0  0.48083  0.85938  0.94890  1.0000
  C   C2043     1.0  0.50297  0.87154  0.95831  1.0000
  H   H1619     1.0  0.48589  0.79426  0.90383  1.0000
  H   H1620     1.0  0.49489  0.80173  0.95999  1.0000
  H   H1621     1.0  0.46007  0.85384  0.97820  1.0000
  H   H1622     1.0  0.42307  0.77763  0.93432  1.0000
  H   H1623     1.0  0.37944  0.76520  0.92316  1.0000
  H   H1624     1.0  0.46771  0.67192  0.75605  1.0000
  H   H1625     1.0  0.38113  0.83632  0.94028  1.0000
  H   H1626     1.0  0.42466  0.84896  0.95152  1.0000
  H   H1627     1.0  0.50784  0.86032  0.96650  1.0000
  H   H1628     1.0  0.43740  0.76284  0.75921  1.0000
  C   C2044     1.0  0.46980  0.78067  0.77459  1.0000
  C   C2045     1.0  0.52544  0.65141  0.89012  1.0000
  C   C2046     1.0  0.51272  0.63881  0.87661  1.0000
  P   P67       1.0  0.48114  0.61077  0.87734  1.0000
  C   C2047     1.0  0.48759  0.58354  0.88183  1.0000
  C   C2048     1.0  0.45987  0.61496  0.89096  1.0000
  C   C2049     1.0  0.43755  0.59313  0.89596  1.0000
  C   C2050     1.0  0.42148  0.59602  0.90695  1.0000
  C   C2051     1.0  0.42737  0.62075  0.91282  1.0000
  C   C2052     1.0  0.44869  0.64270  0.90724  1.0000
  C   C2053     1.0  0.46467  0.63990  0.89618  1.0000
  C   C2054     1.0  0.49832  0.57357  0.87075  1.0000
  C   C2055     1.0  0.50357  0.55257  0.87411  1.0000
  C   C2056     1.0  0.49836  0.54157  0.88860  1.0000
  C   C2057     1.0  0.48850  0.55196  0.89984  1.0000
  C   C2058     1.0  0.48326  0.57297  0.89651  1.0000
  C   C2059     1.0  0.46381  0.60557  0.85950  1.0000
  C   C2060     1.0  0.43589  0.59786  0.83211  1.0000
  C   C2061     1.0  0.43433  0.57639  0.84029  1.0000
  C   C2062     1.0  0.44819  0.58018  0.85398  1.0000
  H   H1629     1.0  0.51636  0.64475  0.90106  1.0000
  H   H1630     1.0  0.43273  0.57385  0.89148  1.0000
  H   H1631     1.0  0.40457  0.57912  0.91099  1.0000
  H   H1632     1.0  0.41548  0.62289  0.92171  1.0000
  H   H1633     1.0  0.45318  0.66199  0.91161  1.0000
  H   H1634     1.0  0.48078  0.65727  0.89187  1.0000
  H   H1635     1.0  0.50253  0.58200  0.85948  1.0000
  H   H1636     1.0  0.48502  0.54379  0.91118  1.0000
  H   H1637     1.0  0.47615  0.58104  0.90548  1.0000
  H   H1638     1.0  0.42533  0.59498  0.82145  1.0000
  H   H1639     1.0  0.42230  0.55684  0.83599  1.0000
  H   H1640     1.0  0.44649  0.56331  0.86024  1.0000
  C   C2063     1.0  0.39976  0.60102  0.76153  1.0000
  H   H1641     1.0  0.47436  0.90416  0.98589  1.0000
  C   C2064     1.0  0.37969  0.61372  0.85016  1.0000
  C   C2065     1.0  0.39320  0.61977  0.86402  1.0000
  C   C2066     1.0  0.37979  0.61785  0.87756  1.0000
  S   S275      1.0  0.58554  0.50307  0.95251  1.0000
  C   C2067     1.0  0.37351  0.63016  0.75300  1.0000
  H   H1642     1.0  0.40963  0.58975  0.76527  1.0000
  H   H1643     1.0  0.38997  0.61499  0.83963  1.0000
  H   H1644     1.0  0.41409  0.62603  0.86423  1.0000
  H   H1645     1.0  0.39034  0.62251  0.88829  1.0000
  H   H1646     1.0  0.47575  0.64668  0.85576  1.0000
  Fe  Fe140     1.0  0.54593  0.70170  0.94103  1.0000
  H   H1647     1.0  0.51674  0.63722  0.85214  1.0000
  C   C2068     1.0  0.46455  0.62695  0.85147  1.0000
  C   C2069     1.0  0.41102  0.62783  0.76443  1.0000
  H   H1648     1.0  0.52842  0.70325  0.86250  1.0000
  H   H1649     1.0  0.52385  0.71249  0.88974  1.0000
  C   C2070     1.0  0.48878  0.80394  0.78082  1.0000
  H   H1650     1.0  0.46879  0.76218  0.77818  1.0000
  H   H1651     1.0  0.50241  0.80342  0.78924  1.0000
  C   C2071     1.0  0.45563  0.81606  0.97055  1.0000
  Fe  Fe141     1.0  0.64700  0.59723  0.95644  1.0000
  C   C2072     1.0  0.47572  0.87421  0.93792  1.0000
  H   H1652     1.0  0.46426  0.81637  0.91819  1.0000
  H   H1653     1.0  0.44851  0.77597  0.96696  1.0000
  H   H1654     1.0  0.45931  0.86519  0.93017  1.0000
  C   C2073     1.0  0.54976  0.67332  0.88958  1.0000
  C   C2074     1.0  0.43072  0.86269  0.83240  1.0000
  C   C2075     1.0  0.45200  0.78114  0.76383  1.0000
  C   C2076     1.0  0.40919  0.99286  0.97627  1.0000
  Fe  Fe142     1.0  0.34988  0.93566  0.94182  1.0000
  H   H1655     1.0  0.40935  0.78537  0.77652  1.0000
  C   C2077     1.0  0.36769  0.76655  0.77496  1.0000
  C   C2078     1.0  0.39279  0.77937  0.76894  1.0000
  Fe  Fe143     1.0  0.37771  0.83570  0.79835  1.0000
  C   C2079     1.0  0.53739  0.98417  0.97304  1.0000
  S   S276      1.0  0.38544  0.87737  0.79545  1.0000
  H   H1656     1.0  0.40189  0.73554  0.77310  1.0000
  C   C2080     1.0  0.56938  0.53217  0.91033  1.0000
  H   H1657     1.0  0.40782  0.83430  0.76478  1.0000
  H   H1658     1.0  0.38355  0.66538  0.96374  1.0000
  H   H1659     1.0  0.44846  0.94729  0.89369  1.0000
  C   C2081     1.0  0.45291  0.95738  0.90458  1.0000
  H   H1660     1.0  0.48750  0.91253  0.92863  1.0000
  C   C2082     1.0  0.44479  0.89863  0.96926  1.0000
  S   S277      1.0  0.54372  0.73997  0.93689  1.0000
  C   C2083     1.0  0.54602  0.81067  0.97146  1.0000
  H   H1661     1.0  0.45824  0.90412  0.95986  1.0000
  C   C2084     1.0  0.50399  0.78696  0.93964  1.0000
  H   H1662     1.0  0.51096  0.77512  0.91752  1.0000
  C   C2085     1.0  0.38131  0.64906  0.97074  1.0000
  C   C2086     1.0  0.40675  0.76521  0.86386  1.0000
  C   C2087     1.0  0.43516  0.96279  0.96987  1.0000
  H   H1663     1.0  0.38040  0.92306  0.86370  1.0000
  C   C2088     1.0  0.36364  0.90436  0.86524  1.0000
  H   H1664     1.0  0.35994  0.91083  0.88920  1.0000
  C   C2089     1.0  0.41111  0.86452  0.84090  1.0000
  S   S278      1.0  0.35378  0.91277  0.96159  1.0000
  H   H1665     1.0  0.48421  0.99234  0.89591  1.0000
  C   C2090     1.0  0.45682  0.83449  0.98152  1.0000
  C   C2091     1.0  0.43668  0.84189  0.83470  1.0000
  H   H1666     1.0  0.45130  0.84004  0.82771  1.0000
  S   S279      1.0  0.36470  0.97911  0.94793  1.0000
  C   C2092     1.0  0.42271  0.82258  0.84526  1.0000
  C   C2093     1.0  0.39714  0.84534  0.85153  1.0000
  C   C2094     1.0  0.42170  0.87221  0.75494  1.0000
  H   H1667     1.0  0.39603  0.70362  0.75273  1.0000
  C   C2095     1.0  0.37578  0.58883  0.75391  1.0000
  P   P68       1.0  0.42861  0.80535  0.74611  1.0000
  H   H1668     1.0  0.41660  0.84264  0.88653  1.0000
  H   H1669     1.0  0.42732  0.80638  0.84631  1.0000
  C   C2096     1.0  0.40267  0.82402  0.85375  1.0000
  C   C2097     1.0  0.35289  0.60626  0.84976  1.0000
  C   C2098     1.0  0.39652  0.83674  0.88975  1.0000
  H   H1670     1.0  0.40680  0.86781  0.90632  1.0000
  H   H1671     1.0  0.38164  0.84700  0.85771  1.0000
  C   C2099     1.0  0.39107  0.85114  0.90086  1.0000
  H   H1672     1.0  0.42510  0.73994  0.86093  1.0000
  H   H1673     1.0  0.40602  0.79587  0.89708  1.0000
  C   C2100     1.0  0.40146  0.78150  0.87383  1.0000
  C   C2101     1.0  0.37613  0.81529  0.88252  1.0000
  H   H1674     1.0  0.39984  0.76245  0.85218  1.0000
  C   C2102     1.0  0.42095  0.75221  0.86884  1.0000
  P   P69       1.0  0.38352  0.79872  0.86708  1.0000
  C   C2103     1.0  0.42978  0.75509  0.88389  1.0000
  H   H1675     1.0  0.44106  0.74529  0.88774  1.0000
  H   H1676     1.0  0.43065  0.77249  0.90569  1.0000
  C   C2104     1.0  0.42409  0.77068  0.89400  1.0000
  C   C2105     1.0  0.41009  0.78392  0.88902  1.0000
  C   C2106     1.0  0.43212  0.83826  0.74516  1.0000
  C   C2107     1.0  0.51335  0.91318  0.94668  1.0000
  C   C2108     1.0  0.51901  0.89836  0.95729  1.0000
  H   H1677     1.0  0.52577  0.93397  0.94598  1.0000
  H   H1678     1.0  0.53589  0.90752  0.96477  1.0000
  H   H1679     1.0  0.36514  0.76244  0.78699  1.0000
  H   H1680     1.0  0.51535  0.77894  0.94557  1.0000
  P   P70       1.0  0.35664  0.64911  0.74783  1.0000
  C   C2109     1.0  0.55328  0.83742  0.97417  1.0000
  C   C2110     1.0  0.39636  0.78524  0.75341  1.0000
  H   H1681     1.0  0.44487  0.95074  0.96751  1.0000
  H   H1682     1.0  0.41411  0.69110  0.90192  1.0000
  C   C2111     1.0  0.40244  0.67725  0.91047  1.0000
  H   H1683     1.0  0.39103  0.59528  0.94874  1.0000
  C   C2112     1.0  0.41416  0.67531  0.92404  1.0000
  H   H1684     1.0  0.51162  0.54481  0.86544  1.0000
  H   H1685     1.0  0.50203  0.52505  0.89119  1.0000
  P   P71       1.0  0.35361  0.61667  0.94636  1.0000
  C   C2113     1.0  0.39993  0.96777  0.98216  1.0000
  H   H1686     1.0  0.52847  0.60741  0.91294  1.0000
  H   H1687     1.0  0.54088  0.58969  0.93553  1.0000
  H   H1688     1.0  0.43484  0.68763  0.92591  1.0000
  C   C2114     1.0  0.35285  0.60998  0.87723  1.0000
  H   H1689     1.0  0.47091  0.66013  0.98090  1.0000
  C   C2115     1.0  0.65187  0.56159  0.75218  1.0000
  H   H1690     1.0  0.36701  0.66228  0.89718  1.0000
  H   H1691     1.0  0.36095  0.85634  0.91273  1.0000
  H   H1692     1.0  0.38969  0.55366  0.94017  1.0000
  H   H1693     1.0  0.33755  0.67817  0.79728  1.0000
  S   S280      1.0  0.33187  0.86108  0.93971  1.0000
  C   C2116     1.0  0.36524  0.84455  0.90460  1.0000
  C   C2117     1.0  0.34549  0.66561  0.77566  1.0000
  C   C2118     1.0  0.34485  0.82320  0.89753  1.0000
  C   C2119     1.0  0.43838  0.94501  0.91737  1.0000
  Fe  Fe144     1.0  0.35653  0.86907  0.81445  1.0000
  C   C2120     1.0  0.36376  0.60255  0.97500  1.0000
  C   C2121     1.0  0.57426  0.51041  0.91062  1.0000
  C   C2122     1.0  0.36111  0.64293  0.91885  1.0000
  C   C2123     1.0  0.47305  0.98277  0.90586  1.0000
  H   H1694     1.0  0.38233  0.95973  0.98890  1.0000
  H   H1695     1.0  0.52605  0.63680  0.93864  1.0000
  P   P72       1.0  0.51017  0.58105  0.98356  1.0000
  C   C2124     1.0  0.41311  0.95289  0.97912  1.0000
  C   C2125     1.0  0.35331  0.88742  0.85267  1.0000
  H   H1696     1.0  0.33254  0.76191  0.74313  1.0000
  H   H1697     1.0  0.34146  0.82197  0.96072  1.0000
  C   C2126     1.0  0.33168  0.86323  0.85476  1.0000
  C   C2127     1.0  0.65176  0.50018  0.91128  1.0000
  H   H1698     1.0  0.34073  0.63011  0.91652  1.0000
  C   C2128     1.0  0.35323  0.58700  0.93914  1.0000
  H   H1699     1.0  0.61628  0.55014  0.76465  1.0000
  Fe  Fe145     1.0  0.35102  0.86106  0.77936  1.0000
  C   C2129     1.0  0.48993  0.82776  0.77632  1.0000
  C   C2130     1.0  0.39952  0.65703  0.93498  1.0000
  H   H1700     1.0  0.50443  0.84579  0.78130  1.0000
  C   C2131     1.0  0.37431  0.58154  0.94225  1.0000
  C   C2132     1.0  0.63881  0.55136  0.89347  1.0000
  S   S281      1.0  0.65226  0.51170  0.81498  1.0000
  C   C2133     1.0  0.51231  0.61889  0.94398  1.0000
  S   S282      1.0  0.61257  0.51944  0.85166  1.0000
  C   C2134     1.0  0.48745  0.60438  0.93773  1.0000
  H   H1701     1.0  0.35414  0.74091  0.86585  1.0000
  C   C2135     1.0  0.51922  0.61096  0.95754  1.0000
  H   H1702     1.0  0.63834  0.65085  0.93611  1.0000
  H   H1703     1.0  0.54012  0.52260  0.87561  1.0000
  H   H1704     1.0  0.48156  0.61138  0.92771  1.0000
  C   C2136     1.0  0.59351  0.67404  0.94304  1.0000
  C   C2137     1.0  0.35243  0.54027  0.92877  1.0000
  H   H1705     1.0  0.53819  0.62282  0.96249  1.0000
  C   C2138     1.0  0.55106  0.57397  0.97039  1.0000
  C   C2139     1.0  0.50147  0.58853  0.96504  1.0000
  H   H1706     1.0  0.44999  0.57127  0.94051  1.0000
  C   C2140     1.0  0.63422  0.67485  0.87039  1.0000
  H   H1707     1.0  0.48359  0.99084  0.98287  1.0000
  C   C2141     1.0  0.46962  0.58182  0.94501  1.0000
  H   H1708     1.0  0.33363  0.64029  0.84310  1.0000
  C   C2142     1.0  0.34923  0.68393  0.78711  1.0000
  H   H1709     1.0  0.58315  0.56897  0.96075  1.0000
  C   C2143     1.0  0.45402  0.89889  0.98407  1.0000
  C   C2144     1.0  0.56827  0.56278  0.96943  1.0000
  C   C2145     1.0  0.47652  0.57393  0.95865  1.0000
  S   S283      1.0  0.62780  0.62258  0.96493  1.0000
  H   H1710     1.0  0.65569  0.71207  0.85958  1.0000
  C   C2146     1.0  0.47864  0.99578  0.91993  1.0000
  C   C2147     1.0  0.65931  0.53780  0.86786  1.0000
  H   H1711     1.0  0.55940  0.67594  0.85135  1.0000
  H   H1712     1.0  0.36695  0.83945  0.75049  1.0000
  C   C2148     1.0  0.39271  0.65395  0.98526  1.0000
  C   C2149     1.0  0.62317  0.54021  0.88050  1.0000
  S   S284      1.0  0.64123  0.56532  0.97322  1.0000
  S   S285      1.0  0.34726  0.87730  0.75642  1.0000
  C   C2150     1.0  0.37266  0.64117  0.93265  1.0000
  C   C2151     1.0  0.34931  0.76599  0.75020  1.0000
  C   C2152     1.0  0.53786  0.98913  0.95748  1.0000
  C   C2153     1.0  0.49836  0.99015  0.97555  1.0000
  C   C2154     1.0  0.35211  0.89747  0.87969  1.0000
  H   H1713     1.0  0.55242  0.98012  0.97821  1.0000
  S   S286      1.0  0.35092  0.82829  0.81815  1.0000
  C   C2155     1.0  0.33943  0.78604  0.84885  1.0000
  C   C2156     1.0  0.55724  0.53673  0.89770  1.0000
  H   H1714     1.0  0.39926  0.96626  0.88878  1.0000
  H   H1715     1.0  0.35854  0.79472  0.92583  1.0000
  C   C2157     1.0  0.47210  0.82832  0.76558  1.0000
  H   H1716     1.0  0.57522  0.54548  0.91996  1.0000
  H   H1717     1.0  0.33404  0.79243  0.88103  1.0000
  H   H1718     1.0  0.34576  0.80680  0.84805  1.0000
  S   S287      1.0  0.58049  0.69372  0.93412  1.0000
  H   H1719     1.0  0.36708  0.56804  0.75162  1.0000
  H   H1720     1.0  0.59805  0.57466  0.87572  1.0000
  C   C2158     1.0  0.51758  0.98456  0.98204  1.0000
  H   H1721     1.0  0.60320  0.53697  0.88038  1.0000
  H   H1722     1.0  0.47754  0.52500  0.98023  1.0000
  C   C2159     1.0  0.65144  0.61593  0.87843  1.0000
  C   C2160     1.0  0.35361  0.77633  0.85762  1.0000
  C   C2161     1.0  0.34591  0.75992  0.76561  1.0000
  H   H1723     1.0  0.41133  0.87851  0.76297  1.0000
  C   C2162     1.0  0.34030  0.60849  0.80272  1.0000
  C   C2163     1.0  0.59462  0.60428  0.91395  1.0000
  C   C2164     1.0  0.45725  0.63995  0.98280  1.0000
  H   H1724     1.0  0.55305  0.58894  0.96239  1.0000
  C   C2165     1.0  0.45026  0.79078  0.97521  1.0000
  H   H1725     1.0  0.61654  0.71329  0.90099  1.0000
  H   H1726     1.0  0.40596  0.93347  0.98373  1.0000
  C   C2166     1.0  0.36774  0.62332  0.96525  1.0000
  H   H1727     1.0  0.55522  0.56540  0.83415  1.0000
  C   C2167     1.0  0.42135  0.58789  0.98777  1.0000
  C   C2168     1.0  0.59269  0.60814  0.86901  1.0000
  H   H1728     1.0  0.57550  0.54810  0.85321  1.0000
  H   H1729     1.0  0.58926  0.63848  0.97484  1.0000
  H   H1730     1.0  0.55540  0.80495  0.96255  1.0000
  H   H1731     1.0  0.56817  0.85197  0.96722  1.0000
  C   C2169     1.0  0.54671  0.60613  0.91309  1.0000
  C   C2170     1.0  0.53215  0.56629  0.98186  1.0000
  C   C2171     1.0  0.62518  0.55400  0.75351  1.0000
  C   C2172     1.0  0.58513  0.66267  0.95728  1.0000
  C   C2173     1.0  0.56184  0.68228  0.87559  1.0000
  H   H1732     1.0  0.58185  0.63691  0.85974  1.0000
  H   H1733     1.0  0.42284  0.92524  0.91646  1.0000
  H   H1734     1.0  0.51888  0.99761  0.93878  1.0000
  C   C2174     1.0  0.55007  0.66885  0.86220  1.0000
  C   C2175     1.0  0.33816  0.56557  0.79982  1.0000
  H   H1735     1.0  0.46198  0.55713  0.96441  1.0000
  C   C2176     1.0  0.35021  0.80849  0.88658  1.0000
  P   P73       1.0  0.60982  0.62747  0.88537  1.0000
  H   H1736     1.0  0.42346  0.99753  0.90944  1.0000
  C   C2177     1.0  0.58962  0.58256  0.86740  1.0000
  C   C2178     1.0  0.55379  0.59636  0.92589  1.0000
  H   H1737     1.0  0.55400  0.55395  0.89741  1.0000
  C   C2179     1.0  0.64090  0.62733  0.88880  1.0000
  C   C2180     1.0  0.62133  0.70259  0.89232  1.0000
  C   C2181     1.0  0.61443  0.64184  0.95598  1.0000
  H   H1738     1.0  0.35180  0.52193  0.92508  1.0000
  C   C2182     1.0  0.43646  0.88895  0.74345  1.0000
  H   H1739     1.0  0.55334  0.98891  0.95054  1.0000
  C   C2183     1.0  0.58064  0.61761  0.85843  1.0000
  H   H1740     1.0  0.59950  0.66589  0.90305  1.0000
  H   H1741     1.0  0.40951  0.65493  0.94499  1.0000
  C   C2184     1.0  0.58786  0.61458  0.90116  1.0000
  H   H1742     1.0  0.61292  0.60314  0.91458  1.0000
  H   H1743     1.0  0.47314  0.84700  0.76253  1.0000
  Fe  Fe146     1.0  0.62466  0.53840  0.95332  1.0000
  C   C2185     1.0  0.56517  0.57712  0.84403  1.0000
  H   H1744     1.0  0.55815  0.60969  0.83765  1.0000
  C   C2186     1.0  0.56699  0.60213  0.84595  1.0000
  C   C2187     1.0  0.46412  0.98345  0.93287  1.0000
  C   C2188     1.0  0.57645  0.56732  0.85478  1.0000
  C   C2189     1.0  0.61173  0.67555  0.89350  1.0000
  H   H1745     1.0  0.55794  0.62273  0.89091  1.0000
  C   C2190     1.0  0.56353  0.61495  0.90070  1.0000
  C   C2191     1.0  0.62313  0.65357  0.94188  1.0000
  C   C2192     1.0  0.61837  0.66152  0.88266  1.0000
  C   C2193     1.0  0.54177  0.84551  0.98588  1.0000
  H   H1746     1.0  0.34466  0.94599  0.90036  1.0000
  C   C2194     1.0  0.61308  0.66988  0.93562  1.0000
  C   C2195     1.0  0.57773  0.59551  0.92632  1.0000
  H   H1747     1.0  0.58357  0.58857  0.93639  1.0000
  C   C2196     1.0  0.44384  0.95798  0.93142  1.0000
  H   H1748     1.0  0.64002  0.66445  0.86208  1.0000
  C   C2197     1.0  0.63318  0.53315  0.86771  1.0000
  H   H1749     1.0  0.55904  0.68361  0.90002  1.0000
  S   S288      1.0  0.62854  0.56955  0.93686  1.0000
  C   C2198     1.0  0.59560  0.64679  0.96371  1.0000
  H   H1750     1.0  0.57097  0.66656  0.96347  1.0000
  S   S289      1.0  0.34569  0.82003  0.78080  1.0000
  C   C2199     1.0  0.46951  0.53199  0.98931  1.0000
  H   H1751     1.0  0.63075  0.55662  0.90323  1.0000
  H   H1752     1.0  0.62113  0.67995  0.92519  1.0000
  H   H1753     1.0  0.58013  0.69986  0.87506  1.0000
  C   C2200     1.0  0.37371  0.55808  0.93728  1.0000
  C   C2201     1.0  0.51830  0.99412  0.95087  1.0000
  C   C2202     1.0  0.42108  0.99232  0.87087  1.0000
  H   H1754     1.0  0.64825  0.64993  0.90964  1.0000
  C   C2203     1.0  0.54940  0.51909  0.88548  1.0000
  C   C2204     1.0  0.41955  0.84698  0.75583  1.0000
  C   C2205     1.0  0.45297  0.80497  0.75919  1.0000
  S   S290      1.0  0.36721  0.89764  0.83447  1.0000
  C   C2206     1.0  0.36293  0.60343  0.74940  1.0000
  C   C2207     1.0  0.34414  0.74917  0.85893  1.0000
  H   H1755     1.0  0.40418  0.67383  0.98921  1.0000
  H   H1756     1.0  0.35233  0.58244  0.97139  1.0000
  H   H1757     1.0  0.34288  0.60194  0.83883  1.0000
  C   C2208     1.0  0.49821  0.99446  0.95983  1.0000
  C   C2209     1.0  0.65551  0.64013  0.90179  1.0000
  H   H1758     1.0  0.58033  0.53549  0.97912  1.0000
  C   C2210     1.0  0.56693  0.54408  0.97993  1.0000
  C   C2211     1.0  0.41490  0.98526  0.88605  1.0000
  H   H1759     1.0  0.43213  0.94785  0.94104  1.0000
  C   C2212     1.0  0.64330  0.70183  0.86902  1.0000
  H   H1760     1.0  0.41007  0.97881  0.86183  1.0000
  C   C2213     1.0  0.33920  0.60437  0.86330  1.0000
  C   C2214     1.0  0.37434  0.77812  0.74403  1.0000
  H   H1761     1.0  0.34805  0.83036  0.98823  1.0000
  C   C2215     1.0  0.44431  0.98781  0.96358  1.0000
  C   C2216     1.0  0.44797  0.78464  0.99069  1.0000
  H   H1762     1.0  0.64146  0.60693  0.86796  1.0000
  H   H1763     1.0  0.64444  0.73671  0.87915  1.0000
  C   C2217     1.0  0.63702  0.71573  0.88004  1.0000
  H   H1764     1.0  0.33178  0.96832  0.92038  1.0000
  C   C2218     1.0  0.65293  0.50439  0.75743  1.0000
  H   H1765     1.0  0.49693  0.62415  0.98739  1.0000
  S   S291      1.0  0.55208  0.87965  0.98891  1.0000
  H   H1766     1.0  0.58354  0.50732  0.92058  1.0000
  H   H1767     1.0  0.34288  0.60829  0.88786  1.0000
  H   H1768     1.0  0.40748  0.56785  0.98959  1.0000
  H   H1769     1.0  0.37788  0.99359  0.91582  1.0000
  H   H1770     1.0  0.33128  0.69914  0.75638  1.0000
  C   C2219     1.0  0.51528  0.79961  0.99203  1.0000
  S   S292      1.0  0.66283  0.53923  0.94751  1.0000
  C   C2220     1.0  0.54880  0.53694  0.99167  1.0000
  C   C2221     1.0  0.37491  0.60753  0.98954  1.0000
  C   C2222     1.0  0.33228  0.56943  0.93019  1.0000
  C   C2223     1.0  0.33185  0.54607  0.92510  1.0000
  H   H1771     1.0  0.33023  0.64604  0.77714  1.0000
  H   H1772     1.0  0.34457  0.59372  0.74335  1.0000
  S   S293      1.0  0.66465  0.22516  0.01588  1.0000
  H   H1773     1.0  0.83821  0.48921  0.20248  1.0000
  H   H1774     1.0  0.67861  0.40991  0.14300  1.0000
  S   S294      1.0  0.69263  0.27307  0.15006  1.0000
  S   S295      1.0  0.69531  0.26789  0.19455  1.0000
  C   C2224     1.0  0.71205  0.21024  0.20788  1.0000
  Fe  Fe147     1.0  0.67167  0.25958  0.17240  1.0000
  C   C2225     1.0  0.67280  0.38217  0.20897  1.0000
  H   H1775     1.0  0.76405  0.28502  0.21777  1.0000
  S   S296      1.0  0.82052  0.49181  0.16884  1.0000
  H   H1776     1.0  0.74244  0.48074  0.01782  1.0000
  S   S297      1.0  0.77520  0.41764  0.16984  1.0000
  H   H1777     1.0  0.78733  0.29407  0.01199  1.0000
  H   H1778     1.0  0.68663  0.27274  0.08129  1.0000
  S   S298      1.0  0.68130  0.18179  0.02987  1.0000
  C   C2226     1.0  0.79000  0.24805  0.19645  1.0000
  Fe  Fe148     1.0  0.69670  0.21347  0.01189  1.0000
  C   C2227     1.0  0.69105  0.46872  0.15855  1.0000
  H   H1779     1.0  0.70309  0.20584  0.19672  1.0000
  C   C2228     1.0  0.73806  0.22909  0.20996  1.0000
  H   H1780     1.0  0.69384  0.40892  0.17428  1.0000
  C   C2229     1.0  0.66836  0.27398  0.08207  1.0000
  C   C2230     1.0  0.93939  0.46523  0.02452  1.0000
  H   H1781     1.0  0.66680  0.37991  0.10144  1.0000
  H   H1782     1.0  0.76091  0.28120  0.16867  1.0000
  H   H1783     1.0  0.79287  0.47513  0.21460  1.0000
  H   H1784     1.0  0.83471  0.48365  0.12381  1.0000
  H   H1785     1.0  0.70970  0.34329  0.18946  1.0000
  C   C2231     1.0  0.73331  0.41161  0.10420  1.0000
  H   H1786     1.0  0.79952  0.40988  0.22222  1.0000
  C   C2232     1.0  0.81230  0.26984  0.19138  1.0000
  H   H1787     1.0  0.73598  0.39124  0.19300  1.0000
  C   C2233     1.0  0.71654  0.33446  0.21227  1.0000
  C   C2234     1.0  0.75895  0.26633  0.99657  1.0000
  C   C2235     1.0  0.66897  0.40233  0.21575  1.0000
  H   H1788     1.0  0.75487  0.45011  0.11428  1.0000
  H   H1789     1.0  0.77577  0.20999  0.20685  1.0000
  C   C2236     1.0  0.70399  0.35472  0.14569  1.0000
  C   C2237     1.0  0.71125  0.38105  0.14287  1.0000
  C   C2238     1.0  0.73300  0.40059  0.15029  1.0000
  C   C2239     1.0  0.74785  0.39377  0.16034  1.0000
  C   C2240     1.0  0.74076  0.36743  0.16301  1.0000
  C   C2241     1.0  0.71867  0.34792  0.15586  1.0000
  H   H1790     1.0  0.70015  0.38628  0.13481  1.0000
  H   H1791     1.0  0.73839  0.42082  0.14806  1.0000
  H   H1792     1.0  0.75226  0.36213  0.17072  1.0000
  H   H1793     1.0  0.71325  0.32765  0.15810  1.0000
  C   C2242     1.0  0.67501  0.42581  0.14702  1.0000
  C   C2243     1.0  0.73097  0.32953  0.10860  1.0000
  H   H1794     1.0  0.71578  0.45558  0.12046  1.0000
  C   C2244     1.0  0.70064  0.26738  0.22562  1.0000
  C   C2245     1.0  0.78250  0.28847  0.00019  1.0000
  H   H1795     1.0  0.93346  0.49640  0.01504  1.0000
  H   H1796     1.0  0.71838  0.28516  0.22407  1.0000
  H   H1797     1.0  0.71311  0.19337  0.13811  1.0000
  S   S299      1.0  0.76367  0.47322  0.18462  1.0000
  H   H1798     1.0  0.67545  0.03187  0.10383  1.0000
  Fe  Fe149     1.0  0.78065  0.45853  0.16643  1.0000
  S   S300      1.0  0.73788  0.24808  0.01166  1.0000
  H   H1799     1.0  0.88631  0.46739  0.01358  1.0000
  S   S301      1.0  0.71686  0.49651  0.16649  1.0000
  C   C2246     1.0  0.83965  0.25023  0.19999  1.0000
  C   C2247     1.0  0.80241  0.49369  0.20888  1.0000
  C   C2248     1.0  0.73336  0.22157  0.23726  1.0000
  C   C2249     1.0  0.68166  0.38458  0.19402  1.0000
  P   P74       1.0  0.66497  0.44946  0.21511  1.0000
  C   C2250     1.0  0.71267  0.49110  0.20705  1.0000
  H   H1800     1.0  0.68637  0.30504  0.03746  1.0000
  C   C2251     1.0  0.69314  0.25781  0.24042  1.0000
  H   H1801     1.0  0.69343  0.20780  0.09314  1.0000
  S   S302      1.0  0.67744  0.33055  0.13583  1.0000
  C   C2252     1.0  0.73416  0.37812  0.20224  1.0000
  H   H1802     1.0  0.67635  0.20024  0.06657  1.0000
  C   C2253     1.0  0.69546  0.44797  0.15341  1.0000
  P   P75       1.0  0.75794  0.24625  0.19392  1.0000
  C   C2254     1.0  0.74367  0.20194  0.15486  1.0000
  C   C2255     1.0  0.72168  0.20315  0.14878  1.0000
  H   H1803     1.0  0.94938  0.43781  0.03596  1.0000
  C   C2256     1.0  0.80083  0.42896  0.07762  1.0000
  C   C2257     1.0  0.77566  0.42466  0.08195  1.0000
  C   C2258     1.0  0.88181  0.47340  0.00277  1.0000
  P   P76       1.0  0.76202  0.40765  0.09943  1.0000
  C   C2259     1.0  0.75342  0.37319  0.09808  1.0000
  C   C2260     1.0  0.78645  0.42342  0.11412  1.0000
  C   C2261     1.0  0.78886  0.40936  0.12654  1.0000
  C   C2262     1.0  0.80796  0.42192  0.13771  1.0000
  C   C2263     1.0  0.82440  0.44866  0.13679  1.0000
  C   C2264     1.0  0.82211  0.46283  0.12451  1.0000
  C   C2265     1.0  0.80336  0.45026  0.11318  1.0000
  C   C2266     1.0  0.73781  0.35616  0.10934  1.0000
  H   H1804     1.0  0.69037  0.05971  0.03512  1.0000
  H   H1805     1.0  0.83870  0.45844  0.14567  1.0000
  C   C2267     1.0  0.75488  0.33625  0.08512  1.0000
  C   C2268     1.0  0.76180  0.36299  0.08587  1.0000
  H   H1806     1.0  0.75218  0.19104  0.14892  1.0000
  C   C2269     1.0  0.70825  0.39212  0.10033  1.0000
  C   C2270     1.0  0.68298  0.42726  0.19257  1.0000
  C   C2271     1.0  0.68888  0.41831  0.11103  1.0000
  H   H1807     1.0  0.69350  0.21791  0.15174  1.0000
  C   C2272     1.0  0.79984  0.45583  0.05673  1.0000
  H   H1808     1.0  0.73430  0.29887  0.09597  1.0000
  C   C2273     1.0  0.67058  0.23445  0.24266  1.0000
  C   C2274     1.0  0.66565  0.49546  0.04831  1.0000
  H   H1809     1.0  0.81156  0.42111  0.08431  1.0000
  C   C2275     1.0  0.97627  0.47761  0.04166  1.0000
  H   H1810     1.0  0.77598  0.38885  0.12785  1.0000
  H   H1811     1.0  0.80947  0.41103  0.14738  1.0000
  H   H1812     1.0  0.97828  0.47324  0.99907  1.0000
  H   H1813     1.0  0.66838  0.01809  0.02062  1.0000
  H   H1814     1.0  0.80197  0.46162  0.10376  1.0000
  H   H1815     1.0  0.73089  0.36352  0.11875  1.0000
  C   C2276     1.0  0.72948  0.34435  0.22608  1.0000
  C   C2277     1.0  0.71062  0.21709  0.15644  1.0000
  H   H1816     1.0  0.74022  0.33212  0.99835  1.0000
  H   H1817     1.0  0.77363  0.37547  0.07692  1.0000
  H   H1818     1.0  0.70565  0.37426  0.09472  1.0000
  C   C2278     1.0  0.94602  0.49156  0.02219  1.0000
  H   H1819     1.0  0.68357  0.36861  0.18847  1.0000
  H   H1820     1.0  0.76702  0.32645  0.16804  1.0000
  C   C2279     1.0  0.73953  0.31954  0.09650  1.0000
  C   C2280     1.0  0.66521  0.20335  0.07556  1.0000
  H   H1821     1.0  0.71384  0.28665  0.00657  1.0000
  C   C2281     1.0  0.69696  0.19714  0.22038  1.0000
  C   C2282     1.0  0.74869  0.23435  0.22477  1.0000
  H   H1822     1.0  0.75695  0.40917  0.21757  1.0000
  H   H1823     1.0  0.77112  0.33045  0.21683  1.0000
  H   H1824     1.0  0.71286  0.24086  0.17576  1.0000
  C   C2283     1.0  0.68533  0.25423  0.21289  1.0000
  C   C2284     1.0  0.83703  0.27092  0.19319  1.0000
  H   H1825     1.0  0.85417  0.28779  0.18928  1.0000
  C   C2285     1.0  0.69183  0.48174  0.21729  1.0000
  C   C2286     1.0  0.70748  0.20302  0.23506  1.0000
  C   C2287     1.0  0.82481  0.44822  0.23059  1.0000
  H   H1826     1.0  0.92234  0.45023  0.01885  1.0000
  H   H1827     1.0  0.71459  0.44886  0.15443  1.0000
  C   C2288     1.0  0.67488  0.20769  0.09064  1.0000
  H   H1828     1.0  0.85882  0.25108  0.20137  1.0000
  C   C2289     1.0  0.81752  0.22837  0.20492  1.0000
  H   H1829     1.0  0.72706  0.33086  0.23517  1.0000
  H   H1830     1.0  0.74163  0.46870  0.23706  1.0000
  H   H1831     1.0  0.83659  0.45366  0.22041  1.0000
  H   H1832     1.0  0.70450  0.31371  0.21075  1.0000
  H   H1833     1.0  0.71903  0.31671  0.11748  1.0000
  C   C2290     1.0  0.95461  0.45825  0.03417  1.0000
  H   H1834     1.0  0.67320  0.49281  0.23543  1.0000
  C   C2291     1.0  0.74506  0.37131  0.22805  1.0000
  H   H1835     1.0  0.71465  0.47856  0.19850  1.0000
  H   H1836     1.0  0.76876  0.24854  0.22671  1.0000
  H   H1837     1.0  0.81067  0.28597  0.18597  1.0000
  H   H1838     1.0  0.68547  0.44375  0.18569  1.0000
  S   S303      1.0  0.67312  0.21650  0.12139  1.0000
  H   H1839     1.0  0.67173  0.42064  0.11403  1.0000
  H   H1840     1.0  0.78949  0.49442  0.01368  1.0000
  H   H1841     1.0  0.82217  0.36525  0.00225  1.0000
  H   H1842     1.0  0.76153  0.32848  0.07573  1.0000
  C   C2292     1.0  0.68613  0.39538  0.10390  1.0000
  H   H1843     1.0  0.79450  0.49351  0.24083  1.0000
  C   C2293     1.0  0.68724  0.40730  0.18594  1.0000
  H   H1844     1.0  0.74339  0.43334  0.07658  1.0000
  C   C2294     1.0  0.74648  0.38820  0.21618  1.0000
  C   C2295     1.0  0.71362  0.29180  0.99474  1.0000
  C   C2296     1.0  0.72166  0.23009  0.17006  1.0000
  C   C2297     1.0  0.67052  0.04592  0.03783  1.0000
  H   H1845     1.0  0.67447  0.28702  0.10545  1.0000
  C   C2298     1.0  0.79276  0.22721  0.20312  1.0000
  H   H1846     1.0  0.83257  0.44845  0.06203  1.0000
  C   C2299     1.0  0.75471  0.21483  0.16857  1.0000
  C   C2300     1.0  0.74389  0.22924  0.17623  1.0000
  H   H1847     1.0  0.80962  0.46883  0.04741  1.0000
  C   C2301     1.0  0.76170  0.27935  0.19331  1.0000
  C   C2302     1.0  0.76487  0.29371  0.20682  1.0000
  C   C2303     1.0  0.76890  0.31963  0.20635  1.0000
  C   C2304     1.0  0.76969  0.33144  0.19239  1.0000
  C   C2305     1.0  0.76664  0.31739  0.17888  1.0000
  C   C2306     1.0  0.76291  0.29154  0.17930  1.0000
  C   C2307     1.0  0.67413  0.42521  0.20760  1.0000
  C   C2308     1.0  0.87639  0.49492  0.00217  1.0000
  C   C2309     1.0  0.71929  0.35122  0.20026  1.0000
  H   H1848     1.0  0.77171  0.21357  0.17304  1.0000
  C   C2310     1.0  0.77469  0.45142  0.06084  1.0000
  C   C2311     1.0  0.73586  0.43464  0.11132  1.0000
  H   H1849     1.0  0.77251  0.35143  0.19207  1.0000
  C   C2312     1.0  0.76254  0.43580  0.07336  1.0000
  C   C2313     1.0  0.81283  0.44446  0.06505  1.0000
  C   C2314     1.0  0.71371  0.43793  0.11472  1.0000
  S   S304      1.0  0.76835  0.47579  0.14690  1.0000
  H   H1850     1.0  0.83945  0.41311  0.00541  1.0000
  H   H1851     1.0  0.76513  0.46106  0.05466  1.0000
  H   H1852     1.0  0.79100  0.49537  0.08419  1.0000
  H   H1853     1.0  0.67716  0.32934  0.05812  1.0000
  C   C2315     1.0  0.80350  0.42352  0.23159  1.0000
  H   H1854     1.0  0.81952  0.21225  0.21011  1.0000
  C   C2316     1.0  0.75068  0.48688  0.00663  1.0000
  H   H1855     1.0  0.66713  0.06999  0.05560  1.0000
  Fe  Fe150     1.0  0.66576  0.29107  0.14586  1.0000
  C   C2317     1.0  0.81244  0.37535  0.99668  1.0000
  H   H1856     1.0  0.70948  0.38315  0.24121  1.0000
  C   C2318     1.0  0.66816  0.30653  0.03743  1.0000
  C   C2319     1.0  0.77723  0.49472  0.00432  1.0000
  C   C2320     1.0  0.82232  0.40236  0.99836  1.0000
  C   C2321     1.0  0.66586  0.46688  0.15766  1.0000
  H   H1857     1.0  0.67674  0.18304  0.21874  1.0000
  H   H1858     1.0  0.66824  0.36436  0.21514  1.0000
  H   H1859     1.0  0.98778  0.47218  0.04936  1.0000
  Fe  Fe151     1.0  0.75453  0.49331  0.16564  1.0000
  H   H1860     1.0  0.84767  0.48499  0.24203  1.0000
  C   C2322     1.0  0.73503  0.48773  0.99463  1.0000
  H   H1861     1.0  0.71461  0.48244  0.99652  1.0000
  S   S305      1.0  0.67534  0.18526  0.99298  1.0000
  Fe  Fe152     1.0  0.69743  0.20308  0.45553  1.0000
  C   C2323     1.0  0.91750  0.41528  0.47810  1.0000
  S   S306      1.0  0.72236  0.22127  0.47700  1.0000
  C   C2324     1.0  0.72259  0.38752  0.28469  1.0000
  C   C2325     1.0  0.80622  0.43864  0.42974  1.0000
  C   C2326     1.0  0.92329  0.48212  0.43481  1.0000
  S   S307      1.0  0.69724  0.17819  0.43522  1.0000
  C   C2327     1.0  0.81584  0.49004  0.37958  1.0000
  C   C2328     1.0  0.68407  0.35718  0.44783  1.0000
  C   C2329     1.0  0.71918  0.47298  0.42272  1.0000
  H   H1862     1.0  0.75859  0.30301  0.47796  1.0000
  Fe  Fe153     1.0  0.71835  0.28474  0.30271  1.0000
  S   S308      1.0  0.70018  0.28997  0.28126  1.0000
  S   S309      1.0  0.76199  0.30419  0.30526  1.0000
  H   H1863     1.0  0.89222  0.49305  0.43165  1.0000
  H   H1864     1.0  0.96182  0.39019  0.45757  1.0000
  C   C2330     1.0  0.68637  0.22487  0.38272  1.0000
  S   S310      1.0  0.69283  0.29373  0.31846  1.0000
  S   S311      1.0  0.69398  0.24111  0.30312  1.0000
  H   H1865     1.0  0.75932  0.48021  0.42551  1.0000
  S   S312      1.0  0.69990  0.41902  0.31453  1.0000
  Fe  Fe154     1.0  0.79360  0.44679  0.32352  1.0000
  S   S313      1.0  0.81663  0.42385  0.32313  1.0000
  C   C2331     1.0  0.77636  0.33816  0.30841  1.0000
  C   C2332     1.0  0.80347  0.35147  0.31018  1.0000
  C   C2333     1.0  0.81559  0.37803  0.31405  1.0000
  C   C2334     1.0  0.80073  0.39157  0.31619  1.0000
  C   C2335     1.0  0.77363  0.37863  0.31384  1.0000
  C   C2336     1.0  0.76141  0.35187  0.30990  1.0000
  H   H1866     1.0  0.81508  0.34103  0.30897  1.0000
  H   H1867     1.0  0.83650  0.38793  0.31583  1.0000
  H   H1868     1.0  0.76204  0.38899  0.31553  1.0000
  H   H1869     1.0  0.74046  0.34174  0.30844  1.0000
  C   C2337     1.0  0.76810  0.37256  0.46808  1.0000
  H   H1870     1.0  0.90564  0.47748  0.47758  1.0000
  H   H1871     1.0  0.70500  0.26830  0.25009  1.0000
  H   H1872     1.0  0.95350  0.47165  0.44138  1.0000
  C   C2338     1.0  0.75765  0.32840  0.46024  1.0000
  C   C2339     1.0  0.74368  0.48405  0.42985  1.0000
  S   S314      1.0  0.76039  0.43891  0.33933  1.0000
  H   H1873     1.0  0.84586  0.40694  0.48004  1.0000
  H   H1874     1.0  0.90484  0.42198  0.48379  1.0000
  C   C2340     1.0  0.71343  0.38430  0.25331  1.0000
  C   C2341     1.0  0.75687  0.33971  0.26121  1.0000
  C   C2342     1.0  0.73800  0.49590  0.25271  1.0000
  H   H1875     1.0  0.71001  0.34360  0.45764  1.0000
  C   C2343     1.0  0.67970  0.37087  0.43595  1.0000
  H   H1876     1.0  0.66937  0.34825  0.45649  1.0000
  H   H1877     1.0  0.72886  0.48635  0.29088  1.0000
  H   H1878     1.0  0.89013  0.37460  0.48002  1.0000
  C   C2344     1.0  0.77153  0.36651  0.48304  1.0000
  H   H1879     1.0  0.69535  0.19362  0.24478  1.0000
  C   C2345     1.0  0.91105  0.47897  0.46571  1.0000
  H   H1880     1.0  0.69976  0.24836  0.34639  1.0000
  C   C2346     1.0  0.73520  0.45412  0.25995  1.0000
  C   C2347     1.0  0.75431  0.24611  0.48155  1.0000
  C   C2348     1.0  0.89666  0.48548  0.45516  1.0000
  C   C2349     1.0  0.93776  0.47564  0.44534  1.0000
  H   H1881     1.0  0.84193  0.48622  0.48104  1.0000
  C   C2350     1.0  0.69850  0.38206  0.42468  1.0000
  C   C2351     1.0  0.69988  0.38758  0.27893  1.0000
  H   H1882     1.0  0.72521  0.47548  0.35804  1.0000
  C   C2352     1.0  0.80770  0.39057  0.42945  1.0000
  S   S315      1.0  0.77351  0.45113  0.30260  1.0000
  Fe  Fe155     1.0  0.74179  0.44712  0.31887  1.0000
  C   C2353     1.0  0.69517  0.38576  0.26327  1.0000
  C   C2354     1.0  0.74946  0.30439  0.35196  1.0000
  C   C2355     1.0  0.77295  0.32401  0.34669  1.0000
  C   C2356     1.0  0.77793  0.35011  0.34799  1.0000
  C   C2357     1.0  0.75917  0.35660  0.35414  1.0000
  C   C2358     1.0  0.73570  0.33705  0.35983  1.0000
  C   C2359     1.0  0.73095  0.31083  0.35859  1.0000
  P   P77       1.0  0.71165  0.34584  0.36787  1.0000
  C   C2360     1.0  0.69142  0.32166  0.38141  1.0000
  C   C2361     1.0  0.72855  0.37789  0.37666  1.0000
  C   C2362     1.0  0.75193  0.38466  0.38474  1.0000
  C   C2363     1.0  0.76627  0.40997  0.39056  1.0000
  C   C2364     1.0  0.75726  0.42868  0.38845  1.0000
  C   C2365     1.0  0.73391  0.42211  0.38055  1.0000
  C   C2366     1.0  0.71956  0.39683  0.37468  1.0000
  H   H1883     1.0  0.73644  0.43643  0.25700  1.0000
  H   H1884     1.0  0.69986  0.46999  0.31140  1.0000
  H   H1885     1.0  0.80876  0.37219  0.42979  1.0000
  C   C2367     1.0  0.73130  0.48268  0.27907  1.0000
  C   C2368     1.0  0.69300  0.32763  0.39698  1.0000
  C   C2369     1.0  0.69046  0.34732  0.35313  1.0000
  C   C2370     1.0  0.69965  0.35433  0.33828  1.0000
  C   C2371     1.0  0.70403  0.49601  0.44038  1.0000
  P   P78       1.0  0.76084  0.38405  0.24617  1.0000
  C   C2372     1.0  0.82911  0.43732  0.42566  1.0000
  C   C2373     1.0  0.66508  0.46654  0.36936  1.0000
  H   H1886     1.0  0.74535  0.28411  0.35054  1.0000
  H   H1887     1.0  0.78689  0.31893  0.34109  1.0000
  H   H1888     1.0  0.79597  0.36530  0.34367  1.0000
  H   H1889     1.0  0.76296  0.37690  0.35419  1.0000
  H   H1890     1.0  0.71294  0.29515  0.36243  1.0000
  H   H1891     1.0  0.75953  0.37061  0.38599  1.0000
  H   H1892     1.0  0.78472  0.41533  0.39637  1.0000
  H   H1893     1.0  0.76869  0.44850  0.39258  1.0000
  H   H1894     1.0  0.72748  0.43695  0.37849  1.0000
  H   H1895     1.0  0.70198  0.39251  0.36819  1.0000
  C   C2374     1.0  0.76648  0.44952  0.48291  1.0000
  C   C2375     1.0  0.90299  0.48738  0.43975  1.0000
  H   H1896     1.0  0.80601  0.45749  0.43011  1.0000
  C   C2376     1.0  0.84869  0.47756  0.48972  1.0000
  H   H1897     1.0  0.70710  0.34640  0.40117  1.0000
  H   H1898     1.0  0.71926  0.35802  0.33520  1.0000
  H   H1899     1.0  0.69056  0.36236  0.31572  1.0000
  H   H1900     1.0  0.67072  0.29198  0.36425  1.0000
  C   C2377     1.0  0.67279  0.29698  0.37628  1.0000
  Fe  Fe156     1.0  0.77913  0.48225  0.34312  1.0000
  C   C2378     1.0  0.77759  0.27175  0.41500  1.0000
  C   C2379     1.0  0.75812  0.26189  0.42596  1.0000
  C   C2380     1.0  0.76286  0.27260  0.44057  1.0000
  C   C2381     1.0  0.78719  0.29308  0.44432  1.0000
  C   C2382     1.0  0.80704  0.30331  0.43345  1.0000
  C   C2383     1.0  0.80203  0.29213  0.41874  1.0000
  P   P79       1.0  0.83996  0.32658  0.43899  1.0000
  C   C2384     1.0  0.85414  0.30732  0.44764  1.0000
  C   C2385     1.0  0.85803  0.34196  0.42211  1.0000
  C   C2386     1.0  0.84679  0.35150  0.41105  1.0000
  C   C2387     1.0  0.86082  0.36380  0.39807  1.0000
  C   C2388     1.0  0.88623  0.36689  0.39612  1.0000
  C   C2389     1.0  0.89767  0.35779  0.40718  1.0000
  C   C2390     1.0  0.88369  0.34544  0.42016  1.0000
  C   C2391     1.0  0.86743  0.31463  0.46164  1.0000
  H   H1901     1.0  0.88003  0.48988  0.37321  1.0000
  Fe  Fe157     1.0  0.79134  0.49349  0.30912  1.0000
  C   C2392     1.0  0.86171  0.26882  0.44714  1.0000
  C   C2393     1.0  0.85157  0.28439  0.44037  1.0000
  C   C2394     1.0  0.84119  0.35212  0.45186  1.0000
  C   C2395     1.0  0.85457  0.37861  0.44780  1.0000
  C   C2396     1.0  0.85603  0.39827  0.45785  1.0000
  C   C2397     1.0  0.84456  0.39178  0.47215  1.0000
  C   C2398     1.0  0.83201  0.36569  0.47650  1.0000
  C   C2399     1.0  0.83040  0.34601  0.46646  1.0000
  H   H1902     1.0  0.77379  0.26299  0.40372  1.0000
  H   H1903     1.0  0.73948  0.24558  0.42322  1.0000
  H   H1904     1.0  0.74788  0.26436  0.44917  1.0000
  H   H1905     1.0  0.79044  0.29995  0.45590  1.0000
  H   H1906     1.0  0.81714  0.29830  0.41024  1.0000
  H   H1907     1.0  0.82710  0.34919  0.41242  1.0000
  H   H1908     1.0  0.85195  0.37080  0.38946  1.0000
  H   H1909     1.0  0.89704  0.37628  0.38600  1.0000
  H   H1910     1.0  0.91740  0.36024  0.40566  1.0000
  H   H1911     1.0  0.89297  0.33868  0.42864  1.0000
  H   H1912     1.0  0.86943  0.33186  0.46768  1.0000
  H   H1913     1.0  0.85920  0.25088  0.44162  1.0000
  H   H1914     1.0  0.84140  0.27825  0.42957  1.0000
  H   H1915     1.0  0.86426  0.38437  0.43699  1.0000
  H   H1916     1.0  0.86634  0.41862  0.45466  1.0000
  H   H1917     1.0  0.82175  0.32619  0.47048  1.0000
  Fe  Fe158     1.0  0.68389  0.20351  0.42154  1.0000
  H   H1918     1.0  0.75236  0.31330  0.45170  1.0000
  S   S316      1.0  0.68726  0.22968  0.44141  1.0000
  S   S317      1.0  0.81422  0.48969  0.32900  1.0000
  C   C2400     1.0  0.79313  0.32986  0.26604  1.0000
  C   C2401     1.0  0.80013  0.36903  0.25242  1.0000
  C   C2402     1.0  0.98643  0.48623  0.47083  1.0000
  C   C2403     1.0  0.67551  0.42853  0.31015  1.0000
  H   H1919     1.0  0.72582  0.38835  0.29688  1.0000
  C   C2404     1.0  0.80141  0.26853  0.47774  1.0000
  H   H1920     1.0  0.76665  0.41754  0.43695  1.0000
  C   C2405     1.0  0.70092  0.23742  0.36983  1.0000
  C   C2406     1.0  0.67634  0.30923  0.40727  1.0000
  H   H1921     1.0  0.68430  0.44249  0.24454  1.0000
  C   C2407     1.0  0.74084  0.38592  0.27480  1.0000
  H   H1922     1.0  0.84786  0.41251  0.42269  1.0000
  C   C2408     1.0  0.92520  0.37942  0.46883  1.0000
  C   C2409     1.0  0.73662  0.38475  0.25900  1.0000
  H   H1923     1.0  0.68558  0.38826  0.28672  1.0000
  C   C2410     1.0  0.68841  0.23901  0.35631  1.0000
  C   C2411     1.0  0.77624  0.25005  0.47296  1.0000
  H   H1924     1.0  0.69887  0.43109  0.34759  1.0000
  C   C2412     1.0  0.81651  0.45845  0.25608  1.0000
  H   H1925     1.0  0.97605  0.43726  0.46009  1.0000
  S   S318      1.0  0.70319  0.22324  0.39939  1.0000
  H   H1926     1.0  0.77099  0.39213  0.46554  1.0000
  H   H1927     1.0  0.81356  0.38663  0.24681  1.0000
  C   C2413     1.0  0.72637  0.36615  0.43728  1.0000
  C   C2414     1.0  0.76117  0.32243  0.47520  1.0000
  H   H1928     1.0  0.75824  0.38568  0.27954  1.0000
  C   C2415     1.0  0.93228  0.47485  0.46093  1.0000
  H   H1929     1.0  0.72197  0.24560  0.37023  1.0000
  C   C2416     1.0  0.73109  0.45897  0.27504  1.0000
  C   C2417     1.0  0.82991  0.41333  0.42560  1.0000
  C   C2418     1.0  0.78417  0.39146  0.43273  1.0000
  H   H1930     1.0  0.75382  0.30553  0.27296  1.0000
  P   P80       1.0  0.75560  0.36162  0.43745  1.0000
  C   C2419     1.0  0.76098  0.35348  0.45655  1.0000
  C   C2420     1.0  0.76663  0.32323  0.26713  1.0000
  C   C2421     1.0  0.94208  0.43325  0.47286  1.0000
  H   H1931     1.0  0.69502  0.39242  0.41535  1.0000
  C   C2422     1.0  0.94937  0.39718  0.46323  1.0000
  C   C2423     1.0  0.69222  0.47863  0.36766  1.0000
  C   C2424     1.0  0.70727  0.35473  0.44849  1.0000
  Fe  Fe159     1.0  0.67239  0.29514  0.29698  1.0000
  C   C2425     1.0  0.73840  0.47245  0.24876  1.0000
  C   C2426     1.0  0.74897  0.33570  0.42363  1.0000
  C   C2427     1.0  0.72786  0.31096  0.42582  1.0000
  C   C2428     1.0  0.72160  0.29122  0.41487  1.0000
  C   C2429     1.0  0.73590  0.29607  0.40147  1.0000
  C   C2430     1.0  0.75662  0.32065  0.39902  1.0000
  C   C2431     1.0  0.76311  0.34041  0.41001  1.0000
  C   C2432     1.0  0.78388  0.41586  0.43343  1.0000
  C   C2433     1.0  0.95758  0.42399  0.46496  1.0000
  H   H1932     1.0  0.71575  0.46030  0.41291  1.0000
  H   H1933     1.0  0.73579  0.38793  0.41633  1.0000
  H   H1934     1.0  0.88177  0.26364  0.46665  1.0000
  H   H1935     1.0  0.92796  0.48340  0.42283  1.0000
  H   H1936     1.0  0.78007  0.48560  0.47049  1.0000
  H   H1937     1.0  0.78382  0.42909  0.26743  1.0000
  H   H1938     1.0  0.72821  0.44458  0.28371  1.0000
  C   C2434     1.0  0.76808  0.34146  0.48662  1.0000
  C   C2435     1.0  0.72167  0.37960  0.42530  1.0000
  H   H1939     1.0  0.71598  0.30688  0.43593  1.0000
  H   H1940     1.0  0.70544  0.27207  0.41662  1.0000
  H   H1941     1.0  0.73079  0.28070  0.39298  1.0000
  H   H1942     1.0  0.76744  0.32436  0.38850  1.0000
  H   H1943     1.0  0.77875  0.35937  0.40756  1.0000
  H   H1944     1.0  0.83048  0.35790  0.25786  1.0000
  C   C2436     1.0  0.68052  0.45471  0.30900  1.0000
  C   C2437     1.0  0.90909  0.38846  0.47600  1.0000
  C   C2438     1.0  0.68946  0.44081  0.35390  1.0000
  H   H1945     1.0  0.81539  0.47927  0.36934  1.0000
  Fe  Fe160     1.0  0.66674  0.25056  0.31746  1.0000
  H   H1946     1.0  0.80064  0.31741  0.27117  1.0000
  H   H1947     1.0  0.84634  0.45500  0.42277  1.0000
  C   C2439     1.0  0.70432  0.46586  0.35978  1.0000
  H   H1948     1.0  0.67733  0.38541  0.25893  1.0000
  C   C2440     1.0  0.69931  0.47870  0.42805  1.0000
  H   H1949     1.0  0.77391  0.23825  0.46289  1.0000
  C   C2441     1.0  0.79474  0.43407  0.25697  1.0000
  C   C2442     1.0  0.80988  0.35269  0.25862  1.0000
  C   C2443     1.0  0.77765  0.47665  0.48157  1.0000
  Fe  Fe161     1.0  0.67354  0.24730  0.28259  1.0000
  H   H1950     1.0  0.82199  0.47175  0.26574  1.0000
  H   H1951     1.0  0.88655  0.30414  0.47958  1.0000
  C   C2444     1.0  0.87451  0.27603  0.46120  1.0000
  H   H1952     1.0  0.77714  0.38132  0.49189  1.0000
  H   H1953     1.0  0.91898  0.35865  0.46762  1.0000
  P   P81       1.0  0.95194  0.46783  0.47452  1.0000
  H   H1954     1.0  0.82398  0.36069  0.48783  1.0000
  C   C2445     1.0  0.68344  0.35683  0.32718  1.0000
  H   H1955     1.0  0.73637  0.33454  0.26258  1.0000
  H   H1956     1.0  0.76027  0.43728  0.47282  1.0000
  H   H1957     1.0  0.84497  0.48202  0.39080  1.0000
  C   C2446     1.0  0.87741  0.29895  0.46842  1.0000
  H   H1958     1.0  0.68456  0.48689  0.26346  1.0000
  S   S319      1.0  0.75772  0.48979  0.32373  1.0000
  H   H1959     1.0  0.81459  0.44033  0.48822  1.0000
  C   C2447     1.0  0.77357  0.36284  0.25387  1.0000
  H   H1960     1.0  0.81817  0.27082  0.47118  1.0000
  H   H1961     1.0  0.68045  0.46989  0.42243  1.0000
  H   H1962     1.0  0.88083  0.48948  0.45900  1.0000
  S   S320      1.0  0.66385  0.32817  0.29074  1.0000
  C   C2448     1.0  0.83260  0.49167  0.39171  1.0000
  H   H1963     1.0  0.78678  0.48985  0.26890  1.0000
  H   H1964     1.0  0.74135  0.22625  0.24869  1.0000
  C   C2449     1.0  0.80504  0.28364  0.49104  1.0000
  H   H1965     1.0  0.67766  0.31393  0.41929  1.0000
  H   H1966     1.0  0.66813  0.11909  0.38168  1.0000
  C   C2450     1.0  0.66394  0.43789  0.24582  1.0000
  C   C2451     1.0  0.78782  0.41644  0.24465  1.0000
  C   C2452     1.0  0.67228  0.49058  0.47712  1.0000
  C   C2453     1.0  0.83122  0.46576  0.24280  1.0000
  C   C2454     1.0  0.66495  0.34298  0.35670  1.0000
  H   H1967     1.0  0.66407  0.48110  0.30353  1.0000
  Fe  Fe162     1.0  0.78038  0.35901  0.68800  1.0000
  S   S321      1.0  0.79065  0.33193  0.67406  1.0000
  S   S322      1.0  0.80434  0.37460  0.70982  1.0000
  Fe  Fe163     1.0  0.74107  0.35759  0.66406  1.0000
  S   S323      1.0  0.74859  0.33081  0.64845  1.0000
  S   S324      1.0  0.70800  0.36564  0.65637  1.0000
  Fe  Fe164     1.0  0.74751  0.30952  0.66985  1.0000
  S   S325      1.0  0.72655  0.26571  0.67038  1.0000
  Fe  Fe165     1.0  0.79082  0.35572  0.65378  1.0000
  S   S326      1.0  0.82413  0.37062  0.63681  1.0000
  S   S327      1.0  0.73701  0.33447  0.68531  1.0000
  S   S328      1.0  0.78355  0.38462  0.66790  1.0000
  H   H1968     1.0  0.73692  0.47467  0.52151  1.0000
  Fe  Fe166     1.0  0.84784  0.33768  0.51537  1.0000
  S   S329      1.0  0.81711  0.34576  0.52611  1.0000
  H   H1969     1.0  0.67010  0.35554  0.62914  1.0000
  Fe  Fe167     1.0  0.89263  0.38428  0.53199  1.0000
  S   S330      1.0  0.86390  0.39554  0.54387  1.0000
  S   S331      1.0  0.93635  0.41054  0.53749  1.0000
  Fe  Fe168     1.0  0.83991  0.35263  0.54794  1.0000
  S   S332      1.0  0.81199  0.33398  0.56755  1.0000
  Fe  Fe169     1.0  0.84317  0.38762  0.52136  1.0000
  H   H1970     1.0  0.72486  0.30945  0.55808  1.0000
  S   S333      1.0  0.86947  0.34128  0.53757  1.0000
  C   C2455     1.0  0.97850  0.40135  0.57052  1.0000
  C   C2456     1.0  0.96746  0.42370  0.52822  1.0000
  C   C2457     1.0  0.73894  0.28099  0.55392  1.0000
  H   H1971     1.0  0.72404  0.47370  0.62651  1.0000
  C   C2458     1.0  0.73459  0.29897  0.72095  1.0000
  S   S334      1.0  0.82174  0.40787  0.51047  1.0000
  C   C2459     1.0  0.80744  0.48742  0.53947  1.0000
  C   C2460     1.0  0.81998  0.36208  0.61724  1.0000
  C   C2461     1.0  0.79560  0.34524  0.61110  1.0000
  C   C2462     1.0  0.79336  0.33750  0.59571  1.0000
  C   C2463     1.0  0.81538  0.34673  0.58628  1.0000
  C   C2464     1.0  0.83956  0.36453  0.59223  1.0000
  C   C2465     1.0  0.84184  0.37207  0.60767  1.0000
  H   H1972     1.0  0.77870  0.33742  0.61835  1.0000
  H   H1973     1.0  0.77460  0.32366  0.59123  1.0000
  H   H1974     1.0  0.85665  0.37176  0.58510  1.0000
  H   H1975     1.0  0.86076  0.38523  0.61232  1.0000
  C   C2466     1.0  0.71343  0.39816  0.65738  1.0000
  C   C2467     1.0  0.69223  0.40366  0.65523  1.0000
  C   C2468     1.0  0.69563  0.42934  0.65642  1.0000
  C   C2469     1.0  0.72039  0.44968  0.65937  1.0000
  C   C2470     1.0  0.74162  0.44423  0.66163  1.0000
  C   C2471     1.0  0.73813  0.41841  0.66070  1.0000
  H   H1976     1.0  0.84187  0.45189  0.54082  1.0000
  C   C2472     1.0  0.69846  0.44310  0.57518  1.0000
  H   H1977     1.0  0.76070  0.45994  0.66419  1.0000
  H   H1978     1.0  0.75450  0.41424  0.66254  1.0000
  C   C2473     1.0  0.69508  0.25177  0.66219  1.0000
  H   H1979     1.0  0.72647  0.42446  0.69212  1.0000
  H   H1980     1.0  0.71295  0.39032  0.62189  1.0000
  H   H1981     1.0  0.68889  0.28608  0.66437  1.0000
  C   C2474     1.0  0.79231  0.37158  0.72861  1.0000
  C   C2475     1.0  0.76643  0.36614  0.73140  1.0000
  C   C2476     1.0  0.76089  0.43661  0.61798  1.0000
  C   C2477     1.0  0.72482  0.39416  0.72559  1.0000
  H   H1982     1.0  0.79611  0.42919  0.73315  1.0000
  H   H1983     1.0  0.75328  0.36306  0.72193  1.0000
  H   H1984     1.0  0.72236  0.31458  0.73984  1.0000
  H   H1985     1.0  0.73388  0.39751  0.73672  1.0000
  C   C2478     1.0  0.77172  0.45411  0.51030  1.0000
  C   C2479     1.0  0.81492  0.47848  0.56559  1.0000
  C   C2480     1.0  0.78605  0.49253  0.49455  1.0000
  C   C2481     1.0  0.70422  0.21183  0.62023  1.0000
  C   C2482     1.0  0.70348  0.22332  0.60629  1.0000
  C   C2483     1.0  0.80438  0.48964  0.55518  1.0000
  P   P82       1.0  0.72003  0.25838  0.60427  1.0000
  C   C2484     1.0  0.75052  0.27128  0.61485  1.0000
  C   C2485     1.0  0.72661  0.26681  0.58443  1.0000
  C   C2486     1.0  0.72211  0.28690  0.57812  1.0000
  C   C2487     1.0  0.72812  0.29381  0.56288  1.0000
  C   C2488     1.0  0.73696  0.25364  0.57524  1.0000
  C   C2489     1.0  0.75049  0.27492  0.63065  1.0000
  C   C2490     1.0  0.77390  0.28534  0.63893  1.0000
  C   C2491     1.0  0.79759  0.29264  0.63152  1.0000
  C   C2492     1.0  0.79785  0.28888  0.61583  1.0000
  C   C2493     1.0  0.77445  0.27812  0.60752  1.0000
  C   C2494     1.0  0.69935  0.27172  0.61199  1.0000
  C   C2495     1.0  0.71031  0.29776  0.61707  1.0000
  C   C2496     1.0  0.69462  0.30774  0.62387  1.0000
  H   H1986     1.0  0.93583  0.33828  0.57777  1.0000
  C   C2497     1.0  0.87258  0.49224  0.49709  1.0000
  H   H1987     1.0  0.78513  0.48759  0.69633  1.0000
  C   C2498     1.0  0.94549  0.47245  0.52074  1.0000
  C   C2499     1.0  0.74161  0.49055  0.52953  1.0000
  C   C2500     1.0  0.68984  0.18489  0.62216  1.0000
  H   H1988     1.0  0.71549  0.22357  0.62975  1.0000
  H   H1989     1.0  0.78547  0.29113  0.50987  1.0000
  H   H1990     1.0  0.71429  0.29747  0.58493  1.0000
  H   H1991     1.0  0.74079  0.23824  0.57991  1.0000
  H   H1992     1.0  0.73240  0.26994  0.63661  1.0000
  H   H1993     1.0  0.77366  0.28812  0.65111  1.0000
  H   H1994     1.0  0.81577  0.30165  0.63790  1.0000
  H   H1995     1.0  0.81628  0.29513  0.61001  1.0000
  H   H1996     1.0  0.77551  0.27619  0.59536  1.0000
  H   H1997     1.0  0.73108  0.31014  0.61613  1.0000
  H   H1998     1.0  0.70332  0.32751  0.62838  1.0000
  C   C2501     1.0  0.67669  0.35672  0.61747  1.0000
  C   C2502     1.0  0.70381  0.27244  0.74007  1.0000
  H   H1999     1.0  0.83632  0.45596  0.56847  1.0000
  C   C2503     1.0  0.88084  0.48067  0.50851  1.0000
  H   H2000     1.0  0.69329  0.37992  0.68541  1.0000
  C   C2504     1.0  0.82834  0.46481  0.56042  1.0000
  Fe  Fe170     1.0  0.68600  0.48181  0.66329  1.0000
  C   C2505     1.0  0.69256  0.43758  0.61867  1.0000
  H   H2001     1.0  0.70199  0.35306  0.72945  1.0000
  P   P83       1.0  0.73916  0.40550  0.59217  1.0000
  C   C2506     1.0  0.75388  0.39538  0.57696  1.0000
  C   C2507     1.0  0.73054  0.43044  0.58546  1.0000
  C   C2508     1.0  0.70515  0.42375  0.58013  1.0000
  H   H2002     1.0  0.82432  0.47230  0.52238  1.0000
  H   H2003     1.0  0.68598  0.22525  0.69197  1.0000
  H   H2004     1.0  0.95564  0.39751  0.50896  1.0000
  C   C2509     1.0  0.74921  0.45677  0.58543  1.0000
  C   C2510     1.0  0.76394  0.41103  0.56405  1.0000
  C   C2511     1.0  0.77566  0.40319  0.55248  1.0000
  C   C2512     1.0  0.77764  0.37988  0.55374  1.0000
  C   C2513     1.0  0.76742  0.36411  0.56643  1.0000
  C   C2514     1.0  0.75544  0.37167  0.57795  1.0000
  C   C2515     1.0  0.76166  0.41755  0.60813  1.0000
  C   C2516     1.0  0.71694  0.46931  0.57561  1.0000
  H   H2005     1.0  0.97389  0.34129  0.59280  1.0000
  C   C2517     1.0  0.79569  0.43580  0.63332  1.0000
  C   C2518     1.0  0.79645  0.41671  0.62371  1.0000
  C   C2519     1.0  0.77957  0.40758  0.61117  1.0000
  H   H2006     1.0  0.78403  0.41450  0.70928  1.0000
  H   H2007     1.0  0.83612  0.46139  0.67483  1.0000
  H   H2008     1.0  0.68099  0.26562  0.69503  1.0000
  H   H2009     1.0  0.97965  0.41734  0.56359  1.0000
  H   H2010     1.0  0.93917  0.37644  0.56306  1.0000
  C   C2520     1.0  0.94738  0.49743  0.52270  1.0000
  H   H2011     1.0  0.69991  0.36000  0.57584  1.0000
  H   H2012     1.0  0.74409  0.27813  0.70353  1.0000
  H   H2013     1.0  0.76895  0.46236  0.58935  1.0000
  H   H2014     1.0  0.76300  0.42935  0.56290  1.0000
  H   H2015     1.0  0.78360  0.41530  0.54257  1.0000
  H   H2016     1.0  0.78736  0.37412  0.54498  1.0000
  H   H2017     1.0  0.76928  0.34621  0.56744  1.0000
  H   H2018     1.0  0.74792  0.35923  0.58778  1.0000
  H   H2019     1.0  0.77115  0.33689  0.49819  1.0000
  C   C2521     1.0  0.95549  0.37795  0.57004  1.0000
  H   H2020     1.0  0.80855  0.44248  0.64315  1.0000
  H   H2021     1.0  0.81005  0.40878  0.62605  1.0000
  H   H2022     1.0  0.78059  0.39261  0.60409  1.0000
  C   C2522     1.0  0.71714  0.25200  0.71983  1.0000
  C   C2523     1.0  0.70105  0.37641  0.61330  1.0000
  C   C2524     1.0  0.73289  0.27650  0.71374  1.0000
  H   H2023     1.0  0.75505  0.41722  0.49835  1.0000
  H   H2024     1.0  0.67919  0.43347  0.65473  1.0000
  H   H2025     1.0  0.81866  0.49383  0.67744  1.0000
  C   C2525     1.0  0.69444  0.47998  0.61468  1.0000
  P   P84       1.0  0.75860  0.44628  0.71935  1.0000
  C   C2526     1.0  0.74236  0.47612  0.58063  1.0000
  C   C2527     1.0  0.69384  0.35907  0.58756  1.0000
  C   C2528     1.0  0.79215  0.43251  0.70292  1.0000
  C   C2529     1.0  0.94610  0.46286  0.50614  1.0000
  C   C2530     1.0  0.67445  0.16923  0.61025  1.0000
  C   C2531     1.0  0.72022  0.29700  0.73412  1.0000
  C   C2532     1.0  0.75799  0.26104  0.49493  1.0000
  H   H2026     1.0  0.69029  0.40370  0.57994  1.0000
  H   H2027     1.0  0.98584  0.45317  0.54558  1.0000
  H   H2028     1.0  0.69522  0.21466  0.65867  1.0000
  C   C2533     1.0  0.98879  0.44485  0.53513  1.0000
  C   C2534     1.0  0.81164  0.43650  0.69232  1.0000
  H   H2029     1.0  0.74129  0.25783  0.50186  1.0000
  H   H2030     1.0  0.81898  0.42214  0.69108  1.0000
  H   H2031     1.0  0.70880  0.44712  0.71054  1.0000
  H   H2032     1.0  0.68569  0.21598  0.58383  1.0000
  C   C2535     1.0  0.78308  0.27995  0.49953  1.0000
  C   C2536     1.0  0.66839  0.42581  0.61122  1.0000
  H   H2033     1.0  0.74692  0.44420  0.61623  1.0000
  C   C2537     1.0  0.66965  0.33920  0.59184  1.0000
  C   C2538     1.0  0.83152  0.46256  0.54484  1.0000
  H   H2034     1.0  0.68155  0.34400  0.70372  1.0000
  H   H2035     1.0  0.89864  0.49213  0.51467  1.0000
  C   C2539     1.0  0.70974  0.37786  0.59826  1.0000
  C   C2540     1.0  0.66705  0.22396  0.69477  1.0000
  C   C2541     1.0  0.67325  0.18054  0.59642  1.0000
  C   C2542     1.0  0.69532  0.36368  0.70702  1.0000
  C   C2543     1.0  0.82132  0.45864  0.68320  1.0000
  C   C2544     1.0  0.80936  0.37578  0.74102  1.0000
  H   H2036     1.0  0.69635  0.48287  0.70918  1.0000
  C   C2545     1.0  0.74845  0.47189  0.71812  1.0000
  H   H2037     1.0  0.74756  0.31793  0.71646  1.0000
  C   C2546     1.0  0.95368  0.35644  0.57825  1.0000
  H   H2038     1.0  0.70077  0.42565  0.62362  1.0000
  H   H2039     1.0  0.94518  0.44367  0.50491  1.0000
  H   H2040     1.0  0.87260  0.44557  0.52096  1.0000
  S   S335      1.0  0.87309  0.37974  0.50915  1.0000
  C   C2547     1.0  0.70563  0.46464  0.62035  1.0000
  C   C2548     1.0  0.73226  0.41448  0.71506  1.0000
  H   H2041     1.0  0.77745  0.46073  0.63782  1.0000
  C   C2549     1.0  0.86591  0.45437  0.51220  1.0000
  C   C2550     1.0  0.72073  0.40917  0.70052  1.0000
  C   C2551     1.0  0.83322  0.45151  0.49379  1.0000
  C   C2552     1.0  0.68401  0.22556  0.65767  1.0000
  C   C2553     1.0  0.77809  0.44593  0.63036  1.0000
  C   C2554     1.0  0.79260  0.47335  0.69565  1.0000
  C   C2555     1.0  0.97173  0.41365  0.51452  1.0000
  H   H2042     1.0  0.71154  0.48438  0.57218  1.0000
  C   C2556     1.0  0.82128  0.47393  0.53441  1.0000
  C   C2557     1.0  0.70658  0.36883  0.72153  1.0000
  C   C2558     1.0  0.70208  0.38394  0.69663  1.0000
  H   H2043     1.0  0.69043  0.17627  0.63300  1.0000
  C   C2559     1.0  0.97509  0.35820  0.58675  1.0000
  H   H2044     1.0  0.76924  0.44508  0.52134  1.0000
  C   C2560     1.0  0.68043  0.26577  0.66091  1.0000
  C   C2561     1.0  0.81159  0.47692  0.68474  1.0000
  H   H2045     1.0  0.67878  0.43773  0.57123  1.0000
  C   C2562     1.0  0.74325  0.26084  0.56008  1.0000
  H   H2046     1.0  0.71639  0.23467  0.71441  1.0000
  H   H2047     1.0  0.75192  0.25113  0.55315  1.0000
  S   S336      1.0  0.72483  0.48191  0.65990  1.0000
  H   H2048     1.0  0.94364  0.46056  0.53060  1.0000
  C   C2563     1.0  0.78316  0.45138  0.70513  1.0000
  C   C2564     1.0  0.70267  0.24994  0.73296  1.0000
  C   C2565     1.0  0.72309  0.46664  0.71352  1.0000
  H   H2049     1.0  0.74430  0.28683  0.54224  1.0000
  C   C2566     1.0  0.66782  0.29200  0.62531  1.0000
  H   H2050     1.0  0.67312  0.38799  0.65275  1.0000
  C   C2567     1.0  0.71586  0.48687  0.71274  1.0000
  C   C2568     1.0  0.76347  0.43824  0.49728  1.0000
  C   C2569     1.0  0.76623  0.49758  0.72216  1.0000
  H   H2051     1.0  0.82949  0.38016  0.73895  1.0000
  C   C2570     1.0  0.77075  0.44709  0.73856  1.0000
  S   S337      1.0  0.83729  0.30667  0.49659  1.0000
  H   H2052     1.0  0.75664  0.49647  0.58097  1.0000
  C   C2571     1.0  0.84187  0.43993  0.50501  1.0000
  C   C2572     1.0  0.67229  0.25618  0.61321  1.0000
  C   C2573     1.0  0.78845  0.43699  0.74191  1.0000
  C   C2574     1.0  0.68751  0.20750  0.59447  1.0000
  H   H2053     1.0  0.81285  0.48052  0.57770  1.0000
  C   C2575     1.0  0.67004  0.46827  0.60743  1.0000
  H   H2054     1.0  0.67161  0.30194  0.73805  1.0000
  H   H2055     1.0  0.98959  0.44925  0.58617  1.0000
  H   H2056     1.0  0.69091  0.23084  0.73769  1.0000
  C   C2576     1.0  0.78347  0.48142  0.50901  1.0000
  H   H2057     1.0  0.98414  0.48819  0.57933  1.0000
  C   C2577     1.0  0.94826  0.47822  0.49337  1.0000
  H   H2058     1.0  0.70137  0.48315  0.53172  1.0000
  C   C2578     1.0  0.66419  0.24679  0.69641  1.0000
  H   H2059     1.0  0.66518  0.48132  0.50090  1.0000
  C   C2579     1.0  0.72136  0.49527  0.53529  1.0000
  Fe  Fe171     1.0  0.77210  0.36841  0.80247  1.0000
  S   S338      1.0  0.79134  0.34707  0.81464  1.0000
  S   S339      1.0  0.76242  0.36888  0.77733  1.0000
  Fe  Fe172     1.0  0.74793  0.37646  0.83184  1.0000
  S   S340      1.0  0.76473  0.35524  0.84598  1.0000
  S   S341      1.0  0.71935  0.38732  0.84370  1.0000
  Fe  Fe173     1.0  0.80133  0.37783  0.83307  1.0000
  S   S342      1.0  0.83925  0.39171  0.84661  1.0000
  Fe  Fe174     1.0  0.75333  0.32630  0.82684  1.0000
  S   S343      1.0  0.73624  0.28315  0.83160  1.0000
  S   S344      1.0  0.78532  0.40139  0.81984  1.0000
  S   S345      1.0  0.73340  0.34548  0.81383  1.0000
  H   H2060     1.0  0.91860  0.42866  0.91034  1.0000
  Fe  Fe175     1.0  0.86359  0.40143  0.93564  1.0000
  S   S346      1.0  0.87120  0.36645  0.93364  1.0000
  S   S347      1.0  0.84395  0.41553  0.91775  1.0000
  Fe  Fe176     1.0  0.88110  0.40974  0.96883  1.0000
  S   S348      1.0  0.88922  0.37489  0.96913  1.0000
  C   C2580     1.0  0.96239  0.47693  0.97753  1.0000
  Fe  Fe177     1.0  0.90888  0.39077  0.94670  1.0000
  S   S349      1.0  0.94876  0.39229  0.94085  1.0000
  Fe  Fe178     1.0  0.85091  0.35425  0.95639  1.0000
  S   S350      1.0  0.81661  0.31294  0.95843  1.0000
  S   S351      1.0  0.90228  0.42653  0.94713  1.0000
  S   S352      1.0  0.84179  0.38841  0.95765  1.0000
  C   C2581     1.0  0.69474  0.23565  0.82684  1.0000
  H   H2061     1.0  0.97699  0.44983  0.94619  1.0000
  C   C2582     1.0  0.76107  0.45643  0.75060  1.0000
  C   C2583     1.0  0.79456  0.29592  0.97342  1.0000
  C   C2584     1.0  0.77089  0.27393  0.96978  1.0000
  H   H2062     1.0  0.67568  0.39838  0.84643  1.0000
  C   C2585     1.0  0.76886  0.45565  0.76561  1.0000
  C   C2586     1.0  0.75316  0.25932  0.98122  1.0000
  C   C2587     1.0  0.87478  0.46697  0.97558  1.0000
  P   P85       1.0  0.66859  0.42759  0.76387  1.0000
  H   H2063     1.0  0.87414  0.45622  0.96530  1.0000
  C   C2588     1.0  0.98248  0.41593  0.94088  1.0000
  H   H2064     1.0  0.73421  0.39415  0.76602  1.0000
  C   C2589     1.0  0.79538  0.49285  0.93372  1.0000
  H   H2065     1.0  0.89248  0.48665  0.90224  1.0000
  C   C2590     1.0  0.83856  0.39618  0.86656  1.0000
  C   C2591     1.0  0.85545  0.39101  0.87602  1.0000
  C   C2592     1.0  0.85657  0.39578  0.89181  1.0000
  C   C2593     1.0  0.84135  0.40666  0.89822  1.0000
  C   C2594     1.0  0.82408  0.41143  0.88881  1.0000
  C   C2595     1.0  0.82240  0.40588  0.87308  1.0000
  H   H2066     1.0  0.86749  0.38301  0.87109  1.0000
  H   H2067     1.0  0.86968  0.39166  0.89895  1.0000
  H   H2068     1.0  0.81217  0.41978  0.89364  1.0000
  H   H2069     1.0  0.80929  0.40995  0.86592  1.0000
  C   C2596     1.0  0.71392  0.41298  0.83653  1.0000
  C   C2597     1.0  0.69045  0.41387  0.83991  1.0000
  C   C2598     1.0  0.68604  0.43478  0.83493  1.0000
  C   C2599     1.0  0.70536  0.45514  0.82683  1.0000
  C   C2600     1.0  0.72866  0.45405  0.82325  1.0000
  C   C2601     1.0  0.73286  0.43286  0.82796  1.0000
  C   C2602     1.0  0.80785  0.45831  0.95016  1.0000
  H   H2070     1.0  0.68336  0.40549  0.96303  1.0000
  C   C2603     1.0  0.80055  0.37429  0.75612  1.0000
  H   H2071     1.0  0.75098  0.43224  0.82530  1.0000
  C   C2604     1.0  0.70488  0.26255  0.82449  1.0000
  C   C2605     1.0  0.68938  0.27244  0.81734  1.0000
  H   H2072     1.0  0.69716  0.29302  0.81523  1.0000
  H   H2073     1.0  0.74361  0.46977  0.81695  1.0000
  C   C2606     1.0  0.91662  0.44221  0.90258  1.0000
  C   C2607     1.0  0.71960  0.39728  0.77222  1.0000
  C   C2608     1.0  0.75774  0.36500  0.74645  1.0000
  C   C2609     1.0  0.70530  0.24432  0.77804  1.0000
  H   H2074     1.0  0.80071  0.47552  0.97012  1.0000
  H   H2075     1.0  0.69462  0.39107  0.80779  1.0000
  C   C2610     1.0  0.66392  0.49522  0.89885  1.0000
  H   H2076     1.0  0.81837  0.31974  0.99179  1.0000
  C   C2611     1.0  0.67144  0.29220  0.89955  1.0000
  C   C2612     1.0  0.68835  0.47330  0.78129  1.0000
  C   C2613     1.0  0.91089  0.47784  0.88322  1.0000
  H   H2077     1.0  0.71068  0.31453  0.85287  1.0000
  H   H2078     1.0  0.66806  0.43554  0.83772  1.0000
  C   C2614     1.0  0.90535  0.45783  0.90789  1.0000
  C   C2615     1.0  0.78885  0.40178  0.98124  1.0000
  C   C2616     1.0  0.92269  0.46266  0.87794  1.0000
  C   C2617     1.0  0.92484  0.44402  0.88742  1.0000
  C   C2618     1.0  0.72638  0.38635  0.97868  1.0000
  P   P86       1.0  0.94086  0.42488  0.88087  1.0000
  C   C2619     1.0  0.92323  0.39144  0.88726  1.0000
  C   C2620     1.0  0.94195  0.42457  0.86032  1.0000
  H   H2079     1.0  0.68605  0.23602  0.86589  1.0000
  C   C2621     1.0  0.68842  0.46216  0.76711  1.0000
  C   C2622     1.0  0.94224  0.42095  0.82846  1.0000
  C   C2623     1.0  0.91999  0.41914  0.83587  1.0000
  C   C2624     1.0  0.91979  0.42084  0.85171  1.0000
  C   C2625     1.0  0.92556  0.38521  0.90242  1.0000
  C   C2626     1.0  0.91249  0.35943  0.90740  1.0000
  C   C2627     1.0  0.89665  0.33964  0.89737  1.0000
  C   C2628     1.0  0.89428  0.34553  0.88223  1.0000
  C   C2629     1.0  0.90771  0.37123  0.87715  1.0000
  H   H2080     1.0  0.80931  0.42781  0.75947  1.0000
  H   H2081     1.0  0.73414  0.31420  0.91231  1.0000
  C   C2630     1.0  0.86926  0.48845  0.97499  1.0000
  H   H2082     1.0  0.81557  0.44578  0.92843  1.0000
  H   H2083     1.0  0.70893  0.41356  0.75313  1.0000
  H   H2084     1.0  0.90556  0.37501  0.86534  1.0000
  C   C2631     1.0  0.98630  0.46654  0.89195  1.0000
  C   C2632     1.0  0.96422  0.42629  0.85281  1.0000
  C   C2633     1.0  0.96731  0.49049  0.96383  1.0000
  H   H2085     1.0  0.74650  0.49034  0.93611  1.0000
  H   H2086     1.0  0.90208  0.41875  0.85723  1.0000
  H   H2087     1.0  0.93777  0.40021  0.91042  1.0000
  H   H2088     1.0  0.91454  0.35481  0.91912  1.0000
  H   H2089     1.0  0.88626  0.31976  0.90136  1.0000
  H   H2090     1.0  0.88199  0.33018  0.87443  1.0000
  C   C2634     1.0  0.67555  0.33907  0.87277  1.0000
  H   H2091     1.0  0.67433  0.34692  0.88379  1.0000
  H   H2092     1.0  0.81393  0.44580  0.95654  1.0000
  H   H2093     1.0  0.67887  0.26813  0.85048  1.0000
  C   C2635     1.0  0.71573  0.39105  0.78763  1.0000
  H   H2094     1.0  0.92997  0.46558  0.86645  1.0000
  P   P87       1.0  0.68671  0.26965  0.75766  1.0000
  C   C2636     1.0  0.72888  0.31744  0.98997  1.0000
  H   H2095     1.0  0.95190  0.48496  0.95536  1.0000
  C   C2637     1.0  0.68326  0.40702  0.78862  1.0000
  H   H2096     1.0  0.74701  0.46380  0.74852  1.0000
  C   C2638     1.0  0.70511  0.40810  0.76492  1.0000
  C   C2639     1.0  0.98217  0.48385  0.98847  1.0000
  C   C2640     1.0  0.68643  0.41250  0.77299  1.0000
  C   C2641     1.0  0.70551  0.47788  0.75586  1.0000
  C   C2642     1.0  0.69748  0.39579  0.79581  1.0000
  C   C2643     1.0  0.70053  0.28346  0.92250  1.0000
  H   H2097     1.0  0.76638  0.26794  0.95801  1.0000
  H   H2098     1.0  0.71198  0.27950  0.93104  1.0000
  H   H2099     1.0  0.86442  0.49430  0.96422  1.0000
  H   H2100     1.0  0.90842  0.49147  0.87570  1.0000
  C   C2644     1.0  0.79348  0.49240  0.94968  1.0000
  H   H2101     1.0  0.94323  0.46099  0.97963  1.0000
  H   H2102     1.0  0.73768  0.36078  0.74855  1.0000
  C   C2645     1.0  0.69929  0.27861  0.96881  1.0000
  C   C2646     1.0  0.77806  0.37444  0.98007  1.0000
  H   H2103     1.0  0.81384  0.37761  0.76558  1.0000
  H   H2104     1.0  0.66997  0.41155  0.79532  1.0000
  H   H2105     1.0  0.94218  0.41925  0.81617  1.0000
  C   C2647     1.0  0.67956  0.29673  0.76153  1.0000
  C   C2648     1.0  0.80016  0.30315  0.98874  1.0000
  C   C2649     1.0  0.70821  0.26825  0.77224  1.0000
  H   H2106     1.0  0.98931  0.48831  0.84547  1.0000
  H   H2107     1.0  0.73526  0.24234  0.97819  1.0000
  H   H2108     1.0  0.73291  0.31007  0.77223  1.0000
  H   H2109     1.0  0.70666  0.22787  0.83232  1.0000
  H   H2110     1.0  0.79167  0.44394  0.78046  1.0000
  C   C2650     1.0  0.69896  0.27240  0.98414  1.0000
  C   C2651     1.0  0.67904  0.30474  0.77661  1.0000
  C   C2652     1.0  0.72915  0.37210  0.96637  1.0000
  C   C2653     1.0  0.71389  0.36855  0.95322  1.0000
  P   P88       1.0  0.75016  0.35637  0.96791  1.0000
  C   C2654     1.0  0.76419  0.35527  0.94978  1.0000
  H   H2111     1.0  0.97717  0.47889  0.88912  1.0000
  C   C2655     1.0  0.69579  0.39583  0.96403  1.0000
  H   H2112     1.0  0.76087  0.46239  0.77485  1.0000
  H   H2113     1.0  0.68793  0.26337  0.96070  1.0000
  C   C2656     1.0  0.78622  0.44531  0.76879  1.0000
  C   C2657     1.0  0.71007  0.39852  0.97741  1.0000
  C   C2658     1.0  0.77106  0.33517  0.94651  1.0000
  C   C2659     1.0  0.78326  0.33498  0.93282  1.0000
  C   C2660     1.0  0.78876  0.35489  0.92232  1.0000
  C   C2661     1.0  0.78201  0.37498  0.92549  1.0000
  C   C2662     1.0  0.77027  0.37551  0.93930  1.0000
  C   C2663     1.0  0.72996  0.32366  0.97449  1.0000
  C   C2664     1.0  0.97345  0.43957  0.88895  1.0000
  H   H2114     1.0  0.68130  0.31461  0.83247  1.0000
  H   H2115     1.0  0.90259  0.41592  0.82940  1.0000
  H   H2116     1.0  0.68360  0.29535  0.78602  1.0000
  C   C2665     1.0  0.71460  0.30419  0.96400  1.0000
  C   C2666     1.0  0.80282  0.47576  0.92609  1.0000
  H   H2117     1.0  0.68970  0.22607  0.77410  1.0000
  H   H2118     1.0  0.71482  0.35657  0.94391  1.0000
  H   H2119     1.0  0.78066  0.41247  0.97488  1.0000
  C   C2667     1.0  0.90204  0.47527  0.89817  1.0000
  C   C2668     1.0  0.80024  0.47524  0.95783  1.0000
  H   H2120     1.0  0.70866  0.41016  0.98680  1.0000
  S   S353      1.0  0.88896  0.43329  0.99049  1.0000
  H   H2121     1.0  0.76801  0.32015  0.95478  1.0000
  H   H2122     1.0  0.78954  0.32000  0.93070  1.0000
  H   H2123     1.0  0.79934  0.35541  0.91204  1.0000
  H   H2124     1.0  0.78717  0.39085  0.91752  1.0000
  H   H2125     1.0  0.76674  0.39210  0.94196  1.0000
  H   H2126     1.0  0.80472  0.47656  0.91382  1.0000
  H   H2127     1.0  0.78365  0.34068  0.98590  1.0000
  C   C2669     1.0  0.69747  0.38061  0.95200  1.0000
  H   H2128     1.0  0.71480  0.30874  0.95208  1.0000
  C   C2670     1.0  0.72264  0.24383  0.78914  1.0000
  C   C2671     1.0  0.74348  0.26709  0.79409  1.0000
  C   C2672     1.0  0.74710  0.29081  0.78786  1.0000
  H   H2129     1.0  0.67704  0.46124  0.79049  1.0000
  H   H2130     1.0  0.71985  0.22549  0.79403  1.0000
  H   H2131     1.0  0.75667  0.26683  0.80289  1.0000
  H   H2132     1.0  0.76336  0.30883  0.79153  1.0000
  H   H2133     1.0  0.72710  0.38284  0.79331  1.0000
  C   C2673     1.0  0.75524  0.29183  0.86923  1.0000
  C   C2674     1.0  0.78133  0.30925  0.87205  1.0000
  C   C2675     1.0  0.78761  0.33325  0.87909  1.0000
  C   C2676     1.0  0.76789  0.34017  0.88296  1.0000
  C   C2677     1.0  0.74161  0.32304  0.87976  1.0000
  C   C2678     1.0  0.73544  0.29854  0.87324  1.0000
  P   P89       1.0  0.71567  0.33080  0.88556  1.0000
  C   C2679     1.0  0.69863  0.30752  0.90022  1.0000
  C   C2680     1.0  0.72941  0.36397  0.89260  1.0000
  C   C2681     1.0  0.72631  0.36974  0.90778  1.0000
  C   C2682     1.0  0.73674  0.39576  0.91276  1.0000
  C   C2683     1.0  0.75028  0.41605  0.90265  1.0000
  C   C2684     1.0  0.75326  0.41039  0.88752  1.0000
  C   C2685     1.0  0.74281  0.38448  0.88251  1.0000
  H   H2134     1.0  0.68773  0.25239  0.98775  1.0000
  H   H2135     1.0  0.68614  0.37826  0.94169  1.0000
  S   S354      1.0  0.70137  0.48271  0.82172  1.0000
  C   C2686     1.0  0.77468  0.36910  0.75886  1.0000
  C   C2687     1.0  0.71306  0.30304  0.91181  1.0000
  C   C2688     1.0  0.69394  0.32954  0.87020  1.0000
  C   C2689     1.0  0.69591  0.32069  0.85555  1.0000
  C   C2690     1.0  0.88134  0.45963  0.98947  1.0000
  C   C2691     1.0  0.99113  0.44269  0.94375  1.0000
  C   C2692     1.0  0.96431  0.42445  0.83693  1.0000
  C   C2693     1.0  0.79611  0.43616  0.75695  1.0000
  H   H2136     1.0  0.75040  0.27337  0.86355  1.0000
  H   H2137     1.0  0.79670  0.30428  0.86865  1.0000
  H   H2138     1.0  0.80784  0.34669  0.88131  1.0000
  H   H2139     1.0  0.77345  0.35899  0.88828  1.0000
  H   H2140     1.0  0.71535  0.28477  0.87100  1.0000
  H   H2141     1.0  0.71596  0.35427  0.91573  1.0000
  H   H2142     1.0  0.73453  0.40030  0.92446  1.0000
  H   H2143     1.0  0.75839  0.43617  0.90647  1.0000
  H   H2144     1.0  0.76352  0.42600  0.87955  1.0000
  H   H2145     1.0  0.74517  0.38044  0.87071  1.0000
  C   C2694     1.0  0.72965  0.29142  0.77695  1.0000
  C   C2695     1.0  0.66346  0.42184  0.74374  1.0000
  C   C2696     1.0  0.80899  0.45845  0.93430  1.0000
  H   H2146     1.0  0.89842  0.45584  0.91948  1.0000
  C   C2697     1.0  0.79054  0.36146  0.98747  1.0000
  C   C2698     1.0  0.67930  0.32076  0.84385  1.0000
  H   H2147     1.0  0.67174  0.33821  0.97559  1.0000
  H   H2148     1.0  0.70696  0.46970  0.74501  1.0000
  H   H2149     1.0  0.73700  0.38829  0.98923  1.0000
  H   H2150     1.0  0.97632  0.40323  0.89079  1.0000
  C   C2699     1.0  0.66906  0.21881  0.82242  1.0000
  C   C2700     1.0  0.81078  0.41564  0.99048  1.0000
  H   H2151     1.0  0.98134  0.42859  0.85919  1.0000
  C   C2701     1.0  0.98579  0.42408  0.89290  1.0000
  H   H2152     1.0  0.98134  0.42529  0.83118  1.0000
  H   H2153     1.0  0.66382  0.25302  0.93004  1.0000
  H   H2154     1.0  0.81927  0.43676  0.99133  1.0000
  C   C2702     1.0  0.67345  0.26844  0.92185  1.0000
  H   H2155     1.0  0.66342  0.30328  0.95646  1.0000
  C   C2703     1.0  0.67237  0.30856  0.74969  1.0000
  C   C2704     1.0  0.67209  0.32472  0.77975  1.0000
  H   H2156     1.0  0.67154  0.33067  0.79143  1.0000
  C   C2705     1.0  0.66634  0.23259  0.86307  1.0000
  H   H2157     1.0  0.73347  0.49751  0.97135  1.0000
  C   C2706     1.0  0.74593  0.49650  0.98033  1.0000
  C   C2707     1.0  0.66347  0.25566  0.81316  1.0000
  H   H2158     1.0  0.66504  0.38479  0.74344  1.0000
  H   H2159     1.0  0.99502  0.38668  0.93543  1.0000
  C   C2708     1.0  0.66538  0.33670  0.76790  1.0000
  C   C2709     1.0  0.66562  0.32872  0.75287  1.0000
  C   C2710     1.0  0.91797  0.58660  0.15694  1.0000
  C   C2711     1.0  0.87696  0.59661  0.21434  1.0000
  S   S355      1.0  0.83525  0.53605  0.13261  1.0000
  H   H2160     1.0  0.81670  0.59771  0.13821  1.0000
  C   C2712     1.0  0.78982  0.51207  0.20849  1.0000
  H   H2161     1.0  0.78157  0.60523  0.15022  1.0000
  C   C2713     1.0  0.95072  0.56839  0.01043  1.0000
  S   S356      1.0  0.83445  0.53689  0.22270  1.0000
  C   C2714     1.0  0.77469  0.56938  0.00326  1.0000
  S   S357      1.0  0.79225  0.52913  0.16828  1.0000
  C   C2715     1.0  0.82612  0.53248  0.24221  1.0000
  Fe  Fe179     1.0  0.85056  0.55279  0.04202  1.0000
  S   S358      1.0  0.86745  0.59663  0.04218  1.0000
  S   S359      1.0  0.82562  0.52392  0.06016  1.0000
  Fe  Fe180     1.0  0.86648  0.55217  0.00871  1.0000
  S   S360      1.0  0.88461  0.59580  0.00692  1.0000
  H   H2162     1.0  0.86254  0.53444  0.19038  1.0000
  Fe  Fe181     1.0  0.90228  0.59616  0.02995  1.0000
  S   S361      1.0  0.94513  0.61899  0.03847  1.0000
  Fe  Fe182     1.0  0.84817  0.59181  0.01894  1.0000
  S   S362      1.0  0.82367  0.61128  0.00949  1.0000
  S   S363      1.0  0.88576  0.55224  0.03098  1.0000
  S   S364      1.0  0.82976  0.54837  0.01957  1.0000
  H   H2163     1.0  0.87698  0.50560  0.01244  1.0000
  C   C2716     1.0  0.97822  0.58277  0.06626  1.0000
  H   H2164     1.0  0.92869  0.58494  0.99874  1.0000
  H   H2165     1.0  0.74573  0.52470  0.19853  1.0000
  C   C2717     1.0  0.97762  0.63408  0.03084  1.0000
  C   C2718     1.0  0.98299  0.50398  0.03929  1.0000
  H   H2166     1.0  0.84646  0.58786  0.15374  1.0000
  Fe  Fe183     1.0  0.80453  0.50943  0.18794  1.0000
  C   C2719     1.0  0.82814  0.52850  0.08025  1.0000
  C   C2720     1.0  0.92201  0.60591  0.16785  1.0000
  C   C2721     1.0  0.86141  0.62607  0.20388  1.0000
  C   C2722     1.0  0.83156  0.53304  0.11247  1.0000
  C   C2723     1.0  0.85165  0.55072  0.10327  1.0000
  C   C2724     1.0  0.84991  0.54859  0.08725  1.0000
  H   H2167     1.0  0.90491  0.61944  0.18524  1.0000
  C   C2725     1.0  0.83174  0.59148  0.15946  1.0000
  H   H2168     1.0  0.86874  0.56615  0.10854  1.0000
  H   H2169     1.0  0.86557  0.56228  0.08033  1.0000
  C   C2726     1.0  0.79156  0.59589  0.00122  1.0000
  H   H2170     1.0  0.96641  0.63229  0.00733  1.0000
  H   H2171     1.0  0.95305  0.58012  0.02053  1.0000
  C   C2727     1.0  0.68969  0.49920  0.22784  1.0000
  C   C2728     1.0  0.89339  0.56529  0.15535  1.0000
  H   H2172     1.0  0.87962  0.57909  0.21351  1.0000
  H   H2173     1.0  0.79530  0.61069  0.23109  1.0000
  C   C2729     1.0  0.79491  0.60124  0.15726  1.0000
  H   H2174     1.0  0.67905  0.51710  0.02752  1.0000
  C   C2730     1.0  0.90144  0.60394  0.17713  1.0000
  C   C2731     1.0  0.87247  0.64308  0.21623  1.0000
  C   C2732     1.0  0.88552  0.63673  0.22771  1.0000
  C   C2733     1.0  0.95806  0.53595  0.99632  1.0000
  H   H2175     1.0  0.94099  0.62261  0.16894  1.0000
  C   C2734     1.0  0.96837  0.51117  0.02916  1.0000
  H   H2176     1.0  0.88991  0.55062  0.14661  1.0000
  H   H2177     1.0  0.77670  0.60305  0.17826  1.0000
  H   H2178     1.0  0.94537  0.58177  0.07859  1.0000
  C   C2735     1.0  0.87668  0.58242  0.17568  1.0000
  H   H2179     1.0  0.92650  0.53346  0.03857  1.0000
  C   C2736     1.0  0.87290  0.56321  0.16469  1.0000
  H   H2180     1.0  0.68494  0.50379  0.05348  1.0000
  H   H2181     1.0  0.87119  0.66136  0.21681  1.0000
  H   H2182     1.0  0.85231  0.63193  0.19488  1.0000
  H   H2183     1.0  0.79523  0.55177  0.20159  1.0000
  C   C2737     1.0  0.88796  0.61360  0.22668  1.0000
  H   H2184     1.0  0.93373  0.58833  0.14955  1.0000
  C   C2738     1.0  0.80385  0.53856  0.20103  1.0000
  H   H2185     1.0  0.78118  0.55749  0.00985  1.0000
  H   H2186     1.0  0.89409  0.64988  0.23728  1.0000
  C   C2739     1.0  0.72845  0.53469  0.21767  1.0000
  C   C2740     1.0  0.86285  0.60224  0.20308  1.0000
  C   C2741     1.0  0.81474  0.59710  0.15049  1.0000
  H   H2187     1.0  0.80666  0.59333  0.19428  1.0000
  C   C2742     1.0  0.79216  0.59993  0.17305  1.0000
  C   C2743     1.0  0.82891  0.58966  0.17537  1.0000
  P   P90       1.0  0.97741  0.54531  0.02611  1.0000
  C   C2744     1.0  0.84293  0.52843  0.19443  1.0000
  C   C2745     1.0  0.83064  0.54698  0.19389  1.0000
  C   C2746     1.0  0.80907  0.59419  0.18208  1.0000
  H   H2188     1.0  0.85383  0.54698  0.16302  1.0000
  P   P91       1.0  0.84948  0.58025  0.18701  1.0000
  H   H2189     1.0  0.74233  0.55516  0.21760  1.0000
  H   H2190     1.0  0.77157  0.50671  0.21426  1.0000
  H   H2191     1.0  0.70573  0.53885  0.23599  1.0000
  C   C2747     1.0  0.80951  0.51331  0.10548  1.0000
  H   H2192     1.0  0.91249  0.54960  0.06116  1.0000
  C   C2748     1.0  0.74908  0.55835  0.99713  1.0000
  C   C2749     1.0  0.93693  0.57128  0.99803  1.0000
  C   C2750     1.0  0.98631  0.57371  0.05350  1.0000
  Fe  Fe184     1.0  0.80701  0.51057  0.15069  1.0000
  C   C2751     1.0  0.96087  0.55023  0.00980  1.0000
  C   C2752     1.0  0.80796  0.51090  0.08947  1.0000
  H   H2193     1.0  0.73614  0.53805  0.99914  1.0000
  C   C2753     1.0  0.93310  0.55610  0.05909  1.0000
  H   H2194     1.0  0.96618  0.52226  0.99547  1.0000
  C   C2754     1.0  0.95164  0.57418  0.06896  1.0000
  C   C2755     1.0  0.94111  0.54713  0.04627  1.0000
  C   C2756     1.0  0.73063  0.51751  0.20710  1.0000
  C   C2757     1.0  0.70795  0.52550  0.22805  1.0000
  C   C2758     1.0  0.96777  0.55643  0.04314  1.0000
  H   H2195     1.0  0.99258  0.59689  0.07389  1.0000
  C   C2759     1.0  0.98260  0.63835  0.01526  1.0000
  C   C2760     1.0  0.82884  0.50186  0.20181  1.0000
  H   H2196     1.0  0.89839  0.60874  0.23543  1.0000
  C   C2761     1.0  0.78354  0.59573  0.23907  1.0000
  H   H2197     1.0  0.80961  0.57785  0.23956  1.0000
  H   H2198     1.0  0.79377  0.49980  0.11240  1.0000
  H   H2199     1.0  0.99574  0.63931  0.05295  1.0000
  H   H2200     1.0  0.75433  0.60945  0.24113  1.0000
  Fe  Fe185     1.0  0.87899  0.54152  0.47294  1.0000
  S   S365      1.0  0.87824  0.58009  0.47580  1.0000
  C   C2762     1.0  0.80179  0.50749  0.26416  1.0000
  Fe  Fe186     1.0  0.86213  0.53593  0.43953  1.0000
  S   S366      1.0  0.85968  0.57383  0.44001  1.0000
  C   C2763     1.0  0.68020  0.50183  0.26831  1.0000
  Fe  Fe187     1.0  0.89838  0.58945  0.45295  1.0000
  S   S367      1.0  0.93455  0.62589  0.44490  1.0000
  Fe  Fe188     1.0  0.83981  0.56108  0.46285  1.0000
  H   H2201     1.0  0.66656  0.61452  0.45131  1.0000
  S   S368      1.0  0.90121  0.55187  0.45117  1.0000
  S   S369      1.0  0.84030  0.52205  0.46120  1.0000
  H   H2202     1.0  0.93951  0.58107  0.35920  1.0000
  C   C2764     1.0  0.72869  0.58266  0.45342  1.0000
  C   C2765     1.0  0.79958  0.50225  0.38078  1.0000
  H   H2203     1.0  0.70997  0.51822  0.30330  1.0000
  C   C2766     1.0  0.97199  0.55371  0.43188  1.0000
  C   C2767     1.0  0.69128  0.57187  0.46958  1.0000
  C   C2768     1.0  0.98800  0.61443  0.38999  1.0000
  C   C2769     1.0  0.78331  0.56512  0.30938  1.0000
  C   C2770     1.0  0.81699  0.52834  0.27390  1.0000
  C   C2771     1.0  0.83645  0.55112  0.26773  1.0000
  C   C2772     1.0  0.98655  0.64621  0.43639  1.0000
  H   H2204     1.0  0.84819  0.56738  0.27513  1.0000
  C   C2773     1.0  0.96863  0.63617  0.44841  1.0000
  H   H2205     1.0  0.93764  0.62202  0.37381  1.0000
  C   C2774     1.0  0.96215  0.60837  0.38587  1.0000
  C   C2775     1.0  0.89334  0.50974  0.37026  1.0000
  C   C2776     1.0  0.90495  0.52861  0.38169  1.0000
  C   C2777     1.0  0.74533  0.57568  0.25506  1.0000
  C   C2778     1.0  0.81715  0.51787  0.40622  1.0000
  H   H2206     1.0  0.95680  0.54157  0.39433  1.0000
  S   S370      1.0  0.81194  0.52816  0.29371  1.0000
  H   H2207     1.0  0.68674  0.51609  0.41397  1.0000
  C   C2779     1.0  0.73038  0.53174  0.30480  1.0000
  H   H2208     1.0  0.81773  0.52881  0.41641  1.0000
  C   C2780     1.0  0.96979  0.54273  0.41738  1.0000
  C   C2781     1.0  0.70021  0.52573  0.27342  1.0000
  H   H2209     1.0  0.96519  0.63074  0.47260  1.0000
  C   C2782     1.0  0.89833  0.51660  0.35498  1.0000
  C   C2783     1.0  0.75313  0.55684  0.25976  1.0000
  P   P92       1.0  0.73396  0.53159  0.27312  1.0000
  H   H2210     1.0  0.78684  0.56501  0.28519  1.0000
  C   C2784     1.0  0.94696  0.56704  0.40835  1.0000
  C   C2785     1.0  0.83366  0.50599  0.40491  1.0000
  C   C2786     1.0  0.74812  0.50032  0.44254  1.0000
  H   H2211     1.0  0.94137  0.59135  0.42535  1.0000
  H   H2212     1.0  0.77467  0.56057  0.33330  1.0000
  H   H2213     1.0  0.73227  0.51882  0.45773  1.0000
  C   C2787     1.0  0.96016  0.56914  0.48197  1.0000
  C   C2788     1.0  0.72831  0.50604  0.44791  1.0000
  C   C2789     1.0  0.95742  0.54944  0.40563  1.0000
  H   H2214     1.0  0.97430  0.66329  0.36570  1.0000
  C   C2790     1.0  0.69341  0.53849  0.45334  1.0000
  C   C2791     1.0  0.97854  0.63771  0.46317  1.0000
  H   H2215     1.0  0.74780  0.59666  0.44961  1.0000
  H   H2216     1.0  0.69002  0.50828  0.47941  1.0000
  H   H2217     1.0  0.97820  0.52950  0.41516  1.0000
  H   H2218     1.0  0.78350  0.54441  0.25805  1.0000
  C   C2792     1.0  0.96158  0.57114  0.43467  1.0000
  H   H2219     1.0  0.80405  0.57714  0.31115  1.0000
  C   C2793     1.0  0.84121  0.55300  0.25209  1.0000
  H   H2220     1.0  0.76711  0.50897  0.44810  1.0000
  H   H2221     1.0  0.74848  0.52537  0.48543  1.0000
  H   H2222     1.0  0.72776  0.55193  0.43909  1.0000
  H   H2223     1.0  0.95146  0.51532  0.48575  1.0000
  H   H2224     1.0  0.85808  0.61184  0.40932  1.0000
  C   C2794     1.0  0.77342  0.55808  0.29459  1.0000
  C   C2795     1.0  0.69356  0.54415  0.28023  1.0000
  S   S371      1.0  0.77791  0.50031  0.36598  1.0000
  C   C2796     1.0  0.76678  0.55566  0.32185  1.0000
  H   H2225     1.0  0.87727  0.55504  0.38855  1.0000
  S   S372      1.0  0.79748  0.54994  0.46997  1.0000
  H   H2226     1.0  0.96343  0.57997  0.44584  1.0000
  H   H2227     1.0  0.98266  0.51537  0.45691  1.0000
  H   H2228     1.0  0.90443  0.63829  0.41697  1.0000
  C   C2797     1.0  0.71740  0.55712  0.44767  1.0000
  C   C2798     1.0  0.95741  0.62611  0.37697  1.0000
  C   C2799     1.0  0.80004  0.51586  0.39420  1.0000
  H   H2229     1.0  0.78740  0.52523  0.39522  1.0000
  H   H2230     1.0  0.72757  0.57552  0.25923  1.0000
  C   C2800     1.0  0.98507  0.57083  0.48010  1.0000
  C   C2801     1.0  0.77668  0.55820  0.25427  1.0000
  C   C2802     1.0  0.91513  0.54231  0.35111  1.0000
  C   C2803     1.0  0.75531  0.54621  0.48657  1.0000
  H   H2231     1.0  0.88887  0.50204  0.34613  1.0000
  H   H2232     1.0  0.91873  0.54763  0.33923  1.0000
  H   H2233     1.0  0.70862  0.56237  0.28472  1.0000
  C   C2804     1.0  0.74686  0.54131  0.29217  1.0000
  H   H2234     1.0  0.93750  0.62416  0.40987  1.0000
  H   H2235     1.0  0.69183  0.63079  0.47535  1.0000
  H   H2236     1.0  0.72760  0.53120  0.32924  1.0000
  H   H2237     1.0  0.74061  0.50982  0.24387  1.0000
  H   H2238     1.0  0.72495  0.60944  0.46938  1.0000
  H   H2239     1.0  0.90011  0.52320  0.39349  1.0000
  H   H2240     1.0  0.94370  0.55494  0.47552  1.0000
  H   H2241     1.0  0.99240  0.60144  0.39698  1.0000
  C   C2805     1.0  0.97813  0.64953  0.37236  1.0000
  C   C2806     1.0  0.92191  0.55451  0.37789  1.0000
  H   H2242     1.0  0.98210  0.54910  0.44089  1.0000
  P   P93       1.0  0.93496  0.57911  0.39271  1.0000
  C   C2807     1.0  0.92688  0.56124  0.36250  1.0000
  H   H2243     1.0  0.80688  0.60367  0.47745  1.0000
  C   C2808     1.0  0.74028  0.53907  0.31955  1.0000
  C   C2809     1.0  0.79163  0.57731  0.24384  1.0000
  C   C2810     1.0  0.94901  0.57764  0.42298  1.0000
  H   H2244     1.0  0.84488  0.57027  0.39509  1.0000
  S   S373      1.0  0.85580  0.50849  0.41954  1.0000
  C   C2811     1.0  0.67068  0.62198  0.47544  1.0000
  C   C2812     1.0  0.80612  0.50966  0.24825  1.0000
  C   C2813     1.0  0.91011  0.58848  0.39864  1.0000
  C   C2814     1.0  0.91736  0.61210  0.40656  1.0000
  C   C2815     1.0  0.89866  0.62042  0.41043  1.0000
  C   C2816     1.0  0.87258  0.60547  0.40619  1.0000
  C   C2817     1.0  0.86514  0.58198  0.39828  1.0000
  C   C2818     1.0  0.88374  0.57338  0.39459  1.0000
  C   C2819     1.0  0.71573  0.58996  0.46446  1.0000
  H   H2245     1.0  0.97932  0.64564  0.42495  1.0000
  C   C2820     1.0  0.99583  0.50852  0.46168  1.0000
  C   C2821     1.0  0.77971  0.56333  0.48049  1.0000
  C   C2822     1.0  0.78830  0.59023  0.48214  1.0000
  P   P94       1.0  0.67915  0.50509  0.44662  1.0000
  C   C2823     1.0  0.76046  0.59498  0.24472  1.0000
  H   H2246     1.0  0.85670  0.57064  0.24762  1.0000
  C   C2824     1.0  0.73494  0.50144  0.26797  1.0000
  H   H2247     1.0  0.98779  0.55783  0.47213  1.0000
  S   S374      1.0  0.89281  0.52481  0.49214  1.0000
  C   C2825     1.0  0.77234  0.59981  0.48940  1.0000
  C   C2826     1.0  0.67996  0.54632  0.46391  1.0000
  H   H2248     1.0  0.68154  0.57747  0.47837  1.0000
  H   H2249     1.0  0.77894  0.62065  0.49030  1.0000
  C   C2827     1.0  0.66634  0.50991  0.41649  1.0000
  C   C2828     1.0  0.66736  0.53877  0.28184  1.0000
  H   H2250     1.0  0.70393  0.49814  0.37213  1.0000
  C   C2829     1.0  0.95632  0.58575  0.49223  1.0000
  C   C2830     1.0  0.94946  0.51278  0.51003  1.0000
  C   C2831     1.0  0.85893  0.58226  0.51164  1.0000
  H   H2251     1.0  0.68458  0.52915  0.62559  1.0000
  H   H2252     1.0  0.75687  0.54838  0.55750  1.0000
  C   C2832     1.0  0.72691  0.51604  0.54540  1.0000
  H   H2253     1.0  0.70491  0.53885  0.60001  1.0000
  H   H2254     1.0  0.79307  0.54975  0.51479  1.0000
  C   C2833     1.0  0.67364  0.53063  0.61589  1.0000
  H   H2255     1.0  0.88559  0.56574  0.51549  1.0000
  H   H2256     1.0  0.79408  0.50010  0.55946  1.0000
  C   C2834     1.0  0.81968  0.53338  0.52031  1.0000
  S   S375      1.0  0.68390  0.59344  0.53835  1.0000
  C   C2835     1.0  0.86544  0.56244  0.51586  1.0000
  C   C2836     1.0  0.68513  0.53620  0.60140  1.0000
  Fe  Fe189     1.0  0.69022  0.57454  0.51708  1.0000
  H   H2257     1.0  0.68687  0.70893  0.56794  1.0000
  H   H2258     1.0  0.78584  0.50199  0.72587  1.0000
  C   C2837     1.0  0.84592  0.53806  0.52015  1.0000
  H   H2259     1.0  0.87405  0.60107  0.50817  1.0000
  H   H2260     1.0  0.72790  0.52794  0.71565  1.0000
  C   C2838     1.0  0.67136  0.53862  0.58873  1.0000
  H   H2261     1.0  0.71132  0.51999  0.54973  1.0000
  C   C2839     1.0  0.94982  0.50318  0.49544  1.0000
  H   H2262     1.0  0.82763  0.59254  0.50745  1.0000
  H   H2263     1.0  0.70433  0.50092  0.61639  1.0000
  H   H2264     1.0  0.67842  0.73735  0.54981  1.0000
  S   S376      1.0  0.66866  0.51381  0.71214  1.0000
  S   S377      1.0  0.68360  0.51884  0.66875  1.0000
  H   H2265     1.0  0.85148  0.52293  0.52306  1.0000
  C   C2840     1.0  0.75266  0.53204  0.54983  1.0000
  H   H2266     1.0  0.93694  0.58438  0.49361  1.0000
  S   S378      1.0  0.68689  0.54541  0.57078  1.0000
  H   H2267     1.0  0.79288  0.54041  0.54740  1.0000
  C   C2841     1.0  0.83281  0.57751  0.51129  1.0000
  H   H2268     1.0  0.95024  0.53192  0.51146  1.0000
  Fe  Fe190     1.0  0.67069  0.55374  0.54887  1.0000
  C   C2842     1.0  0.81323  0.55316  0.51553  1.0000
  H   H2269     1.0  0.97450  0.61740  0.50831  1.0000
  H   H2270     1.0  0.79474  0.51349  0.49320  1.0000
  C   C2843     1.0  0.77295  0.52744  0.54409  1.0000
  S   S379      1.0  0.72776  0.59594  0.50343  1.0000
  H   H2271     1.0  0.77285  0.53761  0.72409  1.0000
  C   C2844     1.0  0.74782  0.58272  0.49533  1.0000
  H   H2272     1.0  0.66865  0.62641  0.49969  1.0000
  P   P95       1.0  0.79421  0.50196  0.52580  1.0000
  C   C2845     1.0  0.76761  0.50668  0.53386  1.0000
  H   H2273     1.0  0.94677  0.50467  0.53402  1.0000
  S   S380      1.0  0.67942  0.53600  0.52810  1.0000
  C   C2846     1.0  0.97745  0.60423  0.50055  1.0000
  C   C2847     1.0  0.66701  0.70545  0.56552  1.0000
  H   H2274     1.0  0.72080  0.54242  0.49854  1.0000
  H   H2275     1.0  0.68379  0.57076  0.73674  1.0000
  C   C2848     1.0  0.73955  0.55580  0.49404  1.0000
  C   C2849     1.0  0.75895  0.51778  0.72120  1.0000
  C   C2850     1.0  0.73374  0.51241  0.71646  1.0000
  H   H2276     1.0  0.71484  0.54475  0.92957  1.0000
  C   C2851     1.0  0.74575  0.55591  0.94618  1.0000
  H   H2277     1.0  0.83818  0.53635  0.94414  1.0000
  H   H2278     1.0  0.94074  0.52660  0.97390  1.0000
  H   H2279     1.0  0.80506  0.56070  0.98140  1.0000
  H   H2280     1.0  0.77633  0.56231  0.96205  1.0000
  H   H2281     1.0  0.68501  0.50342  0.89855  1.0000
  C   C2852     1.0  0.87026  0.50255  0.98826  1.0000
  H   H2282     1.0  0.73178  0.53633  0.77456  1.0000
  S   S381      1.0  0.86375  0.52958  0.98707  1.0000
  C   C2853     1.0  0.84437  0.58661  0.97543  1.0000
  S   S382      1.0  0.68821  0.60335  0.95084  1.0000
  C   C2854     1.0  0.68925  0.62779  0.89480  1.0000
  H   H2283     1.0  0.69552  0.55353  0.88064  1.0000
  H   H2284     1.0  0.74468  0.57369  0.94946  1.0000
  Fe  Fe191     1.0  0.68076  0.56919  0.96620  1.0000
  S   S383      1.0  0.70683  0.55828  0.98183  1.0000
  C   C2855     1.0  0.82092  0.56386  0.97376  1.0000
  H   H2285     1.0  0.70301  0.50865  0.79476  1.0000
  C   C2856     1.0  0.67524  0.54966  0.88068  1.0000
  C   C2857     1.0  0.86305  0.57268  0.95483  1.0000
  Fe  Fe192     1.0  0.66836  0.57267  0.93250  1.0000
  H   H2286     1.0  0.88377  0.60836  0.96768  1.0000
  C   C2858     1.0  0.71991  0.51567  0.77248  1.0000
  C   C2859     1.0  0.75690  0.59979  0.98636  1.0000
  H   H2287     1.0  0.70743  0.62706  0.89739  1.0000
  C   C2860     1.0  0.67542  0.61601  0.88152  1.0000
  H   H2288     1.0  0.73393  0.51659  0.74977  1.0000
  H   H2289     1.0  0.66737  0.53267  0.85803  1.0000
  H   H2290     1.0  0.71572  0.50296  0.92302  1.0000
  H   H2291     1.0  0.87956  0.57587  0.94773  1.0000
  H   H2292     1.0  0.92157  0.55772  0.97558  1.0000
  C   C2861     1.0  0.76383  0.54934  0.95329  1.0000
  H   H2293     1.0  0.84631  0.60080  0.98413  1.0000
  H   H2294     1.0  0.75024  0.61177  0.97998  1.0000
  C   C2862     1.0  0.94393  0.53859  0.98400  1.0000
  C   C2863     1.0  0.76502  0.52604  0.94945  1.0000
  C   C2864     1.0  0.83944  0.55014  0.95289  1.0000
  C   C2865     1.0  0.81809  0.54556  0.96234  1.0000
  C   C2866     1.0  0.86548  0.59095  0.96607  1.0000
  H   H2295     1.0  0.79209  0.50709  0.92721  1.0000
  H   H2296     1.0  0.68307  0.60637  0.87378  1.0000
  H   H2297     1.0  0.80907  0.51079  0.98869  1.0000
  P   P96       1.0  0.78721  0.51686  0.95963  1.0000
  S   S384      1.0  0.68555  0.57109  0.90951  1.0000
  C   C2867     1.0  0.72869  0.53939  0.93511  1.0000
  C   C2868     1.0  0.73988  0.57343  0.98871  1.0000
  C   C2869     1.0  0.66499  0.55625  0.89360  1.0000
  C   C2870     1.0  0.77272  0.50473  0.97796  1.0000
  C   C2871     1.0  0.99211  0.51079  0.96098  1.0000
  C   C2872     1.0  0.70361  0.50005  0.78385  1.0000
  C   C2873     1.0  0.72110  0.50452  0.75853  1.0000
  H   H2298     1.0  0.69014  0.64911  0.91521  1.0000
  C   C2874     1.0  0.67939  0.64000  0.90489  1.0000
  C   C2875     1.0  0.72928  0.51590  0.93143  1.0000
  C   C2876     1.0  0.74708  0.50904  0.93871  1.0000
  C   C2877     1.0  0.93321  0.55614  0.98491  1.0000
  H   H2299     1.0  0.66402  0.51088  0.76790  1.0000
  C   C2878     1.0  0.78828  0.50393  0.99012  1.0000
  H   H2300     1.0  0.66356  0.51208  0.92060  1.0000
  H   H2301     1.0  0.79517  0.63145  0.99102  1.0000
  C   C2879     1.0  0.66581  0.51014  0.74330  1.0000
  H   H2302     1.0  0.68681  0.52119  0.74304  1.0000
  H   H2303     1.0  0.99549  0.52081  0.95024  1.0000
  H   H2304     1.0  0.66357  0.56357  0.76227  1.0000
  C   C2880     1.0  0.78244  0.61092  0.99267  1.0000
