data_image0
_chemical_formula_structural       FeC2FeS2FeSFeCS2FeS2FeSFeSFeCS2C5HCHC3H2C6H4CHCH2C4HCH2SCH3CHC2H4C2HC3H4CHCH5CHC2HCHC2HC3PC15HCH4CH5CHCH3C3H4CHCHC2H2CH2CH2C4HCHCHCHSHCHC2HCHSCH2C2HC2H2CFeS2CHSHFeSCFeS2CHC7FeCHSHCHCHFeCHCSH3CPC2H4CHC6H2CHC5HC2SPC2H5CSHC2HC3HC2HSC5HFeCH6C2H3C3HCH3CH3CH2C4H2C4H2SH3C3H2SCHCHCHC2H2SCH6CHC3HC2HCHCH5CHC7HCH3C2H4CHCH4SCHCH2CHSHCHC4PC4H2C3HC7HCHC2HCHC3HCHPCH2C2H2CFeCHCH2C6HCHCSC2HC4HC2HCH2FePC3SC2SH2CSHSH3CH3FeHC2PCH5C2H3C2HCHC2H2C4H2CPSCS2C2HC3HC5HC2HC4Fe2H2CHC2HC9HC2H3C3HCHCHCH2CHCH4C4H2C2HCHCHC2HCFeC2HCHC8H2CHCHC2PHC4H3C2H3CHPC3HCHPCH2SCH2C3FeS2H2SH2SC2FeHCH3CH2CHPFeHC4SHC2HC5FeC3HCSCHSC2H2C3H5PC2H5C3H2C2H2C2HCH2C4H2CSH3C3HCH3C4HC2HCH2C2HC2H3FeSHFeS2FeSFeHSFeS2FeCSFeCFeS3C5HCHCH2C6H4S2H4C2HC7PC2PCSC3HCHC6H6CSH2CHCH2CH2C6H3CH2C2HCH2C2HCH3CHCH4C2HC3H2CHC4SC3HCHC2HC4HPCH3C4H3CHC2SH2C2H2CH2CH4CH2C3FeH2FeS2CHFeCS2FeS2FeSFeSFeCS2CHCHC3H6C6H6C2SCH3C5SCHCHC3HC2HPC21HC3H3CH6CH2C2HCPCH6CH2CPCH2CFeH4CHC3HCHCHCH2CHC4HC4HC3HCH3C6H2C5H3SHCH3CHC2HSH2FeS2CHSCFeSCFeHSC3SH2CHC3SHC2HCHC3HSHCH3C2H2C4H2CHCHCHC2HC3HCHCH6C3H2CSHC3FeHFeH2CHCPCHC2PC4SC2H2CH3SCH4C3HC2H4C2HC4H3CSCH2C2FeC2H4CPC3HCHCHC7HC3H3CHC2H4CHCH2C4H2CFeCHPCHCH2SCHFeHC4HCH2CH3CHCSH2CH2CH2C2H5C2SHCSC2HSCHC2FeC2HCH2C4H2CH2C2H2FeSC2FeC2SH4CHC2SCHCHCFeH3C6H2C2H2CHC3SC6HCHPHCPC4H3C2HCHC2SCH4C3PCH2CH2C2HCH4C3PFeHC2HCHC2H3C2HC2HC2HC3HCH2CH2C5H2CHC2SCHCFeS2HCSC2SC2FeH2S2HCPC3HC4HCHCHCHCHC3HCH2CHCHC6HC3H3SFePC3H5C3H3CSH3C4HCH6C2HCSHCH3C2H2C4SC2HC2HSC2H2CH2C3HC2FeSHFeHSFeSCHSFeS2FeCSFeHFeS3H3C2HC2H3C6H5C2HCHPHCHCH2C6PC3H3C12H6C3HC3H7CSCH2C2H2C3HC2SHC2H2CHC4H5C6HC8H2C4H2CH4C4SH3CH2CHC4H3C2HSCH2FeCH2PCHCSHC4S
_chemical_formula_sum              "Fe64 C960 S128 H768 P32"
_cell_length_a       40.94
_cell_length_b       35.3651
_cell_length_c       40.8239
_cell_angle_alpha    90.0741
_cell_angle_beta     89.9114
_cell_angle_gamma    90.1871

_space_group_name_H-M_alt    "P 1"
_space_group_IT_number       1

loop_
  _space_group_symop_operation_xyz
  'x, y, z'

loop_
  _atom_site_type_symbol
  _atom_site_label
  _atom_site_symmetry_multiplicity
  _atom_site_fract_x
  _atom_site_fract_y
  _atom_site_fract_z
  _atom_site_occupancy
  Fe  Fe1       1.0  0.46057  0.02682  0.15509  1.0000
  C   C1        1.0  0.42823  0.36694  0.25528  1.0000
  C   C2        1.0  0.15035  0.38725  0.14730  1.0000
  Fe  Fe2       1.0  0.41886  0.09454  0.12979  1.0000
  S   S1        1.0  0.37917  0.05529  0.11261  1.0000
  S   S2        1.0  0.41853  0.15953  0.12340  1.0000
  Fe  Fe3       1.0  0.38567  0.02562  0.16129  1.0000
  S   S3        1.0  0.34294  0.02052  0.19795  1.0000
  Fe  Fe4       1.0  0.41980  0.01771  0.09291  1.0000
  C   C3        1.0  0.16234  0.41939  0.08601  1.0000
  S   S4        1.0  0.42468  0.06627  0.17897  1.0000
  S   S5        1.0  0.45903  0.05884  0.10727  1.0000
  Fe  Fe5       1.0  0.30066  0.35347  0.12874  1.0000
  S   S6        1.0  0.32527  0.40154  0.10175  1.0000
  S   S7        1.0  0.30753  0.28844  0.12790  1.0000
  Fe  Fe6       1.0  0.25320  0.40839  0.16381  1.0000
  S   S8        1.0  0.21111  0.40232  0.20087  1.0000
  Fe  Fe7       1.0  0.27476  0.42562  0.09243  1.0000
  S   S9        1.0  0.26333  0.45771  0.04390  1.0000
  Fe  Fe8       1.0  0.32387  0.43298  0.15011  1.0000
  C   C4        1.0  0.27391  0.43558  0.26126  1.0000
  S   S10       1.0  0.25019  0.37549  0.11644  1.0000
  S   S11       1.0  0.30220  0.38379  0.17738  1.0000
  C   C5        1.0  0.13675  0.44436  0.25682  1.0000
  C   C6        1.0  0.39202  0.47822  0.20078  1.0000
  C   C7        1.0  0.18448  0.43467  0.22114  1.0000
  C   C8        1.0  0.45398  0.39372  0.20705  1.0000
  C   C9        1.0  0.42174  0.22166  0.20591  1.0000
  H   H1        1.0  0.05345  0.46437  0.22304  1.0000
  C   C10       1.0  0.42046  0.29239  0.17559  1.0000
  H   H2        1.0  0.28264  0.17129  0.26915  1.0000
  C   C11       1.0  0.16403  0.36541  0.12231  1.0000
  C   C12       1.0  0.42200  0.00696  0.25467  1.0000
  C   C13       1.0  0.45725  0.00218  0.30199  1.0000
  H   H3        1.0  0.13300  0.44155  0.16191  1.0000
  H   H4        1.0  0.26523  0.37957  0.24288  1.0000
  C   C14       1.0  0.38677  0.19443  0.12289  1.0000
  C   C15       1.0  0.35396  0.18569  0.12918  1.0000
  C   C16       1.0  0.33018  0.21468  0.13007  1.0000
  C   C17       1.0  0.33866  0.25293  0.12495  1.0000
  C   C18       1.0  0.37127  0.26147  0.11765  1.0000
  C   C19       1.0  0.39500  0.23244  0.11648  1.0000
  H   H5        1.0  0.34690  0.15662  0.13355  1.0000
  H   H6        1.0  0.30497  0.20741  0.13488  1.0000
  H   H7        1.0  0.37824  0.29048  0.11297  1.0000
  H   H8        1.0  0.42008  0.23958  0.11086  1.0000
  C   C20       1.0  0.15801  0.42019  0.23939  1.0000
  H   H9        1.0  0.42306  0.19423  0.21749  1.0000
  C   C21       1.0  0.27612  0.14890  0.28606  1.0000
  H   H10       1.0  0.44045  0.15511  0.02284  1.0000
  H   H11       1.0  0.14677  0.37512  0.17141  1.0000
  C   C22       1.0  0.03089  0.00281  0.21413  1.0000
  C   C23       1.0  0.20917  0.44331  0.00300  1.0000
  C   C24       1.0  0.14279  0.42525  0.14180  1.0000
  C   C25       1.0  0.44741  0.26879  0.17135  1.0000
  H   H12       1.0  0.46650  0.30476  0.24450  1.0000
  C   C26       1.0  0.05276  0.05426  0.06356  1.0000
  H   H13       1.0  0.02036  0.02918  0.20618  1.0000
  H   H14       1.0  0.06348  0.02919  0.24893  1.0000
  S   S12       1.0  0.27496  0.45974  0.13950  1.0000
  C   C27       1.0  0.35658  0.12736  0.28170  1.0000
  H   H15       1.0  0.47517  0.40454  0.19419  1.0000
  H   H16       1.0  0.42106  0.26054  0.26978  1.0000
  H   H17       1.0  0.01430  0.37677  0.16128  1.0000
  C   C28       1.0  0.00862  0.43876  0.23949  1.0000
  H   H18       1.0  0.36801  0.04408  0.00670  1.0000
  C   C29       1.0  0.39954  0.47863  0.26003  1.0000
  C   C30       1.0  0.03655  0.42129  0.18950  1.0000
  H   H19       1.0  0.35327  0.11609  0.30614  1.0000
  H   H20       1.0  0.05659  0.42536  0.17249  1.0000
  H   H21       1.0  0.35654  0.18508  0.29779  1.0000
  H   H22       1.0  0.98974  0.09845  0.26239  1.0000
  C   C31       1.0  0.43785  0.02397  0.28116  1.0000
  C   C32       1.0  0.37547  0.09645  0.03263  1.0000
  H   H23       1.0  0.42176  0.40523  0.16654  1.0000
  C   C33       1.0  0.16998  0.38148  0.09164  1.0000
  C   C34       1.0  0.46546  0.41998  0.31061  1.0000
  C   C35       1.0  0.44787  0.23326  0.18620  1.0000
  H   H24       1.0  0.03393  0.05074  0.14473  1.0000
  H   H25       1.0  0.42960  0.35666  0.28019  1.0000
  H   H26       1.0  0.31746  0.25736  0.28986  1.0000
  H   H27       1.0  0.25888  0.05488  0.28670  1.0000
  C   C36       1.0  0.40021  0.26779  0.28484  1.0000
  H   H28       1.0  0.44873  0.43034  0.29224  1.0000
  C   C37       1.0  0.36847  0.25702  0.27555  1.0000
  H   H29       1.0  0.18131  0.36483  0.07244  1.0000
  H   H30       1.0  0.43504  0.05400  0.28555  1.0000
  H   H31       1.0  0.37630  0.35738  0.25177  1.0000
  H   H32       1.0  0.20345  0.42006  0.01915  1.0000
  H   H33       1.0  0.20823  0.47789  0.09082  1.0000
  C   C38       1.0  0.34208  0.26605  0.29614  1.0000
  H   H34       1.0  0.46739  0.27746  0.15561  1.0000
  C   C39       1.0  0.39587  0.38069  0.20721  1.0000
  C   C40       1.0  0.03473  0.44346  0.21782  1.0000
  H   H35       1.0  0.04836  0.25854  0.20517  1.0000
  C   C41       1.0  0.05565  0.00272  0.23816  1.0000
  H   H36       1.0  0.07548  0.44178  0.00785  1.0000
  C   C42       1.0  0.36201  0.11721  0.22337  1.0000
  C   C43       1.0  0.35806  0.10272  0.25492  1.0000
  H   H37       1.0  0.01158  0.20260  0.20521  1.0000
  C   C44       1.0  0.35851  0.16652  0.27682  1.0000
  C   C45       1.0  0.36245  0.18120  0.24507  1.0000
  C   C46       1.0  0.36460  0.15614  0.21847  1.0000
  P   P1        1.0  0.36168  0.23162  0.23768  1.0000
  C   C47       1.0  0.32211  0.24474  0.22137  1.0000
  C   C48       1.0  0.38128  0.46800  0.23215  1.0000
  C   C49       1.0  0.39610  0.12752  0.03720  1.0000
  C   C50       1.0  0.27160  0.11207  0.27448  1.0000
  C   C51       1.0  0.31150  0.28245  0.22313  1.0000
  C   C52       1.0  0.28040  0.29237  0.21194  1.0000
  C   C53       1.0  0.25985  0.26500  0.19838  1.0000
  C   C54       1.0  0.27016  0.22750  0.19639  1.0000
  C   C55       1.0  0.30107  0.21734  0.20787  1.0000
  C   C56       1.0  0.39435  0.24509  0.21009  1.0000
  C   C57       1.0  0.14194  0.48345  0.25663  1.0000
  C   C58       1.0  0.01263  0.39379  0.18331  1.0000
  C   C59       1.0  0.45642  0.38034  0.23931  1.0000
  C   C60       1.0  0.38318  0.06909  0.00918  1.0000
  C   C61       1.0  0.39391  0.28053  0.19464  1.0000
  H   H38       1.0  0.36268  0.09825  0.20250  1.0000
  C   C62       1.0  0.29186  0.45823  0.28302  1.0000
  H   H39       1.0  0.34312  0.39056  0.31281  1.0000
  H   H40       1.0  0.19985  0.06356  0.30257  1.0000
  H   H41       1.0  0.36756  0.16674  0.19374  1.0000
  H   H42       1.0  0.03624  0.09602  0.09830  1.0000
  C   C63       1.0  0.06109  0.01634  0.05864  1.0000
  H   H43       1.0  0.32727  0.30428  0.23290  1.0000
  H   H44       1.0  0.27234  0.32143  0.21279  1.0000
  H   H45       1.0  0.23632  0.27312  0.18857  1.0000
  H   H46       1.0  0.25454  0.20648  0.18504  1.0000
  H   H47       1.0  0.30838  0.18821  0.20538  1.0000
  C   C64       1.0  0.43198  0.10430  0.99411  1.0000
  H   H48       1.0  0.39059  0.47131  0.28415  1.0000
  C   C65       1.0  0.39806  0.36717  0.23927  1.0000
  H   H49       1.0  0.35887  0.45207  0.23495  1.0000
  H   H50       1.0  0.37297  0.29888  0.19671  1.0000
  H   H51       1.0  0.11670  0.43266  0.27088  1.0000
  C   C66       1.0  0.05982  0.99062  0.08481  1.0000
  C   C67       1.0  0.05004  0.00343  0.11585  1.0000
  C   C68       1.0  0.30487  0.38051  0.27762  1.0000
  H   H52       1.0  0.37250  0.38180  0.19487  1.0000
  H   H53       1.0  0.27474  0.10585  0.24862  1.0000
  H   H54       1.0  0.25484  0.44772  0.24623  1.0000
  H   H55       1.0  0.09001  0.44511  0.06653  1.0000
  C   C69       1.0  0.42380  0.39386  0.19113  1.0000
  H   H56       1.0  0.41953  0.31928  0.16297  1.0000
  C   C70       1.0  0.28000  0.39682  0.25907  1.0000
  H   H57       1.0  0.15404  0.38995  0.24025  1.0000
  C   C71       1.0  0.23707  0.46529  0.00904  1.0000
  C   C72       1.0  0.41136  0.07286  0.99004  1.0000
  H   H58       1.0  0.17086  0.33634  0.12699  1.0000
  H   H59       1.0  0.35584  0.07240  0.25839  1.0000
  C   C73       1.0  0.32361  0.40302  0.29860  1.0000
  H   H60       1.0  0.35400  0.09304  0.04791  1.0000
  H   H61       1.0  0.40641  0.02355  0.23882  1.0000
  C   C74       1.0  0.26290  0.08317  0.29617  1.0000
  H   H62       1.0  0.02561  0.32270  0.20265  1.0000
  H   H63       1.0  0.06788  0.00719  0.03430  1.0000
  C   C75       1.0  0.14840  0.44154  0.11092  1.0000
  C   C76       1.0  0.04328  0.06680  0.09463  1.0000
  C   C77       1.0  0.04201  0.04137  0.12077  1.0000
  C   C78       1.0  0.00144  0.23085  0.20430  1.0000
  H   H64       1.0  0.05312  0.07380  0.04314  1.0000
  C   C79       1.0  0.10094  0.46499  0.04954  1.0000
  H   H65       1.0  0.16751  0.43151  0.06225  1.0000
  C   C80       1.0  0.31703  0.44169  0.30149  1.0000
  H   H66       1.0  0.46814  0.21427  0.18182  1.0000
  C   C81       1.0  0.42431  0.13139  0.01816  1.0000
  H   H67       1.0  0.00174  0.00523  0.02135  1.0000
  S   S13       1.0  0.36934  0.46765  0.16450  1.0000
  H   H68       1.0  0.28800  0.02573  0.24102  1.0000
  C   C82       1.0  0.00906  0.29885  0.20245  1.0000
  H   H69       1.0  0.39060  0.14817  0.05609  1.0000
  C   C83       1.0  0.02213  0.26237  0.20410  1.0000
  C   C84       1.0  0.98703  0.38781  0.20572  1.0000
  H   H70       1.0  0.30954  0.35049  0.27575  1.0000
  C   C85       1.0  0.09278  0.46285  0.01631  1.0000
  H   H71       1.0  0.00670  0.45656  0.26106  1.0000
  S   S14       1.0  0.41828  0.98960  0.04159  1.0000
  C   C86       1.0  0.18932  0.47385  0.22040  1.0000
  H   H72       1.0  0.99228  0.06663  0.31650  1.0000
  H   H73       1.0  0.22242  0.46199  0.29489  1.0000
  C   C87       1.0  0.40535  0.28796  0.31389  1.0000
  C   C88       1.0  0.29254  0.99595  0.23738  1.0000
  H   H74       1.0  0.14141  0.04879  0.29691  1.0000
  C   C89       1.0  0.99503  0.99138  0.99872  1.0000
  C   C90       1.0  0.98478  0.41122  0.23347  1.0000
  H   H75       1.0  0.48001  0.09466  0.04068  1.0000
  H   H76       1.0  0.33176  0.45838  0.31809  1.0000
  C   C91       1.0  0.25911  0.09071  0.32978  1.0000
  Fe  Fe9       1.0  0.27556  0.03379  0.58542  1.0000
  S   S15       1.0  0.25235  0.08632  0.60648  1.0000
  S   S16       1.0  0.27040  0.00874  0.53290  1.0000
  C   C92       1.0  0.20314  0.04472  0.35307  1.0000
  H   H77       1.0  0.42828  0.47841  0.46855  1.0000
  S   S17       1.0  0.32626  0.05457  0.59864  1.0000
  H   H78       1.0  0.07350  0.39097  0.53157  1.0000
  Fe  Fe10      1.0  0.41564  0.36700  0.64072  1.0000
  S   S18       1.0  0.38285  0.39824  0.60599  1.0000
  C   C93       1.0  0.28201  0.05010  0.41592  1.0000
  Fe  Fe11      1.0  0.42840  0.42864  0.58774  1.0000
  S   S19       1.0  0.43395  0.44523  0.53282  1.0000
  S   S20       1.0  0.46187  0.39431  0.62009  1.0000
  C   C94       1.0  0.18692  0.05236  0.32347  1.0000
  H   H79       1.0  0.29881  0.03136  0.40348  1.0000
  C   C95       1.0  0.06583  0.40287  0.55480  1.0000
  C   C96       1.0  0.12908  0.99944  0.60479  1.0000
  C   C97       1.0  0.46288  0.43396  0.34257  1.0000
  C   C98       1.0  0.36186  0.27025  0.61668  1.0000
  C   C99       1.0  0.29895  0.01171  0.33156  1.0000
  C   C100      1.0  0.26502  0.08048  0.46635  1.0000
  C   C101      1.0  0.05790  0.45761  0.58995  1.0000
  Fe  Fe12      1.0  0.31943  0.02517  0.64721  1.0000
  C   C102      1.0  0.06911  0.44172  0.56046  1.0000
  H   H80       1.0  0.04893  0.34959  0.57421  1.0000
  S   S21       1.0  0.42200  0.47487  0.62515  1.0000
  H   H81       1.0  0.46996  0.08878  0.56800  1.0000
  C   C103      1.0  0.23846  0.09652  0.45009  1.0000
  H   H82       1.0  0.19723  0.02170  0.40199  1.0000
  C   C104      1.0  0.04465  0.43393  0.61416  1.0000
  H   H83       1.0  0.09373  0.99853  0.56535  1.0000
  Fe  Fe13      1.0  0.37944  0.44244  0.64592  1.0000
  C   C105      1.0  0.43748  0.04757  0.58935  1.0000
  H   H84       1.0  0.40733  0.00954  0.61754  1.0000
  C   C106      1.0  0.24353  0.98957  0.50206  1.0000
  S   S22       1.0  0.31677  0.16684  0.61011  1.0000
  H   H85       1.0  0.32725  0.24183  0.58513  1.0000
  H   H86       1.0  0.08006  0.45917  0.54163  1.0000
  H   H87       1.0  0.03362  0.43284  0.48576  1.0000
  C   C107      1.0  0.15180  0.02187  0.62170  1.0000
  P   P2        1.0  0.22566  0.27498  0.63026  1.0000
  C   C108      1.0  0.26377  0.12780  0.34124  1.0000
  C   C109      1.0  0.26857  0.01033  0.34768  1.0000
  H   H88       1.0  0.46952  0.01529  0.32260  1.0000
  H   H89       1.0  0.03621  0.44547  0.63729  1.0000
  H   H90       1.0  0.45020  0.22883  0.64267  1.0000
  H   H91       1.0  0.28242  0.29193  0.58795  1.0000
  C   C110      1.0  0.45446  0.07997  0.64979  1.0000
  H   H92       1.0  0.13872  0.00801  0.39580  1.0000
  C   C111      1.0  0.22311  0.25145  0.59092  1.0000
  C   C112      1.0  0.24746  0.22556  0.58191  1.0000
  C   C113      1.0  0.24570  0.20615  0.55216  1.0000
  C   C114      1.0  0.21962  0.21257  0.53090  1.0000
  C   C115      1.0  0.19527  0.23840  0.53950  1.0000
  C   C116      1.0  0.19691  0.25773  0.56942  1.0000
  H   H93       1.0  0.17627  0.07579  0.62420  1.0000
  H   H94       1.0  0.03120  0.37703  0.62725  1.0000
  C   C117      1.0  0.18530  0.02906  0.37922  1.0000
  H   H95       1.0  0.42990  0.29613  0.32097  1.0000
  C   C118      1.0  0.23354  0.08927  0.41675  1.0000
  C   C119      1.0  0.98988  0.44137  0.51479  1.0000
  C   C120      1.0  0.15837  0.05879  0.61128  1.0000
  C   C121      1.0  0.15359  0.04431  0.32015  1.0000
  C   C122      1.0  0.01071  0.44785  0.48745  1.0000
  H   H96       1.0  0.26072  0.13452  0.36691  1.0000
  C   C123      1.0  0.11864  0.05192  0.56786  1.0000
  C   C124      1.0  0.05204  0.37957  0.57878  1.0000
  S   S23       1.0  0.03067  0.48186  0.42901  1.0000
  P   P3        1.0  0.24661  0.05324  0.35730  1.0000
  C   C125      1.0  0.34208  0.23934  0.60690  1.0000
  C   C126      1.0  0.46430  0.45847  0.50283  1.0000
  H   H97       1.0  0.26790  0.22020  0.59800  1.0000
  H   H98       1.0  0.26465  0.18598  0.54585  1.0000
  H   H99       1.0  0.21829  0.19747  0.50784  1.0000
  H   H100      1.0  0.17501  0.24334  0.52301  1.0000
  H   H101      1.0  0.17759  0.27720  0.57555  1.0000
  C   C127      1.0  0.17156  0.32265  0.62779  1.0000
  S   S24       1.0  0.27029  0.00107  0.63276  1.0000
  H   H102      1.0  0.26831  0.08491  0.49246  1.0000
  C   C128      1.0  0.00230  0.47351  0.46231  1.0000
  C   C129      1.0  0.37889  0.29745  0.33391  1.0000
  H   H103      1.0  0.16455  0.01093  0.64286  1.0000
  C   C130      1.0  0.13614  0.02871  0.34628  1.0000
  C   C131      1.0  0.04185  0.39504  0.60858  1.0000
  C   C132      1.0  0.34193  0.20501  0.62445  1.0000
  H   H104      1.0  0.36208  0.29602  0.60246  1.0000
  C   C133      1.0  0.25504  0.06556  0.39949  1.0000
  C   C134      1.0  0.46863  0.09340  0.62066  1.0000
  H   H105      1.0  0.21244  0.10125  0.40466  1.0000
  S   S25       1.0  0.03312  0.47559  0.33127  1.0000
  C   C135      1.0  0.28694  0.05764  0.44920  1.0000
  C   C136      1.0  0.27813  0.31583  0.60389  1.0000
  C   C137      1.0  0.29877  0.34727  0.60141  1.0000
  C   C138      1.0  0.00416  0.04783  0.61646  1.0000
  C   C139      1.0  0.15196  0.02127  0.37584  1.0000
  H   H106      1.0  0.32683  0.29347  0.34082  1.0000
  Fe  Fe14      1.0  0.30274  0.10515  0.62259  1.0000
  C   C140      1.0  0.11199  0.01500  0.57823  1.0000
  H   H107      1.0  0.44436  0.45476  0.34845  1.0000
  H   H108      1.0  0.02830  0.01758  0.57753  1.0000
  H   H109      1.0  0.22126  0.11376  0.46358  1.0000
  H   H110      1.0  0.30703  0.04456  0.46218  1.0000
  H   H111      1.0  0.14739  0.10223  0.57616  1.0000
  H   H112      1.0  0.43026  0.03551  0.56602  1.0000
  C   C141      1.0  0.27230  0.15674  0.31943  1.0000
  C   C142      1.0  0.34729  0.28641  0.32509  1.0000
  H   H113      1.0  0.10585  0.06355  0.54698  1.0000
  H   H114      1.0  0.19833  0.00098  0.52706  1.0000
  H   H115      1.0  0.18431  0.33707  0.60812  1.0000
  C   C143      1.0  0.42448  0.03298  0.61837  1.0000
  C   C144      1.0  0.29407  0.37852  0.62180  1.0000
  C   C145      1.0  0.45972  0.07763  0.59050  1.0000
  H   H116      1.0  0.11063  0.02118  0.34318  1.0000
  C   C146      1.0  0.14199  0.07373  0.58427  1.0000
  H   H117      1.0  0.99689  0.42151  0.53360  1.0000
  H   H118      1.0  0.38295  0.31305  0.35645  1.0000
  H   H119      1.0  0.31858  0.34744  0.58375  1.0000
  C   C147      1.0  0.38204  0.26733  0.64420  1.0000
  H   H120      1.0  0.12941  0.35900  0.62463  1.0000
  H   H121      1.0  0.43853  0.16055  0.64681  1.0000
  H   H122      1.0  0.02377  0.06826  0.61905  1.0000
  C   C148      1.0  0.25256  0.31546  0.62687  1.0000
  H   H123      1.0  0.17076  0.47382  0.32352  1.0000
  H   H124      1.0  0.30995  0.40296  0.61966  1.0000
  C   C149      1.0  0.00685  0.01910  0.59300  1.0000
  C   C150      1.0  0.43309  0.04892  0.64851  1.0000
  C   C151      1.0  0.45410  0.47440  0.47285  1.0000
  C   C152      1.0  0.20940  0.98943  0.50517  1.0000
  H   H125      1.0  0.27572  0.18532  0.32839  1.0000
  H   H126      1.0  0.30999  0.03842  0.32486  1.0000
  C   C153      1.0  0.26905  0.37821  0.64507  1.0000
  C   C154      1.0  0.18590  0.29146  0.64348  1.0000
  C   C155      1.0  0.14052  0.33522  0.63710  1.0000
  C   C156      1.0  0.24854  0.34667  0.64785  1.0000
  H   H127      1.0  0.20673  0.19780  0.64713  1.0000
  H   H128      1.0  0.28499  0.27500  0.67181  1.0000
  S   S26       1.0  0.29893  0.07697  0.67205  1.0000
  H   H129      1.0  0.06945  0.39309  0.72624  1.0000
  H   H130      1.0  0.03669  0.12509  0.67663  1.0000
  H   H131      1.0  0.23085  0.45882  0.87857  1.0000
  C   C157      1.0  0.30969  0.48267  0.69377  1.0000
  C   C158      1.0  0.06000  0.42148  0.72854  1.0000
  C   C159      1.0  0.13816  0.28676  0.67883  1.0000
  H   H132      1.0  0.39509  0.11078  0.67610  1.0000
  H   H133      1.0  0.17388  0.48145  0.74252  1.0000
  S   S27       1.0  0.41065  0.41036  0.68143  1.0000
  C   C160      1.0  0.20659  0.43753  0.75828  1.0000
  H   H134      1.0  0.27967  0.30522  0.76848  1.0000
  C   C161      1.0  0.16670  0.43002  0.71496  1.0000
  H   H135      1.0  0.41733  0.05058  0.97289  1.0000
  C   C162      1.0  0.27336  0.18374  0.69490  1.0000
  H   H136      1.0  0.17966  0.25031  0.68238  1.0000
  C   C163      1.0  0.18165  0.45245  0.73885  1.0000
  C   C164      1.0  0.02974  0.43043  0.71409  1.0000
  H   H137      1.0  0.47129  0.99772  0.89689  1.0000
  H   H138      1.0  0.34761  0.11670  0.71272  1.0000
  S   S28       1.0  0.00750  0.39421  0.69345  1.0000
  C   C165      1.0  0.04015  0.41356  0.81499  1.0000
  H   H139      1.0  0.00913  0.38903  0.77797  1.0000
  H   H140      1.0  0.22962  0.34675  0.66635  1.0000
  H   H141      1.0  0.36184  0.17630  0.66624  1.0000
  H   H142      1.0  0.19558  0.25930  0.85846  1.0000
  H   H143      1.0  0.09972  0.32704  0.66981  1.0000
  H   H144      1.0  0.42269  0.03732  0.67075  1.0000
  C   C166      1.0  0.20533  0.28170  0.84317  1.0000
  H   H145      1.0  0.18091  0.34452  0.78554  1.0000
  C   C167      1.0  0.45756  0.17271  0.66199  1.0000
  C   C168      1.0  0.01219  0.41189  0.79545  1.0000
  C   C169      1.0  0.24310  0.24068  0.65798  1.0000
  H   H146      1.0  0.47461  0.03000  0.95046  1.0000
  C   C170      1.0  0.24388  0.17628  0.67896  1.0000
  C   C171      1.0  0.39976  0.00417  0.75460  1.0000
  H   H147      1.0  0.15945  0.29261  0.81933  1.0000
  C   C172      1.0  0.18501  0.30041  0.82104  1.0000
  H   H148      1.0  0.14829  0.06290  0.72899  1.0000
  C   C173      1.0  0.02872  0.04311  0.73922  1.0000
  H   H149      1.0  0.41420  0.44069  0.75009  1.0000
  H   H150      1.0  0.45827  0.03409  0.84682  1.0000
  H   H151      1.0  0.16569  0.37561  0.69145  1.0000
  H   H152      1.0  0.10257  0.48452  0.96779  1.0000
  H   H153      1.0  0.28550  0.16145  0.70832  1.0000
  C   C174      1.0  0.28771  0.21956  0.69260  1.0000
  H   H154      1.0  0.39673  0.23054  0.68359  1.0000
  C   C175      1.0  0.42979  0.10181  0.71541  1.0000
  C   C176      1.0  0.39858  0.10816  0.70231  1.0000
  C   C177      1.0  0.37154  0.11171  0.72304  1.0000
  C   C178      1.0  0.37540  0.10889  0.75695  1.0000
  C   C179      1.0  0.40645  0.10327  0.77020  1.0000
  C   C180      1.0  0.12379  0.31723  0.66258  1.0000
  C   C181      1.0  0.07777  0.44871  0.74661  1.0000
  H   H155      1.0  0.21374  0.41287  0.83640  1.0000
  C   C182      1.0  0.00552  0.08017  0.69495  1.0000
  H   H156      1.0  0.32441  0.28684  0.73136  1.0000
  H   H157      1.0  0.30950  0.42016  0.79213  1.0000
  H   H158      1.0  0.24362  0.07531  0.76245  1.0000
  C   C183      1.0  0.16910  0.27389  0.66938  1.0000
  C   C184      1.0  0.45918  0.44990  0.77619  1.0000
  H   H159      1.0  0.35227  0.47765  0.72415  1.0000
  H   H160      1.0  0.31118  0.22482  0.70395  1.0000
  H   H161      1.0  0.31869  0.99119  0.75634  1.0000
  H   H162      1.0  0.45756  0.09664  0.76037  1.0000
  C   C185      1.0  0.45265  0.18394  0.95782  1.0000
  H   H163      1.0  0.27585  0.33024  0.82966  1.0000
  C   C186      1.0  0.02121  0.47232  0.83876  1.0000
  H   H164      1.0  0.20520  0.02747  0.78461  1.0000
  H   H165      1.0  0.35437  0.11117  0.77295  1.0000
  H   H166      1.0  0.02656  0.02015  0.75670  1.0000
  H   H167      1.0  0.34955  0.33397  0.69414  1.0000
  S   S29       1.0  0.32875  0.46776  0.65658  1.0000
  C   C187      1.0  0.99335  0.47129  0.81870  1.0000
  H   H168      1.0  0.28534  0.41944  0.73176  1.0000
  C   C188      1.0  0.46896  0.04625  0.92882  1.0000
  H   H169      1.0  0.40949  0.10109  0.79648  1.0000
  H   H170      1.0  0.25368  0.27845  0.86370  1.0000
  C   C189      1.0  0.29385  0.99882  0.76259  1.0000
  H   H171      1.0  0.10070  0.44126  0.75799  1.0000
  S   S30       1.0  0.20501  0.06206  0.68713  1.0000
  H   H172      1.0  0.20950  0.34875  0.72589  1.0000
  C   C190      1.0  0.31901  0.37959  0.71092  1.0000
  H   H173      1.0  0.21822  0.45570  0.77616  1.0000
  C   C191      1.0  0.23808  0.29242  0.84606  1.0000
  C   C192      1.0  0.25058  0.32165  0.82666  1.0000
  C   C193      1.0  0.23052  0.34010  0.80387  1.0000
  C   C194      1.0  0.19744  0.32970  0.80161  1.0000
  P   P4        1.0  0.24704  0.37914  0.78053  1.0000
  C   C195      1.0  0.26027  0.41304  0.81095  1.0000
  C   C196      1.0  0.27970  0.36417  0.75361  1.0000
  C   C197      1.0  0.29052  0.32647  0.75288  1.0000
  C   C198      1.0  0.31572  0.31572  0.73160  1.0000
  H   H174      1.0  0.12124  0.01351  0.76322  1.0000
  H   H175      1.0  0.16733  0.43381  0.97169  1.0000
  C   C199      1.0  0.29379  0.39045  0.73205  1.0000
  C   C200      1.0  0.23842  0.42398  0.83579  1.0000
  C   C201      1.0  0.24804  0.44993  0.85980  1.0000
  H   H176      1.0  0.12519  0.27296  0.69868  1.0000
  C   C202      1.0  0.30165  0.45389  0.83496  1.0000
  C   C203      1.0  0.29209  0.42796  0.81084  1.0000
  C   C204      1.0  0.21628  0.39974  0.75442  1.0000
  C   C205      1.0  0.20189  0.37774  0.72965  1.0000
  C   C206      1.0  0.17708  0.39281  0.71013  1.0000
  C   C207      1.0  0.03401  0.10240  0.69420  1.0000
  C   C208      1.0  0.45941  0.22233  0.95304  1.0000
  H   H177      1.0  0.14709  0.44148  0.70023  1.0000
  C   C209      1.0  0.22886  0.20456  0.66046  1.0000
  H   H178      1.0  0.99478  0.47470  0.70605  1.0000
  C   C210      1.0  0.01786  0.46729  0.71718  1.0000
  C   C211      1.0  0.43173  0.46145  0.75863  1.0000
  H   H179      1.0  0.07651  0.06001  0.75566  1.0000
  C   C212      1.0  0.25182  0.04658  0.76645  1.0000
  H   H180      1.0  0.46316  0.42015  0.78095  1.0000
  C   C213      1.0  0.45453  0.08747  0.87240  1.0000
  C   C214      1.0  0.38143  0.23323  0.66214  1.0000
  C   C215      1.0  0.18494  0.02548  0.70935  1.0000
  H   H181      1.0  0.30070  0.05712  0.74903  1.0000
  C   C216      1.0  0.15733  0.03420  0.72856  1.0000
  H   H182      1.0  0.23319  0.14816  0.68010  1.0000
  P   P5        1.0  0.46500  0.10074  0.68874  1.0000
  C   C217      1.0  0.19623  0.48028  0.95337  1.0000
  H   H183      1.0  0.05867  0.39190  0.81279  1.0000
  H   H184      1.0  0.33007  0.40011  0.69460  1.0000
  C   C218      1.0  0.04465  0.44375  0.83664  1.0000
  C   C219      1.0  0.23010  0.01957  0.77880  1.0000
  H   H185      1.0  0.42755  0.17418  0.95673  1.0000
  H   H186      1.0  0.26587  0.40247  0.66106  1.0000
  C   C220      1.0  0.14183  0.00626  0.74789  1.0000
  Fe  Fe15      1.0  0.45405  0.43984  0.65831  1.0000
  C   C221      1.0  0.32998  0.34226  0.71063  1.0000
  H   H187      1.0  0.46663  0.03339  0.73086  1.0000
  C   C222      1.0  0.43363  0.10018  0.74957  1.0000
  H   H188      1.0  0.39605  0.02321  0.77497  1.0000
  H   H189      1.0  0.36092  0.02847  0.72549  1.0000
  C   C223      1.0  0.27270  0.24800  0.67424  1.0000
  C   C224      1.0  0.00339  0.04994  0.71709  1.0000
  C   C225      1.0  0.05957  0.09505  0.71600  1.0000
  C   C226      1.0  0.28381  0.03628  0.75866  1.0000
  C   C227      1.0  0.05683  0.06558  0.73864  1.0000
  C   C228      1.0  0.37965  0.00707  0.72667  1.0000
  H   H190      1.0  0.08160  0.11210  0.71530  1.0000
  C   C229      1.0  0.18887  0.45096  0.97568  1.0000
  H   H191      1.0  0.06667  0.44547  0.85129  1.0000
  C   C230      1.0  0.47510  0.15021  0.68419  1.0000
  S   S31       1.0  0.40943  0.30444  0.65643  1.0000
  C   C231      1.0  0.19621  0.98823  0.70885  1.0000
  C   C232      1.0  0.46428  0.08542  0.93118  1.0000
  H   H192      1.0  0.04427  0.99076  0.97939  1.0000
  C   C233      1.0  0.98889  0.44062  0.79723  1.0000
  C   C234      1.0  0.46687  0.02790  0.89852  1.0000
  C   C235      1.0  0.46389  0.21150  0.65972  1.0000
  C   C236      1.0  0.45965  0.04847  0.87030  1.0000
  H   H193      1.0  0.43964  0.24195  0.94855  1.0000
  C   C237      1.0  0.45684  0.10594  0.90270  1.0000
  C   C238      1.0  0.27960  0.46498  0.85932  1.0000
  H   H194      1.0  0.32593  0.46607  0.83437  1.0000
  C   C239      1.0  0.48171  0.47672  0.78727  1.0000
  H   H195      1.0  0.44913  0.10340  0.85046  1.0000
  H   H196      1.0  0.45311  0.13615  0.90365  1.0000
  Fe  Fe16      1.0  0.25017  0.05473  0.65457  1.0000
  P   P6        1.0  0.46909  0.10887  0.97035  1.0000
  C   C240      1.0  0.36165  0.20229  0.65235  1.0000
  C   C241      1.0  0.47810  0.15839  0.96405  1.0000
  C   C242      1.0  0.32670  0.48510  0.72339  1.0000
  S   S32       1.0  0.15961  0.87709  0.27728  1.0000
  C   C243      1.0  0.37151  0.55716  0.30567  1.0000
  C   C244      1.0  0.26849  0.55611  0.18288  1.0000
  S   S33       1.0  0.25471  0.89486  0.26950  1.0000
  H   H197      1.0  0.17275  0.52813  0.23802  1.0000
  H   H198      1.0  0.13357  0.86012  0.06921  1.0000
  C   C245      1.0  0.29518  0.53309  0.18991  1.0000
  S   S34       1.0  0.03141  0.55448  0.28871  1.0000
  H   H199      1.0  0.02710  0.90847  0.19952  1.0000
  S   S35       1.0  0.98823  0.96688  0.17054  1.0000
  H   H200      1.0  0.04836  0.91364  0.31050  1.0000
  H   H201      1.0  0.07970  0.84998  0.17029  1.0000
  H   H202      1.0  0.19272  0.61364  0.11735  1.0000
  C   C246      1.0  0.24450  0.49454  0.98669  1.0000
  H   H203      1.0  0.09907  0.53244  0.21134  1.0000
  H   H204      1.0  0.05718  0.87210  0.11792  1.0000
  H   H205      1.0  0.24725  0.58975  0.10059  1.0000
  Fe  Fe17      1.0  0.99450  0.51519  0.31186  1.0000
  H   H206      1.0  0.34435  0.54226  0.26306  1.0000
  C   C247      1.0  0.00658  0.85936  0.04541  1.0000
  C   C248      1.0  0.03463  0.87874  0.05558  1.0000
  P   P7        1.0  0.06925  0.94125  0.07860  1.0000
  C   C249      1.0  0.22674  0.57047  0.10278  1.0000
  H   H207      1.0  0.31282  0.52623  0.17091  1.0000
  H   H208      1.0  0.12105  0.88837  0.19982  1.0000
  H   H209      1.0  0.23155  0.55669  0.25733  1.0000
  H   H210      1.0  0.46311  0.52336  0.22287  1.0000
  H   H211      1.0  0.04108  0.53699  0.19466  1.0000
  C   C250      1.0  0.27806  0.93032  0.24876  1.0000
  C   C251      1.0  0.30381  0.91915  0.22794  1.0000
  H   H212      1.0  0.17425  0.72864  0.27336  1.0000
  H   H213      1.0  0.30812  0.88939  0.22380  1.0000
  H   H214      1.0  0.05810  0.86501  0.05364  1.0000
  C   C252      1.0  0.06003  0.93483  0.23406  1.0000
  C   C253      1.0  0.03501  0.93491  0.21025  1.0000
  H   H215      1.0  0.07095  0.90847  0.24169  1.0000
  C   C254      1.0  0.25475  0.75360  0.26916  1.0000
  H   H216      1.0  0.13161  0.58844  0.24422  1.0000
  C   C255      1.0  0.00164  0.93305  0.07001  1.0000
  C   C256      1.0  0.44921  0.88768  0.21797  1.0000
  H   H217      1.0  0.27899  0.74398  0.27537  1.0000
  H   H218      1.0  0.31200  0.60810  0.23412  1.0000
  C   C257      1.0  0.19603  0.74486  0.26763  1.0000
  C   C258      1.0  0.31839  0.98478  0.21674  1.0000
  C   C259      1.0  0.43234  0.85661  0.20476  1.0000
  C   C260      1.0  0.33416  0.63816  0.27428  1.0000
  H   H219      1.0  0.14127  0.59133  0.30375  1.0000
  H   H220      1.0  0.14316  0.53135  0.98667  1.0000
  C   C261      1.0  0.27667  0.52695  0.24625  1.0000
  P   P8        1.0  0.44986  0.89628  0.26148  1.0000
  S   S36       1.0  0.44972  0.51370  0.29335  1.0000
  C   C262      1.0  0.19605  0.58386  0.11217  1.0000
  S   S37       1.0  0.11711  0.51540  0.27956  1.0000
  S   S38       1.0  0.10064  0.97065  0.27970  1.0000
  C   C263      1.0  0.20446  0.50721  0.09748  1.0000
  C   C264      1.0  0.29886  0.51795  0.22122  1.0000
  H   H221      1.0  0.08647  0.75143  0.06827  1.0000
  C   C265      1.0  0.23097  0.53216  0.09573  1.0000
  C   C266      1.0  0.35625  0.86567  0.28543  1.0000
  C   C267      1.0  0.42914  0.49882  0.25703  1.0000
  H   H222      1.0  0.46932  0.81917  0.27899  1.0000
  C   C268      1.0  0.13073  0.51358  0.00444  1.0000
  C   C269      1.0  0.43234  0.85043  0.17087  1.0000
  C   C270      1.0  0.15627  0.60826  0.28740  1.0000
  C   C271      1.0  0.05942  0.52846  0.17692  1.0000
  C   C272      1.0  0.46706  0.91150  0.19707  1.0000
  H   H223      1.0  0.15754  0.53594  0.04487  1.0000
  C   C273      1.0  0.09751  0.93800  0.04457  1.0000
  C   C274      1.0  0.13132  0.94181  0.04942  1.0000
  H   H224      1.0  0.20954  0.48546  0.20655  1.0000
  C   C275      1.0  0.38362  0.87923  0.26848  1.0000
  C   C276      1.0  0.42186  0.49791  0.19781  1.0000
  C   C277      1.0  0.11013  0.80569  0.07257  1.0000
  C   C278      1.0  0.32390  0.94611  0.21209  1.0000
  Fe  Fe18      1.0  0.13547  0.92674  0.30199  1.0000
  Fe  Fe19      1.0  0.07013  0.51720  0.31103  1.0000
  H   H225      1.0  0.25286  0.97812  0.26918  1.0000
  H   H226      1.0  0.44932  0.87037  0.12385  1.0000
  C   C279      1.0  0.09213  0.52598  0.18631  1.0000
  H   H227      1.0  0.16825  0.79222  0.25014  1.0000
  C   C280      1.0  0.09629  0.77586  0.02089  1.0000
  C   C281      1.0  0.10951  0.80672  0.00370  1.0000
  H   H228      1.0  0.25469  0.52178  0.08802  1.0000
  C   C282      1.0  0.24512  0.51491  0.30981  1.0000
  C   C283      1.0  0.12320  0.83657  0.05570  1.0000
  C   C284      1.0  0.19249  0.78107  0.25449  1.0000
  C   C285      1.0  0.21997  0.80355  0.24863  1.0000
  C   C286      1.0  0.08862  0.87605  0.15955  1.0000
  C   C287      1.0  0.15271  0.94164  0.02261  1.0000
  C   C288      1.0  0.15074  0.60668  0.25370  1.0000
  C   C289      1.0  0.11188  0.89767  0.17626  1.0000
  C   C290      1.0  0.34376  0.54364  0.28946  1.0000
  H   H229      1.0  0.17875  0.94503  0.02648  1.0000
  C   C291      1.0  0.10693  0.50566  0.13128  1.0000
  C   C292      1.0  0.30796  0.62725  0.25448  1.0000
  H   H230      1.0  0.41361  0.95588  0.22774  1.0000
  H   H231      1.0  0.00846  0.83091  0.03576  1.0000
  H   H232      1.0  0.14550  0.57024  0.11954  1.0000
  C   C293      1.0  0.07399  0.50836  0.12199  1.0000
  C   C294      1.0  0.19377  0.65280  0.24505  1.0000
  C   C295      1.0  0.16942  0.62900  0.23251  1.0000
  H   H233      1.0  0.13246  0.86161  0.00886  1.0000
  C   C296      1.0  0.25107  0.78985  0.25597  1.0000
  H   H234      1.0  0.21715  0.83203  0.23925  1.0000
  C   C297      1.0  0.27665  0.64126  0.26074  1.0000
  H   H235      1.0  0.26551  0.56720  0.15842  1.0000
  C   C298      1.0  0.24968  0.54995  0.23892  1.0000
  H   H236      1.0  0.25695  0.63279  0.24483  1.0000
  H   H237      1.0  0.08562  0.75217  0.00796  1.0000
  C   C299      1.0  0.17339  0.52053  0.10624  1.0000
  H   H238      1.0  0.11046  0.80526  0.09914  1.0000
  C   C300      1.0  0.08677  0.92310  0.11614  1.0000
  H   H239      1.0  0.20770  0.67042  0.22839  1.0000
  H   H240      1.0  0.16465  0.62821  0.20644  1.0000
  H   H241      1.0  0.05958  0.93178  0.00787  1.0000
  H   H242      1.0  0.22442  0.58132  0.20155  1.0000
  C   C301      1.0  0.24553  0.56420  0.20724  1.0000
  C   C302      1.0  0.42619  0.96843  0.24844  1.0000
  C   C303      1.0  0.08556  0.93397  0.01248  1.0000
  C   C304      1.0  0.44617  0.94645  0.26886  1.0000
  H   H243      1.0  0.14129  0.94552  0.07370  1.0000
  H   H244      1.0  0.38027  0.89249  0.24480  1.0000
  C   C305      1.0  0.10785  0.48698  0.99374  1.0000
  C   C306      1.0  0.13884  0.51596  0.03764  1.0000
  H   H245      1.0  0.27217  0.80796  0.25221  1.0000
  C   C307      1.0  0.44047  0.50784  0.22567  1.0000
  H   H246      1.0  0.39282  0.56588  0.29172  1.0000
  C   C308      1.0  0.03243  0.91584  0.06770  1.0000
  H   H247      1.0  0.41926  0.83715  0.22050  1.0000
  C   C309      1.0  0.41492  0.87632  0.28236  1.0000
  C   C310      1.0  0.09664  0.77539  0.05517  1.0000
  H   H248      1.0  0.43057  0.50576  0.17372  1.0000
  C   C311      1.0  0.11006  0.94471  0.13326  1.0000
  Fe  Fe20      1.0  0.20668  0.89931  0.29895  1.0000
  C   C312      1.0  0.46718  0.90516  0.16329  1.0000
  C   C313      1.0  0.22721  0.73070  0.27488  1.0000
  H   H249      1.0  0.34352  0.93700  0.19618  1.0000
  C   C314      1.0  0.19980  0.65418  0.27892  1.0000
  H   H250      1.0  0.14102  0.51252  0.17145  1.0000
  C   C315      1.0  0.16940  0.55906  0.11369  1.0000
  C   C316      1.0  0.16833  0.49799  0.23824  1.0000
  C   C317      1.0  0.21993  0.48784  0.30878  1.0000
  C   C318      1.0  0.12252  0.93202  0.16316  1.0000
  C   C319      1.0  0.31651  0.53094  0.30735  1.0000
  C   C320      1.0  0.44959  0.87485  0.15012  1.0000
  C   C321      1.0  0.05035  0.51962  0.14481  1.0000
  C   C322      1.0  0.07598  0.88872  0.12968  1.0000
  H   H251      1.0  0.99894  0.96157  0.07932  1.0000
  H   H252      1.0  0.31913  0.49921  0.22579  1.0000
  C   C323      1.0  0.48229  0.98303  0.01681  1.0000
  H   H253      1.0  0.00802  0.95168  0.28056  1.0000
  C   C324      1.0  0.99949  0.92999  0.29725  1.0000
  H   H254      1.0  0.41894  0.82676  0.16063  1.0000
  C   C325      1.0  0.27243  0.96900  0.25321  1.0000
  C   C326      1.0  0.12270  0.83721  0.02144  1.0000
  P   P9        1.0  0.28256  0.50798  0.28691  1.0000
  H   H255      1.0  0.33209  0.86809  0.27479  1.0000
  C   C327      1.0  0.46096  0.96342  0.29622  1.0000
  C   C328      1.0  0.07039  0.96879  0.24835  1.0000
  C   C329      1.0  0.18051  0.63206  0.30003  1.0000
  C   C330      1.0  0.11581  0.51472  0.16362  1.0000
  H   H256      1.0  0.13986  0.94923  0.17666  1.0000
  H   H257      1.0  0.06637  0.50189  0.09729  1.0000
  H   H258      1.0  0.02492  0.52144  0.13765  1.0000
  C   C331      1.0  0.41817  0.86104  0.31394  1.0000
  C   C332      1.0  0.01999  0.96882  0.20039  1.0000
  H   H259      1.0  0.26602  0.51173  0.99075  1.0000
  H   H260      1.0  0.06165  0.86016  0.99085  1.0000
  H   H261      1.0  0.48074  0.93520  0.20685  1.0000
  C   C333      1.0  0.02246  0.90826  0.31404  1.0000
  H   H262      1.0  0.47545  0.94688  0.31308  1.0000
  P   P10       1.0  0.23108  0.68542  0.29493  1.0000
  C   C334      1.0  0.29774  0.67687  0.30684  1.0000
  C   C335      1.0  0.14051  0.93790  0.99079  1.0000
  C   C336      1.0  0.27124  0.66618  0.28699  1.0000
  H   H263      1.0  0.48058  0.92425  0.14735  1.0000
  C   C337      1.0  0.12405  0.49158  0.06054  1.0000
  H   H264      1.0  0.33805  0.97934  0.30993  1.0000
  P   P11       1.0  0.13798  0.49024  0.10263  1.0000
  C   C338      1.0  0.44877  0.97766  0.01155  1.0000
  H   H265      1.0  0.35849  0.62762  0.26918  1.0000
  H   H266      1.0  0.11796  0.97194  0.12398  1.0000
  S   S39       1.0  0.42209  0.98442  0.14018  1.0000
  C   C339      1.0  0.32903  0.66280  0.30054  1.0000
  H   H267      1.0  0.04812  0.98401  0.13624  1.0000
  H   H268      1.0  0.34940  0.67122  0.31587  1.0000
  C   C340      1.0  0.35982  0.84962  0.31645  1.0000
  C   C341      1.0  0.10694  0.93394  0.98576  1.0000
  C   C342      1.0  0.22607  0.69139  0.33861  1.0000
  Fe  Fe21      1.0  0.17465  0.91638  0.36651  1.0000
  S   S40       1.0  0.20083  0.86556  0.34570  1.0000
  S   S41       1.0  0.17644  0.94068  0.41966  1.0000
  H   H269      1.0  0.19136  0.95714  0.60549  1.0000
  H   H270      1.0  0.23852  0.92450  0.62995  1.0000
  S   S42       1.0  0.12525  0.89503  0.34896  1.0000
  H   H271      1.0  0.26186  0.91470  0.35591  1.0000
  H   H272      1.0  0.02986  0.50399  0.53390  1.0000
  S   S43       1.0  0.07210  0.54939  0.35900  1.0000
  C   C343      1.0  0.20316  0.95931  0.45084  1.0000
  C   C344      1.0  0.04775  0.52658  0.53318  1.0000
  Fe  Fe22      1.0  0.03117  0.51113  0.37763  1.0000
  H   H273      1.0  0.10230  0.57417  0.58106  1.0000
  C   C345      1.0  0.37249  0.55794  0.33982  1.0000
  H   H274      1.0  0.44953  0.51944  0.56925  1.0000
  H   H275      1.0  0.29434  0.69646  0.32699  1.0000
  H   H276      1.0  0.33851  0.83944  0.32959  1.0000
  C   C346      1.0  0.21130  0.72398  0.35139  1.0000
  H   H277      1.0  0.31390  0.91742  0.32505  1.0000
  H   H278      1.0  0.28340  0.97385  0.47037  1.0000
  C   C347      1.0  0.01209  0.87947  0.33507  1.0000
  H   H279      1.0  0.24842  0.94763  0.42609  1.0000
  P   P12       1.0  0.06171  0.50761  0.59782  1.0000
  Fe  Fe23      1.0  0.15207  0.84629  0.32532  1.0000
  H   H280      1.0  0.02926  0.73252  0.33954  1.0000
  C   C348      1.0  0.09173  0.58711  0.53092  1.0000
  C   C349      1.0  0.05466  0.95326  0.63657  1.0000
  C   C350      1.0  0.20624  0.72772  0.38508  1.0000
  C   C351      1.0  0.02386  0.55764  0.63470  1.0000
  S   S44       1.0  0.18314  0.95091  0.32068  1.0000
  H   H281      1.0  0.24797  0.63763  0.35084  1.0000
  C   C352      1.0  0.23726  0.95945  0.44778  1.0000
  C   C353      1.0  0.47686  0.48557  0.44844  1.0000
  H   H282      1.0  0.45454  0.54905  0.51471  1.0000
  C   C354      1.0  0.99409  0.51030  0.60372  1.0000
  C   C355      1.0  0.46803  0.60618  0.64665  1.0000
  C   C356      1.0  0.21409  0.91838  0.63874  1.0000
  C   C357      1.0  0.21058  0.55499  0.34372  1.0000
  C   C358      1.0  0.27230  0.94182  0.34927  1.0000
  Fe  Fe24      1.0  0.03297  0.58577  0.33692  1.0000
  C   C359      1.0  0.08423  0.86794  0.55867  1.0000
  C   C360      1.0  0.09007  0.89147  0.58565  1.0000
  C   C361      1.0  0.11121  0.92263  0.58272  1.0000
  H   H283      1.0  0.44175  0.86019  0.32589  1.0000
  C   C362      1.0  0.12782  0.51250  0.61355  1.0000
  S   S45       1.0  0.99209  0.54981  0.35846  1.0000
  C   C363      1.0  0.15555  0.92931  0.63649  1.0000
  H   H284      1.0  0.47413  0.61304  0.62150  1.0000
  S   S46       1.0  0.14257  0.78165  0.32635  1.0000
  C   C364      1.0  0.25714  0.97432  0.47315  1.0000
  C   C365      1.0  0.12800  0.92842  0.55305  1.0000
  H   H285      1.0  0.07074  0.78389  0.33477  1.0000
  H   H286      1.0  0.13511  0.90957  0.50327  1.0000
  C   C366      1.0  0.23640  0.66292  0.36018  1.0000
  C   C367      1.0  0.07826  0.75464  0.33368  1.0000
  C   C368      1.0  0.31529  0.97828  0.32351  1.0000
  H   H287      1.0  0.13236  0.50999  0.58749  1.0000
  H   H288      1.0  0.17907  0.51643  0.62543  1.0000
  H   H289      1.0  0.10836  0.61097  0.53013  1.0000
  H   H290      1.0  0.20675  0.58091  0.35729  1.0000
  H   H291      1.0  0.39446  0.56754  0.35218  1.0000
  P   P13       1.0  0.12065  0.95169  0.61785  1.0000
  C   C369      1.0  0.47608  0.54544  0.52978  1.0000
  C   C370      1.0  0.18570  0.52791  0.34248  1.0000
  H   H292      1.0  0.07568  0.59423  0.48093  1.0000
  H   H293      1.0  0.06772  0.84407  0.56095  1.0000
  H   H294      1.0  0.07841  0.88503  0.60882  1.0000
  H   H295      1.0  0.46837  0.49795  0.42581  1.0000
  H   H296      1.0  0.03642  0.54092  0.48317  1.0000
  C   C371      1.0  0.12216  0.90484  0.52616  1.0000
  C   C372      1.0  0.05112  0.54777  0.50449  1.0000
  C   C373      1.0  0.47330  0.52861  0.56060  1.0000
  H   H297      1.0  0.04873  0.94925  0.61099  1.0000
  H   H298      1.0  0.14593  0.95088  0.55069  1.0000
  C   C374      1.0  0.08849  0.56585  0.55966  1.0000
  C   C375      1.0  0.19042  0.49439  0.32506  1.0000
  H   H299      1.0  0.23300  0.97325  0.37054  1.0000
  H   H300      1.0  0.25855  0.57072  0.32726  1.0000
  C   C376      1.0  0.08736  0.95569  0.64680  1.0000
  C   C377      1.0  0.10010  0.87477  0.52889  1.0000
  H   H301      1.0  0.34674  0.54508  0.38442  1.0000
  C   C378      1.0  0.05472  0.72533  0.33638  1.0000
  H   H302      1.0  0.00403  0.95370  0.65179  1.0000
  H   H303      1.0  0.39345  0.83562  0.35508  1.0000
  C   C379      1.0  0.06712  0.53469  0.56068  1.0000
  C   C380      1.0  0.23154  0.66684  0.39395  1.0000
  C   C381      1.0  0.21631  0.69917  0.40638  1.0000
  C   C382      1.0  0.31790  0.53140  0.34178  1.0000
  H   H304      1.0  0.02998  0.86246  0.34787  1.0000
  H   H305      1.0  0.20329  0.74654  0.33551  1.0000
  C   C383      1.0  0.12044  0.70754  0.32843  1.0000
  S   S47       1.0  0.03264  0.65115  0.33895  1.0000
  H   H306      1.0  0.23936  0.64475  0.41052  1.0000
  H   H307      1.0  0.21219  0.70213  0.43249  1.0000
  H   H308      1.0  0.29796  0.52004  0.35625  1.0000
  C   C384      1.0  0.06374  0.68687  0.33509  1.0000
  C   C385      1.0  0.02395  0.52559  0.61433  1.0000
  C   C386      1.0  0.34564  0.54520  0.35790  1.0000
  H   H309      1.0  0.19412  0.75274  0.39449  1.0000
  C   C387      1.0  0.07324  0.57786  0.50326  1.0000
  H   H310      1.0  0.16248  0.53302  0.35454  1.0000
  H   H311      1.0  0.09577  0.85640  0.50804  1.0000
  H   H312      1.0  0.45693  0.54791  0.63599  1.0000
  C   C388      1.0  0.11140  0.74599  0.32974  1.0000
  C   C389      1.0  0.18726  0.93699  0.62506  1.0000
  C   C390      1.0  0.23999  0.54885  0.32704  1.0000
  C   C391      1.0  0.30181  0.94335  0.33211  1.0000
  H   H313      1.0  0.18342  0.63365  0.32627  1.0000
  C   C392      1.0  0.25581  0.97515  0.35719  1.0000
  C   C393      1.0  0.09689  0.67823  0.33102  1.0000
  H   H314      1.0  0.16324  0.97471  0.48263  1.0000
  C   C394      1.0  0.39075  0.84743  0.33075  1.0000
  H   H315      1.0  0.04657  0.57095  0.64200  1.0000
  H   H316      1.0  0.14589  0.70031  0.32552  1.0000
  C   C395      1.0  0.18950  0.97446  0.47981  1.0000
  C   C396      1.0  0.09569  0.51262  0.62572  1.0000
  H   H317      1.0  0.10437  0.64897  0.33006  1.0000
  C   C397      1.0  0.15435  0.51582  0.63496  1.0000
  C   C398      1.0  0.99429  0.57330  0.64519  1.0000
  H   H318      1.0  0.98369  0.97024  0.57128  1.0000
  H   H319      1.0  0.99341  0.48646  0.58700  1.0000
  H   H320      1.0  0.30400  0.85402  0.65150  1.0000
  Fe  Fe25      1.0  0.08774  0.92680  0.79981  1.0000
  S   S48       1.0  0.05012  0.89165  0.77327  1.0000
  H   H321      1.0  0.11908  0.96638  0.68817  1.0000
  Fe  Fe26      1.0  0.04457  0.93045  0.86342  1.0000
  S   S49       1.0  0.00545  0.89476  0.84007  1.0000
  S   S50       1.0  0.04325  0.95334  0.91669  1.0000
  Fe  Fe27      1.0  0.04681  0.85825  0.82046  1.0000
  S   S51       1.0  0.04521  0.79288  0.82181  1.0000
  Fe  Fe28      1.0  0.01301  0.93132  0.79527  1.0000
  H   H322      1.0  0.05453  0.59912  0.80953  1.0000
  S   S52       1.0  0.08544  0.89197  0.84618  1.0000
  Fe  Fe29      1.0  0.16160  0.60133  0.83498  1.0000
  S   S53       1.0  0.12553  0.55820  0.85367  1.0000
  S   S54       1.0  0.15700  0.66629  0.84182  1.0000
  Fe  Fe30      1.0  0.20700  0.53802  0.80719  1.0000
  C   C399      1.0  0.22444  0.50188  0.95908  1.0000
  S   S55       1.0  0.25894  0.52453  0.78863  1.0000
  Fe  Fe31      1.0  0.13225  0.52991  0.80441  1.0000
  C   C400      1.0  0.17788  0.88324  0.67446  1.0000
  Fe  Fe32      1.0  0.16893  0.52379  0.87125  1.0000
  S   S56       1.0  0.35904  0.98415  0.66463  1.0000
  S   S57       1.0  0.16731  0.57417  0.78527  1.0000
  S   S58       1.0  0.20468  0.56882  0.85582  1.0000
  C   C401      1.0  0.18954  0.88579  0.91904  1.0000
  C   C402      1.0  0.13300  0.86544  0.91917  1.0000
  C   C403      1.0  0.35121  0.57450  0.79468  1.0000
  C   C404      1.0  0.43885  0.96204  0.98131  1.0000
  C   C405      1.0  0.13977  0.83881  0.94370  1.0000
  H   H323      1.0  0.16875  0.70128  0.90962  1.0000
  C   C406      1.0  0.33154  0.58936  0.76995  1.0000
  H   H324      1.0  0.44806  0.93107  0.73099  1.0000
  C   C407      1.0  0.01108  0.96518  0.94498  1.0000
  H   H325      1.0  0.34000  0.56437  0.81711  1.0000
  H   H326      1.0  0.23017  0.87773  0.67445  1.0000
  C   C408      1.0  0.07698  0.75833  0.82690  1.0000
  C   C409      1.0  0.10898  0.76808  0.83582  1.0000
  C   C410      1.0  0.13297  0.73967  0.84001  1.0000
  C   C411      1.0  0.12562  0.70101  0.83525  1.0000
  C   C412      1.0  0.09364  0.69130  0.82634  1.0000
  C   C413      1.0  0.06958  0.71967  0.82235  1.0000
  H   H327      1.0  0.11525  0.79749  0.83957  1.0000
  H   H328      1.0  0.15749  0.74773  0.84699  1.0000
  H   H329      1.0  0.08749  0.66189  0.82249  1.0000
  H   H330      1.0  0.04505  0.71162  0.81537  1.0000
  S   S59       1.0  0.08610  0.52094  0.77334  1.0000
  S   S60       1.0  0.05106  0.96844  0.81936  1.0000
  H   H331      1.0  0.28678  0.48565  0.87759  1.0000
  H   H332      1.0  0.16396  0.76562  0.93192  1.0000
  H   H333      1.0  0.30847  0.96022  0.83555  1.0000
  H   H334      1.0  0.15698  0.93835  0.96999  1.0000
  C   C414      1.0  0.05577  0.81761  0.91613  1.0000
  C   C415      1.0  0.35934  0.94667  0.84016  1.0000
  H   H335      1.0  0.06684  0.68171  0.92708  1.0000
  C   C416      1.0  0.03569  0.49451  0.73511  1.0000
  C   C417      1.0  0.20272  0.86523  0.80538  1.0000
  C   C418      1.0  0.21101  0.85138  0.83628  1.0000
  C   C419      1.0  0.24204  0.85864  0.84914  1.0000
  C   C420      1.0  0.26468  0.88014  0.83130  1.0000
  C   C421      1.0  0.25643  0.89437  0.80027  1.0000
  C   C422      1.0  0.22546  0.88617  0.78731  1.0000
  P   P14       1.0  0.28498  0.92250  0.77658  1.0000
  C   C423      1.0  0.11218  0.76092  0.94288  1.0000
  C   C424      1.0  0.32456  0.92376  0.79610  1.0000
  P   P15       1.0  0.10787  0.80820  0.95941  1.0000
  C   C425      1.0  0.02577  0.83253  0.90637  1.0000
  S   S61       1.0  0.44998  0.97597  0.79184  1.0000
  C   C426      1.0  0.38201  0.90678  0.79772  1.0000
  C   C427      1.0  0.35150  0.90488  0.78243  1.0000
  C   C428      1.0  0.14552  0.71107  0.91920  1.0000
  H   H336      1.0  0.23066  0.52458  0.94244  1.0000
  C   C429      1.0  0.05170  0.85178  0.96747  1.0000
  H   H337      1.0  0.36263  0.96319  0.86229  1.0000
  C   C430      1.0  0.28903  0.90134  0.73639  1.0000
  C   C431      1.0  0.28707  0.86184  0.73295  1.0000
  C   C432      1.0  0.11828  0.68731  0.91764  1.0000
  C   C433      1.0  0.37942  0.59902  0.73593  1.0000
  C   C434      1.0  0.38373  0.98208  0.70045  1.0000
  C   C435      1.0  0.29611  0.92350  0.70869  1.0000
  H   H338      1.0  0.17856  0.85994  0.79540  1.0000
  H   H339      1.0  0.19337  0.83489  0.85010  1.0000
  H   H340      1.0  0.24860  0.84744  0.87292  1.0000
  H   H341      1.0  0.28857  0.88514  0.84172  1.0000
  H   H342      1.0  0.21875  0.89634  0.76331  1.0000
  H   H343      1.0  0.15229  0.90897  0.88767  1.0000
  C   C436      1.0  0.27733  0.50754  0.75174  1.0000
  S   S62       1.0  0.17222  0.49184  0.82322  1.0000
  H   H344      1.0  0.40298  0.89293  0.78681  1.0000
  H   H345      1.0  0.34935  0.88913  0.75980  1.0000
  C   C437      1.0  0.18073  0.96044  0.72815  1.0000
  H   H346      1.0  0.40975  0.92935  0.83806  1.0000
  C   C438      1.0  0.01422  0.56031  0.81443  1.0000
  H   H347      1.0  0.22226  0.96165  0.79121  1.0000
  H   H348      1.0  0.28219  0.84405  0.75399  1.0000
  C   C439      1.0  0.06878  0.82680  0.94698  1.0000
  H   H349      1.0  0.06124  0.74597  0.95002  1.0000
  H   H350      1.0  0.01678  0.96321  0.71051  1.0000
  C   C440      1.0  0.40850  0.95462  0.70233  1.0000
  C   C441      1.0  0.39936  0.58396  0.76064  1.0000
  C   C442      1.0  0.09065  0.51311  0.65977  1.0000
  C   C443      1.0  0.08801  0.70003  0.92884  1.0000
  C   C444      1.0  0.38590  0.92750  0.82661  1.0000
  C   C445      1.0  0.34563  0.60162  0.74062  1.0000
  H   H351      1.0  0.18992  0.93195  0.72775  1.0000
  H   H352      1.0  0.39982  0.55917  0.80911  1.0000
  H   H353      1.0  0.02942  0.64794  0.84539  1.0000
  C   C446      1.0  0.19649  0.85962  0.94368  1.0000
  H   H354      1.0  0.40574  0.50812  0.73781  1.0000
  H   H355      1.0  0.02540  0.53953  0.79860  1.0000
  C   C447      1.0  0.47393  0.65328  0.82260  1.0000
  C   C448      1.0  0.32879  0.94495  0.82493  1.0000
  H   H356      1.0  0.30525  0.59058  0.77330  1.0000
  C   C449      1.0  0.44981  0.52695  0.76233  1.0000
  H   H357      1.0  0.99439  0.59797  0.66095  1.0000
  H   H358      1.0  0.02631  0.52293  0.73726  1.0000
  C   C450      1.0  0.42705  0.49975  0.75170  1.0000
  C   C451      1.0  0.03070  0.59425  0.82049  1.0000
  H   H359      1.0  0.29095  0.81437  0.70001  1.0000
  C   C452      1.0  0.26017  0.50450  0.72222  1.0000
  H   H360      1.0  0.17752  0.81592  0.97496  1.0000
  H   H361      1.0  0.32423  0.49979  0.77467  1.0000
  H   H362      1.0  0.12061  0.65933  0.90694  1.0000
  C   C453      1.0  0.29220  0.84486  0.70240  1.0000
  H   H363      1.0  0.07439  0.96975  0.72850  1.0000
  C   C454      1.0  0.45303  0.58770  0.71191  1.0000
  H   H364      1.0  0.01596  0.82534  0.88251  1.0000
  H   H365      1.0  0.12677  0.89429  0.66933  1.0000
  H   H366      1.0  0.42782  0.63018  0.80774  1.0000
  H   H367      1.0  0.33019  0.61242  0.72126  1.0000
  C   C455      1.0  0.15378  0.96924  0.74813  1.0000
  C   C456      1.0  0.02186  0.86698  0.95747  1.0000
  H   H368      1.0  0.45357  0.94009  0.93384  1.0000
  C   C457      1.0  0.29953  0.86713  0.67509  1.0000
  C   C458      1.0  0.42471  0.97694  0.75640  1.0000
  C   C459      1.0  0.45052  0.56034  0.68715  1.0000
  H   H369      1.0  0.46305  0.64686  0.72191  1.0000
  H   H370      1.0  0.09731  0.93156  0.96106  1.0000
  C   C460      1.0  0.15779  0.88871  0.90683  1.0000
  H   H371      1.0  0.38964  0.60799  0.71274  1.0000
  C   C461      1.0  0.27177  0.97112  0.77359  1.0000
  C   C462      1.0  0.03639  0.96151  0.69267  1.0000
  C   C463      1.0  0.42902  0.95217  0.73002  1.0000
  C   C464      1.0  0.30137  0.90640  0.67824  1.0000
  S   S63       1.0  0.13736  0.93342  0.77402  1.0000
  C   C465      1.0  0.14257  0.74773  0.93172  1.0000
  C   C466      1.0  0.01659  0.62162  0.84070  1.0000
  C   C467      1.0  0.00890  0.85737  0.92693  1.0000
  H   H372      1.0  0.10860  0.86846  0.90947  1.0000
  C   C468      1.0  0.17173  0.83623  0.95601  1.0000
  H   H373      1.0  0.20870  0.90381  0.90932  1.0000
  C   C469      1.0  0.27629  0.49226  0.69345  1.0000
  C   C470      1.0  0.20941  0.89180  0.66362  1.0000
  H   H374      1.0  0.00915  0.88710  0.97296  1.0000
  C   C471      1.0  0.06880  0.96522  0.70282  1.0000
  C   C472      1.0  0.46183  0.95204  0.95678  1.0000
  C   C473      1.0  0.38498  0.57164  0.79004  1.0000
  C   C474      1.0  0.45836  0.56948  0.65476  1.0000
  H   H375      1.0  0.41194  0.93519  0.68214  1.0000
  P   P16       1.0  0.44250  0.57647  0.75382  1.0000
  C   C475      1.0  0.31064  0.49758  0.75207  1.0000
  H   H376      1.0  0.06890  0.79939  0.89929  1.0000
  H   H377      1.0  0.22113  0.85733  0.95314  1.0000
  H   H378      1.0  0.29833  0.95388  0.71029  1.0000
  C   C476      1.0  0.11722  0.51675  0.68109  1.0000
  C   C477      1.0  0.45393  0.62960  0.80371  1.0000
  C   C478      1.0  0.09414  0.96289  0.67993  1.0000
  C   C479      1.0  0.08497  0.73657  0.94162  1.0000
  H   H379      1.0  0.99278  0.82087  0.72151  1.0000
  H   H380      1.0  0.46325  0.67159  0.84100  1.0000
  H   H381      1.0  0.17420  0.86256  0.69370  1.0000
  C   C480      1.0  0.23992  0.98195  0.78229  1.0000
  H   H382      1.0  0.23466  0.51223  0.72141  1.0000
  C   C481      1.0  0.98595  0.61498  0.85480  1.0000
  C   C482      1.0  0.46773  0.60604  0.77970  1.0000
  S   S64       1.0  0.16872  0.48921  0.91977  1.0000
  H   H383      1.0  0.41310  0.95753  0.97682  1.0000
  H   H384      1.0  0.44271  0.53183  0.69266  1.0000
  C   C483      1.0  0.46199  0.62485  0.70345  1.0000
  C   C484      1.0  0.02928  0.95595  0.65953  1.0000
  H   H385      1.0  0.06630  0.51071  0.66999  1.0000
  H   H386      1.0  0.98789  0.82227  0.78194  1.0000
  C   C485      1.0  0.47707  0.51507  0.78049  1.0000
  H   H387      1.0  0.16953  0.52150  0.68530  1.0000
  H   H388      1.0  0.02527  0.49559  0.85555  1.0000
  C   C486      1.0  0.14902  0.51846  0.66870  1.0000
  H   H389      1.0  0.11315  0.51827  0.70730  1.0000
  H   H390      1.0  0.26285  0.49050  0.67071  1.0000
  H   H391      1.0  0.21728  0.98096  0.69414  1.0000
  H   H392      1.0  0.30756  0.92373  0.65720  1.0000
  C   C487      1.0  0.06547  0.48531  0.75037  1.0000
  H   H393      1.0  0.47676  0.66257  0.66467  1.0000
  H   H394      1.0  0.98618  0.86991  0.91887  1.0000
  C   C488      1.0  0.46963  0.63396  0.67098  1.0000
  C   C489      1.0  0.15102  0.90169  0.66080  1.0000
  C   C490      1.0  0.01914  0.98299  0.97485  1.0000
  Fe  Fe33      1.0  0.94996  0.00543  0.14645  1.0000
  H   H395      1.0  0.49050  0.99486  0.03981  1.0000
  H   H396      1.0  0.95154  0.21129  0.20325  1.0000
  Fe  Fe34      1.0  0.91336  0.07846  0.12686  1.0000
  S   S65       1.0  0.87974  0.04667  0.09282  1.0000
  S   S66       1.0  0.91297  0.14285  0.13810  1.0000
  C   C491      1.0  0.80239  0.43819  0.30980  1.0000
  H   H397      1.0  0.64788  0.46041  0.14343  1.0000
  Fe  Fe35      1.0  0.92450  0.01434  0.07556  1.0000
  C   C492      1.0  0.70427  0.05321  0.27273  1.0000
  S   S67       1.0  0.90724  0.03688  0.16872  1.0000
  S   S68       1.0  0.95875  0.04895  0.10692  1.0000
  Fe  Fe36      1.0  0.80238  0.34513  0.13028  1.0000
  S   S69       1.0  0.82593  0.39103  0.09981  1.0000
  S   S70       1.0  0.80999  0.28033  0.12531  1.0000
  Fe  Fe37      1.0  0.75328  0.40284  0.16120  1.0000
  S   S71       1.0  0.70868  0.40227  0.19580  1.0000
  Fe  Fe38      1.0  0.77532  0.41308  0.08841  1.0000
  S   S72       1.0  0.75471  0.42226  0.03567  1.0000
  Fe  Fe39      1.0  0.82317  0.42651  0.14613  1.0000
  C   C493      1.0  0.67886  0.39681  0.07263  1.0000
  S   S73       1.0  0.75187  0.36520  0.11663  1.0000
  S   S74       1.0  0.80223  0.37955  0.17706  1.0000
  C   C494      1.0  0.56812  0.42647  0.20335  1.0000
  H   H398      1.0  0.68876  0.37908  0.05335  1.0000
  C   C495      1.0  0.68502  0.43754  0.21625  1.0000
  H   H399      1.0  0.65139  0.39644  0.23607  1.0000
  C   C496      1.0  0.89653  0.45923  0.25568  1.0000
  C   C497      1.0  0.92539  0.48107  0.25577  1.0000
  C   C498      1.0  0.55802  0.28946  0.26466  1.0000
  H   H400      1.0  0.69830  0.10870  0.29348  1.0000
  H   H401      1.0  0.89960  0.37594  0.07325  1.0000
  H   H402      1.0  0.85617  0.43708  0.22716  1.0000
  H   H403      1.0  0.75602  0.45016  0.24121  1.0000
  H   H404      1.0  0.53521  0.02994  0.28700  1.0000
  H   H405      1.0  0.88608  0.36624  0.19514  1.0000
  C   C499      1.0  0.88385  0.18059  0.13395  1.0000
  C   C500      1.0  0.85189  0.17477  0.12273  1.0000
  C   C501      1.0  0.82987  0.20550  0.12030  1.0000
  C   C502      1.0  0.83922  0.24265  0.12900  1.0000
  C   C503      1.0  0.87113  0.24843  0.14034  1.0000
  C   C504      1.0  0.89319  0.21773  0.14268  1.0000
  H   H406      1.0  0.84411  0.14662  0.11580  1.0000
  H   H407      1.0  0.80538  0.20045  0.11138  1.0000
  H   H408      1.0  0.87877  0.27659  0.14729  1.0000
  H   H409      1.0  0.91781  0.22282  0.15109  1.0000
  H   H410      1.0  0.81224  0.98665  0.26600  1.0000
  H   H411      1.0  0.75754  0.38071  0.24245  1.0000
  C   C505      1.0  0.91750  0.40136  0.11773  1.0000
  C   C506      1.0  0.51194  0.33219  0.25859  1.0000
  S   S75       1.0  0.86650  0.46483  0.15991  1.0000
  C   C507      1.0  0.87837  0.45369  0.22666  1.0000
  H   H412      1.0  0.96467  0.40880  0.25056  1.0000
  H   H413      1.0  0.80141  0.05781  0.25500  1.0000
  H   H414      1.0  0.52556  0.06608  0.07083  1.0000
  C   C508      1.0  0.49198  0.30109  0.25053  1.0000
  C   C509      1.0  0.54009  0.01199  0.26610  1.0000
  C   C510      1.0  0.93185  0.39504  0.14829  1.0000
  C   C511      1.0  0.65764  0.42615  0.23479  1.0000
  C   C512      1.0  0.96483  0.05208  0.23892  1.0000
  S   S76       1.0  0.77412  0.45174  0.13269  1.0000
  C   C513      1.0  0.92021  0.33447  0.10575  1.0000
  H   H415      1.0  0.54800  0.23040  0.25621  1.0000
  C   C514      1.0  0.76962  0.43627  0.26047  1.0000
  H   H416      1.0  0.95776  0.33617  0.26816  1.0000
  C   C515      1.0  0.74383  0.45375  0.00272  1.0000
  C   C516      1.0  0.71954  0.03165  0.24848  1.0000
  C   C517      1.0  0.63849  0.00814  0.22906  1.0000
  H   H417      1.0  0.56114  0.34952  0.27142  1.0000
  C   C518      1.0  0.74105  0.04880  0.22637  1.0000
  C   C519      1.0  0.74745  0.08780  0.22837  1.0000
  H   H418      1.0  0.94113  0.29938  0.14253  1.0000
  P   P17       1.0  0.77824  0.10839  0.20211  1.0000
  C   C520      1.0  0.77613  0.15951  0.20224  1.0000
  C   C521      1.0  0.81834  0.09668  0.21741  1.0000
  C   C522      1.0  0.82215  0.07203  0.24410  1.0000
  C   C523      1.0  0.85310  0.06557  0.25734  1.0000
  C   C524      1.0  0.88037  0.08410  0.24441  1.0000
  C   C525      1.0  0.87681  0.10872  0.21792  1.0000
  C   C526      1.0  0.84594  0.11500  0.20444  1.0000
  C   C527      1.0  0.78873  0.17982  0.22905  1.0000
  C   C528      1.0  0.69276  0.47610  0.21495  1.0000
  C   C529      1.0  0.77728  0.23897  0.20158  1.0000
  C   C530      1.0  0.76445  0.21903  0.17500  1.0000
  C   C531      1.0  0.76403  0.17951  0.17515  1.0000
  C   C532      1.0  0.77096  0.09099  0.16115  1.0000
  C   C533      1.0  0.73902  0.09136  0.14856  1.0000
  C   C534      1.0  0.73302  0.08024  0.11624  1.0000
  C   C535      1.0  0.75877  0.06805  0.09643  1.0000
  C   C536      1.0  0.79042  0.06652  0.10909  1.0000
  C   C537      1.0  0.79661  0.07796  0.14132  1.0000
  C   C538      1.0  0.94050  0.35831  0.15784  1.0000
  C   C539      1.0  0.66452  0.45933  0.09281  1.0000
  C   C540      1.0  0.90835  0.34182  0.28505  1.0000
  H   H419      1.0  0.75355  0.03138  0.20844  1.0000
  C   C541      1.0  0.71012  0.09210  0.27457  1.0000
  C   C542      1.0  0.95187  0.01570  0.24270  1.0000
  C   C543      1.0  0.92527  0.35139  0.22855  1.0000
  H   H420      1.0  0.85720  0.34908  0.29498  1.0000
  H   H421      1.0  0.89798  0.12289  0.20758  1.0000
  H   H422      1.0  0.84361  0.13449  0.18412  1.0000
  C   C544      1.0  0.52006  0.45168  0.24685  1.0000
  H   H423      1.0  0.79869  0.16503  0.24998  1.0000
  H   H424      1.0  0.77852  0.26959  0.20068  1.0000
  H   H425      1.0  0.75598  0.23436  0.15365  1.0000
  H   H426      1.0  0.75514  0.16508  0.15361  1.0000
  H   H427      1.0  0.71886  0.10103  0.16358  1.0000
  H   H428      1.0  0.58692  0.41680  0.18663  1.0000
  C   C545      1.0  0.87608  0.34961  0.27645  1.0000
  H   H429      1.0  0.67304  0.35097  0.10684  1.0000
  H   H430      1.0  0.82137  0.07642  0.15049  1.0000
  C   C546      1.0  0.95447  0.27215  0.20183  1.0000
  C   C547      1.0  0.54636  0.40058  0.21748  1.0000
  H   H431      1.0  0.88807  0.44662  0.27830  1.0000
  C   C548      1.0  0.52150  0.01633  0.23718  1.0000
  P   P18       1.0  0.95735  0.35070  0.19819  1.0000
  C   C549      1.0  0.91152  0.37109  0.09654  1.0000
  H   H432      1.0  0.78692  0.34731  0.28675  1.0000
  H   H433      1.0  0.60587  0.47589  0.05044  1.0000
  H   H434      1.0  0.61735  0.44340  0.26594  1.0000
  H   H435      1.0  0.72892  0.48314  0.07995  1.0000
  H   H436      1.0  0.60931  0.05757  0.23806  1.0000
  H   H437      1.0  0.71867  0.47262  0.29486  1.0000
  C   C550      1.0  0.52277  0.41288  0.24016  1.0000
  H   H438      1.0  0.93544  0.41873  0.16477  1.0000
  H   H439      1.0  0.65285  0.39209  0.15160  1.0000
  C   C551      1.0  0.50092  0.08447  0.02709  1.0000
  P   P19       1.0  0.49545  0.37966  0.25995  1.0000
  C   C552      1.0  0.67602  0.43573  0.06764  1.0000
  H   H440      1.0  0.69901  0.99364  0.16563  1.0000
  H   H441      1.0  0.84050  0.99949  0.21314  1.0000
  C   C553      1.0  0.65874  0.40424  0.12795  1.0000
  Fe  Fe40      1.0  0.87531  0.00421  0.13403  1.0000
  H   H442      1.0  0.75422  0.05924  0.07142  1.0000
  H   H443      1.0  0.85586  0.04623  0.27770  1.0000
  H   H444      1.0  0.90420  0.07939  0.25495  1.0000
  H   H445      1.0  0.92815  0.27542  0.20091  1.0000
  C   C554      1.0  0.53795  0.25873  0.25689  1.0000
  H   H446      1.0  0.73627  0.13941  0.25480  1.0000
  C   C555      1.0  0.61691  0.03681  0.22008  1.0000
  C   C556      1.0  0.49027  0.39438  0.30221  1.0000
  C   C557      1.0  0.61225  0.00938  0.16586  1.0000
  H   H447      1.0  0.58367  0.28498  0.26996  1.0000
  C   C558      1.0  0.93485  0.32806  0.13616  1.0000
  H   H448      1.0  0.91011  0.42970  0.11094  1.0000
  C   C559      1.0  0.96751  0.01632  0.29985  1.0000
  H   H449      1.0  0.58825  0.47868  0.99258  1.0000
  C   C560      1.0  0.77026  0.39675  0.26117  1.0000
  H   H450      1.0  0.48949  0.24068  0.24369  1.0000
  H   H451      1.0  0.70842  0.08102  0.10656  1.0000
  C   C561      1.0  0.60383  0.03746  0.18849  1.0000
  H   H452      1.0  0.60110  0.00999  0.14186  1.0000
  C   C562      1.0  0.95280  0.99766  0.27325  1.0000
  C   C563      1.0  0.97510  0.30401  0.20080  1.0000
  C   C564      1.0  0.67011  0.38103  0.10273  1.0000
  C   C565      1.0  0.88876  0.47004  0.19725  1.0000
  H   H453      1.0  0.91447  0.33548  0.31026  1.0000
  C   C566      1.0  0.97923  0.07053  0.26552  1.0000
  C   C567      1.0  0.78677  0.37794  0.28618  1.0000
  C   C568      1.0  0.65617  0.44327  0.12319  1.0000
  C   C569      1.0  0.78929  0.21938  0.22868  1.0000
  H   H454      1.0  0.68338  0.44741  0.04421  1.0000
  C   C570      1.0  0.73170  0.10940  0.25254  1.0000
  C   C571      1.0  0.54171  0.47749  0.23251  1.0000
  C   C572      1.0  0.63828  0.45273  0.25185  1.0000
  H   H455      1.0  0.84327  0.36452  0.23739  1.0000
  C   C573      1.0  0.56597  0.46487  0.21110  1.0000
  H   H456      1.0  0.58608  0.05881  0.18195  1.0000
  H   H457      1.0  0.50263  0.03760  0.23587  1.0000
  H   H458      1.0  0.79962  0.23487  0.24910  1.0000
  C   C574      1.0  0.93282  0.34240  0.26117  1.0000
  C   C575      1.0  0.54512  0.32601  0.26552  1.0000
  C   C576      1.0  0.86827  0.35819  0.24400  1.0000
  C   C577      1.0  0.89275  0.35922  0.22006  1.0000
  C   C578      1.0  0.55409  0.05465  0.02757  1.0000
  C   C579      1.0  0.73633  0.98566  0.12977  1.0000
  H   H459      1.0  0.81017  0.05623  0.09391  1.0000
  H   H460      1.0  0.54816  0.37109  0.21069  1.0000
  C   C580      1.0  0.52684  0.06835  0.04437  1.0000
  C   C581      1.0  0.50497  0.26455  0.24984  1.0000
  C   C582      1.0  0.80279  0.39867  0.31052  1.0000
  C   C583      1.0  0.52838  0.99413  0.20963  1.0000
  C   C584      1.0  0.98063  0.05262  0.29597  1.0000
  H   H461      1.0  0.50135  0.46213  0.26329  1.0000
  H   H462      1.0  0.91502  0.31086  0.08956  1.0000
  H   H463      1.0  0.57397  0.04195  0.04105  1.0000
  S   S77       1.0  0.50933  0.00114  0.17098  1.0000
  H   H464      1.0  0.64732  0.00665  0.25402  1.0000
  C   C585      1.0  0.78589  0.45737  0.28468  1.0000
  H   H465      1.0  0.68821  0.03964  0.29035  1.0000
  H   H466      1.0  0.96429  0.06554  0.21508  1.0000
  H   H467      1.0  0.75348  0.00420  0.14218  1.0000
  C   C586      1.0  0.55551  0.05711  0.99343  1.0000
  H   H468      1.0  0.71535  0.00139  0.24740  1.0000
  C   C587      1.0  0.50199  0.08679  0.99276  1.0000
  C   C588      1.0  0.96762  0.23575  0.20328  1.0000
  H   H469      1.0  0.94198  0.00142  0.22152  1.0000
  S   S78       1.0  0.93019  0.99334  0.02185  1.0000
  H   H470      1.0  0.58326  0.48483  0.20075  1.0000
  H   H471      1.0  0.56303  0.01848  0.56954  1.0000
  Fe  Fe41      1.0  0.77959  0.01866  0.58515  1.0000
  S   S79       1.0  0.74902  0.05409  0.61942  1.0000
  S   S80       1.0  0.76672  0.01288  0.53000  1.0000
  C   C589      1.0  0.97615  0.05039  0.63622  1.0000
  H   H472      1.0  0.93014  0.02339  0.64864  1.0000
  S   S81       1.0  0.82704  0.04675  0.60118  1.0000
  C   C590      1.0  0.68952  0.40548  0.61652  1.0000
  Fe  Fe42      1.0  0.91118  0.34015  0.63091  1.0000
  S   S82       1.0  0.87963  0.38814  0.61291  1.0000
  C   C591      1.0  0.52066  0.46424  0.48313  1.0000
  Fe  Fe43      1.0  0.92683  0.41915  0.60004  1.0000
  H   H473      1.0  0.50748  0.01876  0.59317  1.0000
  S   S83       1.0  0.95782  0.36962  0.61474  1.0000
  C   C592      1.0  0.98182  0.99240  0.58953  1.0000
  C   C593      1.0  0.88085  0.20292  0.61537  1.0000
  C   C594      1.0  0.87600  0.23967  0.62799  1.0000
  S   S84       1.0  0.92968  0.44738  0.65014  1.0000
  H   H474      1.0  0.75823  0.01653  0.46011  1.0000
  H   H475      1.0  0.90741  0.09109  0.63909  1.0000
  C   C595      1.0  0.64461  0.06976  0.59579  1.0000
  H   H476      1.0  0.81130  0.33214  0.62927  1.0000
  C   C596      1.0  0.74715  0.45630  0.61797  1.0000
  C   C597      1.0  0.73719  0.46964  0.58719  1.0000
  C   C598      1.0  0.48521  0.42279  0.36646  1.0000
  S   S85       1.0  0.93284  0.45480  0.55234  1.0000
  H   H477      1.0  0.71394  0.46135  0.57691  1.0000
  C   C599      1.0  0.64558  0.03512  0.61254  1.0000
  C   C600      1.0  0.54972  0.41806  0.62367  1.0000
  H   H478      1.0  0.90201  0.19743  0.60029  1.0000
  C   C601      1.0  0.51045  0.48045  0.45327  1.0000
  H   H479      1.0  0.53270  0.36473  0.32084  1.0000
  C   C602      1.0  0.97177  0.20585  0.61814  1.0000
  C   C603      1.0  0.77098  0.37088  0.63462  1.0000
  C   C604      1.0  0.95431  0.99417  0.60977  1.0000
  H   H480      1.0  0.96813  0.17646  0.57214  1.0000
  S   S86       1.0  0.90531  0.27629  0.61899  1.0000
  H   H481      1.0  0.52782  0.38970  0.37685  1.0000
  C   C605      1.0  0.51004  0.39745  0.35842  1.0000
  H   H482      1.0  0.53604  0.45238  0.58268  1.0000
  H   H483      1.0  0.85247  0.00806  0.35018  1.0000
  H   H484      1.0  0.97057  0.11307  0.59690  1.0000
  C   C606      1.0  0.65915  0.10198  0.60947  1.0000
  C   C607      1.0  0.65476  0.00900  0.53503  1.0000
  H   H485      1.0  0.48389  0.43462  0.39096  1.0000
  H   H486      1.0  0.61917  0.36638  0.56194  1.0000
  C   C608      1.0  0.67380  0.10007  0.64034  1.0000
  C   C609      1.0  0.65916  0.03384  0.64400  1.0000
  C   C610      1.0  0.49792  0.45361  0.50775  1.0000
  C   C611      1.0  0.85838  0.17321  0.62169  1.0000
  H   H487      1.0  0.90686  0.00502  0.32453  1.0000
  H   H488      1.0  0.86254  0.14539  0.61151  1.0000
  C   C612      1.0  0.55919  0.00759  0.59402  1.0000
  H   H489      1.0  0.65943  0.12835  0.59599  1.0000
  C   C613      1.0  0.83042  0.17972  0.64072  1.0000
  H   H490      1.0  0.67817  0.01833  0.48843  1.0000
  C   C614      1.0  0.54931  0.45162  0.60559  1.0000
  H   H491      1.0  0.63106  0.48148  0.49711  1.0000
  C   C615      1.0  0.84819  0.24606  0.64717  1.0000
  C   C616      1.0  0.97563  0.13380  0.64671  1.0000
  H   H492      1.0  0.61574  0.43120  0.58486  1.0000
  C   C617      1.0  0.96017  0.46075  0.51783  1.0000
  C   C618      1.0  0.97120  0.17356  0.59838  1.0000
  C   C619      1.0  0.74410  0.99249  0.46844  1.0000
  H   H493      1.0  0.68575  0.12476  0.65064  1.0000
  C   C620      1.0  0.51268  0.38339  0.32645  1.0000
  H   H494      1.0  0.81482  0.45352  0.32903  1.0000
  C   C621      1.0  0.95156  0.02288  0.63316  1.0000
  H   H495      1.0  0.50635  0.44129  0.53039  1.0000
  H   H496      1.0  0.65999  0.45616  0.61969  1.0000
  H   H497      1.0  0.63304  0.07182  0.57204  1.0000
  H   H498      1.0  0.96919  0.00259  0.32349  1.0000
  H   H499      1.0  0.48617  0.11638  0.62115  1.0000
  H   H500      1.0  0.71195  0.35072  0.60849  1.0000
  C   C622      1.0  0.63876  0.37727  0.57715  1.0000
  C   C623      1.0  0.63681  0.41378  0.59007  1.0000
  C   C624      1.0  0.66197  0.42781  0.60979  1.0000
  H   H501      1.0  0.53633  0.39355  0.61501  1.0000
  H   H502      1.0  0.81536  0.38418  0.33015  1.0000
  C   C625      1.0  0.56589  0.48377  0.61715  1.0000
  S   S87       1.0  0.80059  0.14353  0.64926  1.0000
  H   H503      1.0  0.96900  0.23365  0.60726  1.0000
  C   C626      1.0  0.58362  0.48156  0.64651  1.0000
  C   C627      1.0  0.97282  0.13761  0.61257  1.0000
  C   C628      1.0  0.77785  0.46702  0.63014  1.0000
  Fe  Fe44      1.0  0.82989  0.00207  0.64069  1.0000
  H   H504      1.0  0.67402  0.02346  0.54830  1.0000
  Fe  Fe45      1.0  0.79677  0.07946  0.63758  1.0000
  H   H505      1.0  0.77108  0.37833  0.60889  1.0000
  H   H506      1.0  0.54642  0.45973  0.48718  1.0000
  C   C629      1.0  0.66595  0.35477  0.58390  1.0000
  H   H507      1.0  0.66742  0.32639  0.57394  1.0000
  C   C630      1.0  0.69127  0.36876  0.60353  1.0000
  P   P20       1.0  0.72186  0.42460  0.64175  1.0000
  C   C631      1.0  0.52772  0.00823  0.60747  1.0000
  H   H508      1.0  0.49795  0.99593  0.64983  1.0000
  C   C632      1.0  0.62828  0.99230  0.55159  1.0000
  C   C633      1.0  0.65745  0.00582  0.50100  1.0000
  P   P21       1.0  0.62635  0.99346  0.59576  1.0000
  C   C634      1.0  0.58543  0.99333  0.61228  1.0000
  C   C635      1.0  0.79389  0.34481  0.64605  1.0000
  C   C636      1.0  0.52233  0.99531  0.63938  1.0000
  C   C637      1.0  0.87126  0.09724  0.71373  1.0000
  S   S88       1.0  0.80193  0.03578  0.67811  1.0000
  C   C638      1.0  0.78974  0.45416  0.73399  1.0000
  C   C639      1.0  0.90398  0.39369  0.83431  1.0000
  H   H509      1.0  0.52169  0.21960  0.71903  1.0000
  H   H510      1.0  0.64205  0.43524  0.73235  1.0000
  C   C640      1.0  0.67345  0.06608  0.65775  1.0000
  H   H511      1.0  0.53124  0.07501  0.94963  1.0000
  H   H512      1.0  0.68490  0.06440  0.68163  1.0000
  H   H513      1.0  0.87942  0.46809  0.74177  1.0000
  S   S89       1.0  0.91500  0.36351  0.68202  1.0000
  C   C641      1.0  0.53068  0.08149  0.69715  1.0000
  H   H514      1.0  0.78618  0.45654  0.65357  1.0000
  H   H515      1.0  0.80007  0.34766  0.81292  1.0000
  H   H516      1.0  0.89641  0.09729  0.76000  1.0000
  H   H517      1.0  0.66663  0.03190  0.78048  1.0000
  C   C642      1.0  0.94360  0.47563  0.88036  1.0000
  C   C643      1.0  0.74887  0.38801  0.65642  1.0000
  C   C644      1.0  0.52323  0.47806  0.71334  1.0000
  H   H518      1.0  0.84410  0.27390  0.65712  1.0000
  C   C645      1.0  0.53335  0.44499  0.72909  1.0000
  C   C646      1.0  0.89896  0.99323  0.70974  1.0000
  H   H519      1.0  0.58143  0.06756  0.70496  1.0000
  H   H520      1.0  0.52209  0.41828  0.72274  1.0000
  H   H521      1.0  0.84719  0.10051  0.72445  1.0000
  H   H522      1.0  0.87112  0.41053  0.87265  1.0000
  C   C647      1.0  0.68837  0.00784  0.73697  1.0000
  C   C648      1.0  0.92070  0.99297  0.73648  1.0000
  H   H523      1.0  0.57641  0.04603  0.98028  1.0000
  C   C649      1.0  0.87459  0.09526  0.67975  1.0000
  C   C650      1.0  0.49812  0.07297  0.70526  1.0000
  C   C651      1.0  0.51711  0.21016  0.96015  1.0000
  C   C652      1.0  0.92996  0.09172  0.71952  1.0000
  H   H524      1.0  0.70391  0.35194  0.77133  1.0000
  H   H525      1.0  0.53634  0.10437  0.68046  1.0000
  H   H526      1.0  0.78537  0.35434  0.87460  1.0000
  C   C653      1.0  0.51713  0.02107  0.73921  1.0000
  S   S90       1.0  0.49325  0.47826  0.68160  1.0000
  C   C654      1.0  0.92175  0.46922  0.90616  1.0000
  H   H527      1.0  0.95104  0.09149  0.73541  1.0000
  H   H528      1.0  0.56594  0.42077  0.76499  1.0000
  C   C655      1.0  0.70223  0.44892  0.67533  1.0000
  C   C656      1.0  0.75239  0.34573  0.79118  1.0000
  Fe  Fe46      1.0  0.75675  0.00830  0.65712  1.0000
  C   C657      1.0  0.50412  0.20635  0.70281  1.0000
  C   C658      1.0  0.49798  0.16747  0.70505  1.0000
  H   H529      1.0  0.73465  0.39267  0.70752  1.0000
  H   H530      1.0  0.71778  0.41043  0.97615  1.0000
  H   H531      1.0  0.83882  0.47711  0.79521  1.0000
  H   H532      1.0  0.53052  0.15269  0.96959  1.0000
  C   C659      1.0  0.93335  0.08912  0.68531  1.0000
  P   P22       1.0  0.80748  0.42373  0.84122  1.0000
  C   C660      1.0  0.84660  0.40815  0.82571  1.0000
  C   C661      1.0  0.80350  0.41100  0.88408  1.0000
  C   C662      1.0  0.72531  0.43977  0.97616  1.0000
  H   H533      1.0  0.59667  0.44688  0.68770  1.0000
  C   C663      1.0  0.79515  0.33598  0.67935  1.0000
  H   H534      1.0  0.77527  0.34692  0.72702  1.0000
  C   C664      1.0  0.79159  0.37513  0.89300  1.0000
  H   H535      1.0  0.78457  0.42507  0.74024  1.0000
  C   C665      1.0  0.66508  0.00949  0.76248  1.0000
  C   C666      1.0  0.77339  0.35296  0.70117  1.0000
  C   C667      1.0  0.88112  0.39003  0.77975  1.0000
  C   C668      1.0  0.85074  0.40107  0.79206  1.0000
  C   C669      1.0  0.77492  0.40111  0.81851  1.0000
  C   C670      1.0  0.74581  0.42054  0.81214  1.0000
  C   C671      1.0  0.51042  0.17175  0.96502  1.0000
  H   H536      1.0  0.75482  0.31658  0.78331  1.0000
  C   C672      1.0  0.55837  0.44651  0.75294  1.0000
  C   C673      1.0  0.77801  0.36346  0.80794  1.0000
  C   C674      1.0  0.97618  0.16641  0.66638  1.0000
  H   H537      1.0  0.65900  0.00775  0.65777  1.0000
  H   H538      1.0  0.80421  0.22204  0.66814  1.0000
  H   H539      1.0  0.49683  0.26523  0.95062  1.0000
  C   C675      1.0  0.80659  0.42782  0.94187  1.0000
  H   H540      1.0  0.51060  0.15116  0.72352  1.0000
  C   C676      1.0  0.81612  0.46258  0.71298  1.0000
  C   C677      1.0  0.49153  0.04171  0.72543  1.0000
  H   H541      1.0  0.69814  0.41847  0.78993  1.0000
  H   H542      1.0  0.81353  0.31671  0.68841  1.0000
  H   H543      1.0  0.88400  0.38473  0.75369  1.0000
  H   H544      1.0  0.92469  0.39093  0.85061  1.0000
  C   C678      1.0  0.72044  0.40300  0.79491  1.0000
  H   H545      1.0  0.88060  0.01500  0.70781  1.0000
  C   C679      1.0  0.71639  0.46328  0.94949  1.0000
  H   H546      1.0  0.70216  0.45184  0.92948  1.0000
  H   H547      1.0  0.54209  0.22035  0.96106  1.0000
  C   C680      1.0  0.56687  0.41630  0.65320  1.0000
  C   C681      1.0  0.80501  0.47448  0.83619  1.0000
  C   C682      1.0  0.78701  0.36591  0.92603  1.0000
  C   C683      1.0  0.72370  0.36558  0.78444  1.0000
  H   H548      1.0  0.50323  0.46776  0.80058  1.0000
  H   H549      1.0  0.96758  0.46293  0.88139  1.0000
  C   C684      1.0  0.89895  0.09546  0.73364  1.0000
  Fe  Fe47      1.0  0.95908  0.39647  0.66496  1.0000
  C   C685      1.0  0.48710  0.22833  0.68012  1.0000
  H   H550      1.0  0.83063  0.40450  0.77512  1.0000
  P   P23       1.0  0.97302  0.08799  0.66600  1.0000
  C   C686      1.0  0.55628  0.06062  0.71083  1.0000
  H   H551      1.0  0.77730  0.33846  0.93278  1.0000
  C   C687      1.0  0.81152  0.43701  0.90890  1.0000
  H   H552      1.0  0.67025  0.40185  0.68696  1.0000
  H   H553      1.0  0.74263  0.44933  0.82034  1.0000
  S   S91       1.0  0.84052  0.42466  0.69746  1.0000
  C   C688      1.0  0.66116  0.44933  0.71847  1.0000
  H   H554      1.0  0.93123  0.37748  0.79120  1.0000
  Fe  Fe48      1.0  0.88500  0.41282  0.66387  1.0000
  H   H555      1.0  0.56934  0.01496  0.74330  1.0000
  C   C689      1.0  0.49163  0.23545  0.95424  1.0000
  C   C690      1.0  0.75032  0.37890  0.68987  1.0000
  C   C691      1.0  0.54952  0.03080  0.73227  1.0000
  C   C692      1.0  0.79428  0.39233  0.95043  1.0000
  H   H556      1.0  0.70772  0.02868  0.73561  1.0000
  C   C693      1.0  0.87354  0.40469  0.84673  1.0000
  H   H557      1.0  0.96800  0.43912  0.78111  1.0000
  H   H558      1.0  0.51181  0.99761  0.75550  1.0000
  C   C694      1.0  0.58398  0.44797  0.66447  1.0000
  H   H559      1.0  0.91874  0.01462  0.75511  1.0000
  H   H560      1.0  0.81148  0.44850  0.96089  1.0000
  H   H561      1.0  0.56642  0.39063  0.66764  1.0000
  C   C695      1.0  0.90772  0.38616  0.80087  1.0000
  H   H562      1.0  0.82075  0.46477  0.90293  1.0000
  C   C696      1.0  0.82562  0.21644  0.65340  1.0000
  S   S92       1.0  0.60501  0.48110  0.79170  1.0000
  H   H563      1.0  0.90565  0.46893  0.79584  1.0000
  H   H564      1.0  0.92895  0.45172  0.92668  1.0000
  C   C697      1.0  0.67723  0.43062  0.69294  1.0000
  H   H565      1.0  0.78988  0.38557  0.97601  1.0000
  H   H566      1.0  0.98206  0.03171  0.71739  1.0000
  C   C698      1.0  0.57368  0.48097  0.76130  1.0000
  H   H567      1.0  0.97682  0.16406  0.69283  1.0000
  H   H568      1.0  0.97337  0.22738  0.66735  1.0000
  C   C699      1.0  0.90542  0.09160  0.66556  1.0000
  C   C700      1.0  0.76982  0.48306  0.74703  1.0000
  H   H569      1.0  0.74953  0.47615  0.76287  1.0000
  H   H570      1.0  0.87418  0.48125  0.92608  1.0000
  H   H571      1.0  0.49134  0.25859  0.67869  1.0000
  H   H572      1.0  0.85329  0.09706  0.66425  1.0000
  H   H573      1.0  0.76781  0.48239  0.87364  1.0000
  C   C701      1.0  0.52968  0.07333  0.97608  1.0000
  C   C702      1.0  0.97424  0.20228  0.65210  1.0000
  S   S93       1.0  0.65869  0.90593  0.27649  1.0000
  H   H574      1.0  0.95012  0.92747  0.06055  1.0000
  C   C703      1.0  0.80715  0.96622  0.18453  1.0000
  S   S94       1.0  0.75480  0.94468  0.28352  1.0000
  C   C704      1.0  0.60138  0.54095  0.10631  1.0000
  C   C705      1.0  0.62213  0.55030  0.17112  1.0000
  H   H575      1.0  0.97474  0.89454  0.24006  1.0000
  S   S95       1.0  0.53919  0.57231  0.28566  1.0000
  C   C706      1.0  0.59195  0.95982  0.06164  1.0000
  H   H576      1.0  0.66362  0.95792  0.21405  1.0000
  C   C707      1.0  0.67593  0.84194  0.18371  1.0000
  C   C708      1.0  0.79750  0.51164  0.21867  1.0000
  Fe  Fe49      1.0  0.65452  0.85899  0.31418  1.0000
  C   C709      1.0  0.89799  0.92069  0.18943  1.0000
  C   C710      1.0  0.59042  0.56045  0.16223  1.0000
  H   H577      1.0  0.83798  0.68603  0.31013  1.0000
  C   C711      1.0  0.75335  0.49184  0.00192  1.0000
  H   H578      1.0  0.62995  0.55362  0.19635  1.0000
  H   H579      1.0  0.54356  0.93989  0.04959  1.0000
  C   C712      1.0  0.67375  0.87497  0.16497  1.0000
  C   C713      1.0  0.65154  0.83311  0.20650  1.0000
  C   C714      1.0  0.64646  0.51454  0.04388  1.0000
  C   C715      1.0  0.61913  0.49370  0.03338  1.0000
  H   H580      1.0  0.78150  0.51689  0.08081  1.0000
  H   H581      1.0  0.66794  0.52738  0.15506  1.0000
  C   C716      1.0  0.76215  0.93694  0.21563  1.0000
  H   H582      1.0  0.95797  0.51414  0.22592  1.0000
  H   H583      1.0  0.74036  0.91955  0.21607  1.0000
  C   C717      1.0  0.77407  0.95243  0.24483  1.0000
  C   C718      1.0  0.67351  0.50265  0.23219  1.0000
  H   H584      1.0  0.63850  0.97709  0.08045  1.0000
  H   H585      1.0  0.80958  0.51470  0.16744  1.0000
  Fe  Fe50      1.0  0.70500  0.92328  0.30250  1.0000
  S   S96       1.0  0.82608  0.97545  0.14588  1.0000
  C   C719      1.0  0.50528  0.97297  0.99231  1.0000
  C   C720      1.0  0.97370  0.91367  0.05955  1.0000
  Fe  Fe51      1.0  0.63217  0.94137  0.31378  1.0000
  C   C721      1.0  0.76987  0.55197  0.17980  1.0000
  C   C722      1.0  0.74982  0.56569  0.20479  1.0000
  S   S97       1.0  0.91716  0.97001  0.11433  1.0000
  H   H586      1.0  0.76681  0.56196  0.15503  1.0000
  H   H587      1.0  0.69670  0.82339  0.18076  1.0000
  H   H588      1.0  0.71876  0.66344  0.28936  1.0000
  H   H589      1.0  0.59031  0.94113  0.24220  1.0000
  C   C723      1.0  0.57113  0.96192  0.24086  1.0000
  H   H590      1.0  0.73617  0.82996  0.23314  1.0000
  C   C724      1.0  0.71618  0.77611  0.24815  1.0000
  C   C725      1.0  0.97613  0.87696  0.04720  1.0000
  S   S98       1.0  0.64083  0.79976  0.29440  1.0000
  C   C726      1.0  0.74700  0.78987  0.30798  1.0000
  H   H591      1.0  0.62614  0.72583  0.26856  1.0000
  C   C727      1.0  0.75390  0.55284  0.23689  1.0000
  H   H592      1.0  0.70379  0.77096  0.22520  1.0000
  C   C728      1.0  0.74736  0.52171  0.30902  1.0000
  Fe  Fe52      1.0  0.57646  0.53023  0.30417  1.0000
  H   H593      1.0  0.73102  0.58620  0.19928  1.0000
  H   H594      1.0  0.65327  0.80794  0.22153  1.0000
  H   H595      1.0  0.87688  0.92835  0.17492  1.0000
  C   C729      1.0  0.73099  0.59160  0.09408  1.0000
  C   C730      1.0  0.74600  0.96685  0.10131  1.0000
  C   C731      1.0  0.71285  0.75013  0.27376  1.0000
  C   C732      1.0  0.56290  0.94022  0.06774  1.0000
  C   C733      1.0  0.58011  0.55594  0.12983  1.0000
  C   C734      1.0  0.63318  0.53022  0.11512  1.0000
  H   H596      1.0  0.76321  0.84227  0.28624  1.0000
  H   H597      1.0  0.78320  0.58645  0.08865  1.0000
  C   C735      1.0  0.72912  0.51329  0.08450  1.0000
  C   C736      1.0  0.73440  0.80922  0.25259  1.0000
  H   H598      1.0  0.78894  0.72554  0.30409  1.0000
  H   H599      1.0  0.73800  0.56386  0.25577  1.0000
  C   C737      1.0  0.54595  0.88311  0.28744  1.0000
  H   H600      1.0  0.57387  0.57178  0.18052  1.0000
  C   C738      1.0  0.79384  0.52520  0.18678  1.0000
  C   C739      1.0  0.61666  0.96071  0.08531  1.0000
  C   C740      1.0  0.52020  0.82167  0.29147  1.0000
  S   S99       1.0  0.62265  0.52639  0.27162  1.0000
  C   C741      1.0  0.93057  0.92822  0.23876  1.0000
  C   C742      1.0  0.90308  0.93762  0.21994  1.0000
  C   C743      1.0  0.55286  0.96653  0.21190  1.0000
  C   C744      1.0  0.92046  0.89453  0.17729  1.0000
  C   C745      1.0  0.94789  0.88500  0.19584  1.0000
  C   C746      1.0  0.95297  0.90175  0.22649  1.0000
  H   H601      1.0  0.60632  0.85055  0.22857  1.0000
  C   C747      1.0  0.64605  0.49125  0.25066  1.0000
  H   H602      1.0  0.89758  0.55410  0.28283  1.0000
  P   P24       1.0  0.93668  0.95033  0.27822  1.0000
  H   H603      1.0  0.59119  0.67252  0.28770  1.0000
  C   C748      1.0  0.51627  0.89888  0.27749  1.0000
  P   P25       1.0  0.64437  0.94332  0.14616  1.0000
  C   C749      1.0  0.75905  0.53249  0.08468  1.0000
  C   C750      1.0  0.72454  0.94167  0.08596  1.0000
  C   C751      1.0  0.61270  0.72856  0.29125  1.0000
  C   C752      1.0  0.62265  0.89007  0.19173  1.0000
  H   H604      1.0  0.69717  0.72587  0.27022  1.0000
  H   H605      1.0  0.53585  0.90660  0.10234  1.0000
  H   H606      1.0  0.91691  0.88224  0.15324  1.0000
  C   C753      1.0  0.62489  0.85714  0.21044  1.0000
  C   C754      1.0  0.49039  0.83746  0.28183  1.0000
  H   H607      1.0  0.67869  0.58841  0.09723  1.0000
  C   C755      1.0  0.77788  0.52571  0.24411  1.0000
  H   H608      1.0  0.87984  0.89958  0.27812  1.0000
  C   C756      1.0  0.77890  0.94333  0.18583  1.0000
  C   C757      1.0  0.75998  0.57165  0.08907  1.0000
  S   S100      1.0  0.58981  0.98221  0.30384  1.0000
  C   C758      1.0  0.67490  0.63271  0.30069  1.0000
  H   H609      1.0  0.71371  0.48541  0.20089  1.0000
  H   H610      1.0  0.55553  0.56399  0.12296  1.0000
  H   H611      1.0  0.96573  0.86548  0.18606  1.0000
  H   H612      1.0  0.67779  0.61267  0.28078  1.0000
  C   C759      1.0  0.58348  0.92148  0.12089  1.0000
  C   C760      1.0  0.69990  0.53313  0.08928  1.0000
  C   C761      1.0  0.69781  0.66161  0.30552  1.0000
  P   P26       1.0  0.78291  0.50837  0.28543  1.0000
  C   C762      1.0  0.48796  0.87647  0.27574  1.0000
  H   H613      1.0  0.73166  0.62200  0.09738  1.0000
  H   H614      1.0  0.60215  0.90854  0.19552  1.0000
  C   C763      1.0  0.74977  0.81611  0.28252  1.0000
  H   H615      1.0  0.68587  0.55151  0.02766  1.0000
  H   H616      1.0  0.84623  0.53398  0.25743  1.0000
  C   C764      1.0  0.64351  0.53548  0.14766  1.0000
  C   C765      1.0  0.61534  0.76231  0.30949  1.0000
  H   H617      1.0  0.76808  0.50314  0.02153  1.0000
  C   C766      1.0  0.66400  0.53619  0.02087  1.0000
  H   H618      1.0  0.55811  0.94925  0.19073  1.0000
  H   H619      1.0  0.67995  0.53230  0.23124  1.0000
  H   H620      1.0  0.56752  0.90079  0.28964  1.0000
  H   H621      1.0  0.76994  0.93030  0.16363  1.0000
  C   C767      1.0  0.68358  0.95408  0.12785  1.0000
  C   C768      1.0  0.71925  0.49884  0.30858  1.0000
  C   C769      1.0  0.64694  0.89935  0.16878  1.0000
  P   P27       1.0  0.66091  0.50958  0.08554  1.0000
  Fe  Fe53      1.0  0.50126  0.53364  0.30834  1.0000
  H   H622      1.0  0.69324  0.88142  0.14799  1.0000
  C   C770      1.0  0.70103  0.57244  0.09420  1.0000
  C   C771      1.0  0.89762  0.95214  0.29912  1.0000
  H   H623      1.0  0.51556  0.92851  0.27106  1.0000
  C   C772      1.0  0.96589  0.92346  0.30166  1.0000
  H   H624      1.0  0.92590  0.50477  0.17477  1.0000
  C   C773      1.0  0.54792  0.84456  0.29449  1.0000
  C   C774      1.0  0.60920  0.49501  0.00061  1.0000
  H   H625      1.0  0.73225  0.92674  0.06410  1.0000
  H   H626      1.0  0.81576  0.49026  0.22341  1.0000
  H   H627      1.0  0.88574  0.95831  0.22872  1.0000
  C   C775      1.0  0.84338  0.92569  0.30821  1.0000
  C   C776      1.0  0.61286  0.94102  0.11501  1.0000
  H   H628      1.0  0.95436  0.86236  0.03889  1.0000
  C   C777      1.0  0.82006  0.52709  0.30344  1.0000
  C   C778      1.0  0.87645  0.54815  0.29809  1.0000
  H   H629      1.0  0.59281  0.53790  0.08141  1.0000
  C   C779      1.0  0.55863  0.92125  0.09741  1.0000
  C   C780      1.0  0.69350  0.93513  0.09924  1.0000
  H   H630      1.0  0.57926  0.90680  0.14365  1.0000
  C   C781      1.0  0.59284  0.69817  0.30206  1.0000
  C   C782      1.0  0.87435  0.92343  0.29384  1.0000
  C   C783      1.0  0.93590  0.49725  0.22631  1.0000
  H   H631      1.0  0.59514  0.97449  0.03857  1.0000
  C   C784      1.0  0.72856  0.75660  0.30380  1.0000
  H   H632      1.0  0.53992  0.50729  0.23833  1.0000
  H   H633      1.0  0.53101  0.97749  0.99676  1.0000
  C   C785      1.0  0.84709  0.53652  0.28376  1.0000
  H   H634      1.0  0.67741  0.91485  0.08751  1.0000
  H   H635      1.0  0.82508  0.90422  0.30319  1.0000
  C   C786      1.0  0.65406  0.53728  0.98813  1.0000
  C   C787      1.0  0.91762  0.49187  0.19732  1.0000
  C   C788      1.0  0.63382  0.98035  0.17478  1.0000
  C   C789      1.0  0.81896  0.98174  0.21371  1.0000
  C   C790      1.0  0.80273  0.97455  0.24363  1.0000
  H   H636      1.0  0.77046  0.97124  0.09171  1.0000
  H   H637      1.0  0.52199  0.79162  0.29650  1.0000
  C   C791      1.0  0.70537  0.97929  0.14313  1.0000
  H   H638      1.0  0.57102  0.83239  0.30199  1.0000
  C   C792      1.0  0.96214  0.98261  0.99298  1.0000
  C   C793      1.0  0.56541  0.98518  0.26788  1.0000
  S   S101      1.0  0.94673  0.48764  0.29347  1.0000
  C   C794      1.0  0.64709  0.98012  0.20650  1.0000
  H   H639      1.0  0.63017  0.60725  0.31767  1.0000
  C   C795      1.0  0.95562  0.89427  0.32257  1.0000
  Fe  Fe54      1.0  0.67488  0.91258  0.37138  1.0000
  S   S102      1.0  0.70303  0.87390  0.33753  1.0000
  S   S103      1.0  0.68314  0.91207  0.42761  1.0000
  H   H640      1.0  0.59160  0.94976  0.48605  1.0000
  C   C796      1.0  0.50116  0.52221  0.57954  1.0000
  S   S104      1.0  0.62603  0.89395  0.35027  1.0000
  C   C797      1.0  0.64443  0.65464  0.34777  1.0000
  C   C798      1.0  0.73923  0.75726  0.39826  1.0000
  S   S105      1.0  0.58195  0.55856  0.35355  1.0000
  C   C799      1.0  0.79839  0.49053  0.61186  1.0000
  C   C800      1.0  0.74647  0.55660  0.32556  1.0000
  Fe  Fe55      1.0  0.53996  0.52202  0.37179  1.0000
  H   H641      1.0  0.68712  0.53216  0.57478  1.0000
  H   H642      1.0  0.75869  0.79599  0.33119  1.0000
  S   S106      1.0  0.50273  0.56496  0.35668  1.0000
  S   S107      1.0  0.67871  0.96248  0.33745  1.0000
  H   H643      1.0  0.58047  0.49193  0.52849  1.0000
  C   C801      1.0  0.64850  0.95169  0.60765  1.0000
  P   P28       1.0  0.56781  0.52609  0.59271  1.0000
  C   C802      1.0  0.60869  0.96707  0.49973  1.0000
  C   C803      1.0  0.50671  0.55640  0.51798  1.0000
  C   C804      1.0  0.59776  0.76518  0.33883  1.0000
  H   H644      1.0  0.80298  0.52147  0.35350  1.0000
  C   C805      1.0  0.58721  0.63206  0.62846  1.0000
  C   C806      1.0  0.63189  0.91787  0.61480  1.0000
  C   C807      1.0  0.76183  0.69737  0.34281  1.0000
  C   C808      1.0  0.57787  0.73482  0.34961  1.0000
  H   H645      1.0  0.56446  0.73750  0.37235  1.0000
  C   C809      1.0  0.70739  0.93982  0.45552  1.0000
  H   H646      1.0  0.49852  0.50898  0.60336  1.0000
  C   C810      1.0  0.78910  0.70363  0.32257  1.0000
  H   H647      1.0  0.60099  0.65681  0.62099  1.0000
  C   C811      1.0  0.71820  0.56779  0.34221  1.0000
  H   H648      1.0  0.81125  0.95808  0.33908  1.0000
  C   C812      1.0  0.68822  0.77594  0.37313  1.0000
  H   H649      1.0  0.92991  0.88814  0.32587  1.0000
  C   C813      1.0  0.70735  0.93064  0.48919  1.0000
  C   C814      1.0  0.96462  0.52648  0.61373  1.0000
  C   C815      1.0  0.72542  0.95220  0.51229  1.0000
  H   H650      1.0  0.71744  0.59480  0.35473  1.0000
  C   C816      1.0  0.64936  0.88523  0.62281  1.0000
  H   H651      1.0  0.50886  0.56884  0.49380  1.0000
  H   H652      1.0  0.60019  0.60003  0.58570  1.0000
  C   C817      1.0  0.68350  0.88597  0.62304  1.0000
  H   H653      1.0  0.79142  0.62341  0.38737  1.0000
  C   C818      1.0  0.53460  0.55052  0.53700  1.0000
  H   H654      1.0  0.63666  0.54265  0.60651  1.0000
  C   C819      1.0  0.53210  0.53254  0.56759  1.0000
  C   C820      1.0  0.85251  0.54130  0.35192  1.0000
  C   C821      1.0  0.68318  0.80233  0.39813  1.0000
  C   C822      1.0  0.70617  0.80638  0.42312  1.0000
  C   C823      1.0  0.73408  0.78370  0.42330  1.0000
  C   C824      1.0  0.79074  0.64579  0.36927  1.0000
  H   H655      1.0  0.72475  0.94479  0.53797  1.0000
  C   C825      1.0  0.87927  0.55031  0.33210  1.0000
  C   C826      1.0  0.60559  0.97069  0.53375  1.0000
  C   C827      1.0  0.63507  0.53002  0.58236  1.0000
  H   H656      1.0  0.85502  0.54225  0.37833  1.0000
  H   H657      1.0  0.76158  0.74105  0.39829  1.0000
  H   H658      1.0  0.69292  0.90688  0.49757  1.0000
  S   S108      1.0  0.55009  0.66335  0.34690  1.0000
  Fe  Fe56      1.0  0.54432  0.59964  0.33529  1.0000
  P   P29       1.0  0.72457  0.72390  0.33760  1.0000
  C   C828      1.0  0.96467  0.55777  0.63463  1.0000
  C   C829      1.0  0.58697  0.59970  0.60869  1.0000
  C   C830      1.0  0.81778  0.65216  0.34905  1.0000
  H   H659      1.0  0.60550  0.91649  0.61385  1.0000
  H   H660      1.0  0.58611  0.95569  0.54616  1.0000
  H   H661      1.0  0.66191  0.82055  0.39763  1.0000
  H   H662      1.0  0.70260  0.82774  0.44191  1.0000
  H   H663      1.0  0.75209  0.78739  0.44247  1.0000
  C   C831      1.0  0.71622  0.75312  0.37298  1.0000
  C   C832      1.0  0.64817  0.62933  0.32174  1.0000
  C   C833      1.0  0.66237  0.50636  0.53381  1.0000
  H   H664      1.0  0.96550  0.51267  0.44657  1.0000
  H   H665      1.0  0.55801  0.55984  0.52763  1.0000
  H   H666      1.0  0.74195  0.66289  0.38183  1.0000
  C   C834      1.0  0.56957  0.56737  0.61855  1.0000
  S   S109      1.0  0.54067  0.49303  0.42296  1.0000
  H   H667      1.0  0.59942  0.79079  0.35326  1.0000
  H   H668      1.0  0.62341  0.65211  0.36387  1.0000
  H   H669      1.0  0.90253  0.55799  0.34301  1.0000
  C   C835      1.0  0.57534  0.70095  0.33150  1.0000
  C   C836      1.0  0.66687  0.68414  0.35224  1.0000
  C   C837      1.0  0.76286  0.66827  0.36616  1.0000
  C   C838      1.0  0.68277  0.95198  0.60728  1.0000
  H   H670      1.0  0.72660  0.91991  0.61519  1.0000
  C   C839      1.0  0.70014  0.91923  0.61502  1.0000
  H   H671      1.0  0.66823  0.55364  0.35411  1.0000
  H   H672      1.0  0.66304  0.70363  0.37229  1.0000
  H   H673      1.0  0.94175  0.51487  0.60476  1.0000
  H   H674      1.0  0.67073  0.77408  0.35336  1.0000
  H   H675      1.0  0.72646  0.97862  0.41973  1.0000
  H   H676      1.0  0.63765  0.98086  0.45715  1.0000
  C   C840      1.0  0.66378  0.52367  0.56460  1.0000
  C   C841      1.0  0.69045  0.54466  0.34190  1.0000
  H   H677      1.0  0.93487  0.97339  0.60741  1.0000
  C   C842      1.0  0.97251  0.49268  0.46530  1.0000
  S   S110      1.0  0.87504  0.96543  0.65058  1.0000
  H   H678      1.0  0.94173  0.57029  0.64216  1.0000
  C   C843      1.0  0.60465  0.51986  0.56908  1.0000
  H   H679      1.0  0.66909  0.49296  0.32394  1.0000
  H   H680      1.0  0.92911  0.50181  0.49460  1.0000
  H   H681      1.0  0.83941  0.63472  0.35140  1.0000
  C   C844      1.0  0.69362  0.68809  0.33091  1.0000
  C   C845      1.0  0.72604  0.97096  0.44537  1.0000
  H   H682      1.0  0.69714  0.86079  0.62919  1.0000
  H   H683      1.0  0.80456  0.52153  0.56693  1.0000
  C   C846      1.0  0.55072  0.56873  0.64723  1.0000
  C   C847      1.0  0.97870  0.87245  0.33930  1.0000
  C   C848      1.0  0.82305  0.52967  0.33770  1.0000
  C   C849      1.0  0.63457  0.98469  0.48336  1.0000
  S   S111      1.0  0.78517  0.97185  0.62177  1.0000
  C   C850      1.0  0.81697  0.68110  0.32578  1.0000
  C   C851      1.0  0.69098  0.51030  0.32503  1.0000
  H   H684      1.0  0.63646  0.85929  0.62851  1.0000
  C   C852      1.0  0.60352  0.50151  0.53859  1.0000
  C   C853      1.0  0.83551  0.95620  0.32842  1.0000
  H   H685      1.0  0.97074  0.84988  0.35541  1.0000
  S   S112      1.0  0.53816  0.48973  0.32386  1.0000
  C   C854      1.0  0.95185  0.48648  0.49278  1.0000
  C   C855      1.0  0.85867  0.98448  0.33439  1.0000
  H   H686      1.0  0.69619  0.97750  0.60114  1.0000
  H   H687      1.0  0.76733  0.57551  0.32502  1.0000
  C   C856      1.0  0.63225  0.49513  0.52090  1.0000
  H   H688      1.0  0.68457  0.50150  0.51997  1.0000
  H   H689      1.0  0.82228  0.49805  0.62134  1.0000
  C   C857      1.0  0.78839  0.50368  0.58124  1.0000
  C   C858      1.0  0.57997  0.98128  0.64463  1.0000
  C   C859      1.0  0.75778  0.49329  0.56892  1.0000
  H   H690      1.0  0.75028  0.50316  0.54499  1.0000
  C   C860      1.0  0.74395  0.98348  0.50211  1.0000
  C   C861      1.0  0.88959  0.98256  0.31978  1.0000
  Fe  Fe57      1.0  0.56895  0.94753  0.81393  1.0000
  S   S113      1.0  0.53585  0.91380  0.78101  1.0000
  H   H691      1.0  0.96615  0.91613  0.71653  1.0000
  Fe  Fe58      1.0  0.52649  0.93069  0.87635  1.0000
  H   H692      1.0  0.57449  0.54080  0.75214  1.0000
  S   S114      1.0  0.52581  0.94680  0.93158  1.0000
  Fe  Fe59      1.0  0.53657  0.87007  0.82193  1.0000
  S   S115      1.0  0.54291  0.80667  0.80862  1.0000
  C   C862      1.0  0.66179  0.95165  0.71629  1.0000
  H   H693      1.0  0.85747  0.52126  0.87898  1.0000
  S   S116      1.0  0.57120  0.90326  0.85357  1.0000
  Fe  Fe60      1.0  0.65807  0.60970  0.82616  1.0000
  S   S117      1.0  0.63788  0.56097  0.85619  1.0000
  S   S118      1.0  0.64739  0.67343  0.83563  1.0000
  Fe  Fe61      1.0  0.70920  0.55659  0.79238  1.0000
  C   C863      1.0  0.82788  0.87267  0.73024  1.0000
  S   S119      1.0  0.75247  0.55872  0.75625  1.0000
  Fe  Fe62      1.0  0.64105  0.52727  0.80884  1.0000
  H   H694      1.0  0.79263  0.88004  0.69148  1.0000
  Fe  Fe63      1.0  0.69013  0.54269  0.86535  1.0000
  S   S120      1.0  0.71519  0.53307  0.91595  1.0000
  S   S121      1.0  0.65864  0.57672  0.77850  1.0000
  S   S122      1.0  0.71006  0.59305  0.83762  1.0000
  H   H695      1.0  0.85914  0.72813  0.81262  1.0000
  H   H696      1.0  0.79726  0.58311  0.82346  1.0000
  H   H697      1.0  0.94592  0.57630  0.86018  1.0000
  C   C864      1.0  0.77612  0.52095  0.73951  1.0000
  C   C865      1.0  0.89938  0.93186  0.87356  1.0000
  H   H698      1.0  0.92069  0.92130  0.79370  1.0000
  C   C866      1.0  0.82940  0.95156  0.73314  1.0000
  C   C867      1.0  0.74745  0.94667  0.77916  1.0000
  H   H699      1.0  0.53561  0.54479  0.65417  1.0000
  H   H700      1.0  0.79555  0.96391  0.79426  1.0000
  H   H701      1.0  0.86511  0.94527  0.77092  1.0000
  C   C868      1.0  0.57272  0.77040  0.81623  1.0000
  C   C869      1.0  0.59949  0.77565  0.83713  1.0000
  C   C870      1.0  0.62189  0.74584  0.84270  1.0000
  C   C871      1.0  0.61812  0.71018  0.82750  1.0000
  C   C872      1.0  0.59157  0.70511  0.80633  1.0000
  C   C873      1.0  0.56907  0.73485  0.80088  1.0000
  H   H702      1.0  0.60263  0.80251  0.84940  1.0000
  H   H703      1.0  0.64217  0.75034  0.85920  1.0000
  H   H704      1.0  0.58850  0.67831  0.79403  1.0000
  H   H705      1.0  0.54863  0.73025  0.78459  1.0000
  H   H706      1.0  0.73012  0.50101  0.67077  1.0000
  C   C874      1.0  0.79707  0.79126  0.80557  1.0000
  C   C875      1.0  0.93457  0.49861  0.85388  1.0000
  H   H707      1.0  0.65694  0.50105  0.74586  1.0000
  C   C876      1.0  0.78346  0.49583  0.85559  1.0000
  H   H708      1.0  0.56967  0.65768  0.67310  1.0000
  P   P30       1.0  0.87226  0.86282  0.78137  1.0000
  H   H709      1.0  0.80001  0.91452  0.83692  1.0000
  C   C877      1.0  0.82092  0.53194  0.80755  1.0000
  H   H710      1.0  0.89124  0.78422  0.79673  1.0000
  C   C878      1.0  0.84923  0.82115  0.79297  1.0000
  H   H711      1.0  0.61919  0.93245  0.74327  1.0000
  H   H712      1.0  0.66045  0.92908  0.69844  1.0000
  C   C879      1.0  0.70410  0.74824  0.81748  1.0000
  C   C880      1.0  0.71760  0.74194  0.84835  1.0000
  C   C881      1.0  0.72355  0.77241  0.86934  1.0000
  C   C882      1.0  0.71552  0.80917  0.85964  1.0000
  C   C883      1.0  0.70149  0.81577  0.82876  1.0000
  C   C884      1.0  0.69608  0.78490  0.80766  1.0000
  P   P31       1.0  0.68896  0.86302  0.81711  1.0000
  C   C885      1.0  0.66663  0.88501  0.85024  1.0000
  C   C886      1.0  0.72376  0.89322  0.80839  1.0000
  C   C887      1.0  0.72136  0.92189  0.78471  1.0000
  H   H713      1.0  0.62015  0.93365  0.92204  1.0000
  H   H714      1.0  0.53668  0.60180  0.68930  1.0000
  H   H715      1.0  0.75191  0.54470  0.97532  1.0000
  C   C888      1.0  0.75244  0.89065  0.82711  1.0000
  C   C889      1.0  0.66322  0.92450  0.85108  1.0000
  C   C890      1.0  0.56335  0.51403  0.74574  1.0000
  C   C891      1.0  0.63373  0.92016  0.90246  1.0000
  C   C892      1.0  0.63634  0.88076  0.90143  1.0000
  C   C893      1.0  0.65237  0.86318  0.87525  1.0000
  C   C894      1.0  0.66262  0.85929  0.78173  1.0000
  C   C895      1.0  0.62867  0.85598  0.78566  1.0000
  C   C896      1.0  0.60855  0.85079  0.75837  1.0000
  C   C897      1.0  0.62208  0.84890  0.72699  1.0000
  C   C898      1.0  0.65588  0.85181  0.72286  1.0000
  C   C899      1.0  0.67612  0.85668  0.75011  1.0000
  H   H716      1.0  0.69841  0.72436  0.80174  1.0000
  H   H717      1.0  0.72241  0.71321  0.85627  1.0000
  H   H718      1.0  0.73341  0.76734  0.89354  1.0000
  H   H719      1.0  0.71909  0.83222  0.87676  1.0000
  H   H720      1.0  0.68458  0.78853  0.78406  1.0000
  H   H721      1.0  0.69911  0.92582  0.77092  1.0000
  C   C900      1.0  0.94218  0.51064  0.78248  1.0000
  C   C901      1.0  0.91319  0.84795  0.72787  1.0000
  C   C902      1.0  0.90116  0.96553  0.68541  1.0000
  H   H722      1.0  0.75485  0.86966  0.84608  1.0000
  C   C903      1.0  0.82204  0.50046  0.70493  1.0000
  C   C904      1.0  0.95418  0.53330  0.75690  1.0000
  C   C905      1.0  0.64686  0.94196  0.87709  1.0000
  H   H723      1.0  0.62489  0.86381  0.92036  1.0000
  H   H724      1.0  0.65304  0.83261  0.87440  1.0000
  H   H725      1.0  0.61761  0.85683  0.80975  1.0000
  H   H726      1.0  0.58238  0.84794  0.76166  1.0000
  H   H727      1.0  0.60631  0.84506  0.70597  1.0000
  H   H728      1.0  0.66642  0.85047  0.69854  1.0000
  H   H729      1.0  0.70230  0.85825  0.74649  1.0000
  C   C906      1.0  0.94742  0.93751  0.71485  1.0000
  S   S123      1.0  0.97219  0.96741  0.77316  1.0000
  C   C907      1.0  0.90003  0.48665  0.74610  1.0000
  H   H730      1.0  0.80724  0.55855  0.71197  1.0000
  H   H731      1.0  0.93584  0.95804  0.84269  1.0000
  C   C908      1.0  0.80006  0.55301  0.82752  1.0000
  C   C909      1.0  0.84807  0.89073  0.75333  1.0000
  H   H732      1.0  0.92872  0.95834  0.95800  1.0000
  H   H733      1.0  0.49505  0.53489  0.78941  1.0000
  C   C910      1.0  0.86500  0.78667  0.79906  1.0000
  C   C911      1.0  0.93736  0.83944  0.78152  1.0000
  C   C912      1.0  0.95401  0.96512  0.96294  1.0000
  H   H734      1.0  0.79884  0.73220  0.81823  1.0000
  C   C913      1.0  0.52159  0.63030  0.79377  1.0000
  C   C914      1.0  0.80819  0.89395  0.70927  1.0000
  S   S124      1.0  0.69190  0.50565  0.82026  1.0000
  H   H735      1.0  0.59692  0.50582  0.65579  1.0000
  C   C915      1.0  0.81512  0.82321  0.79650  1.0000
  C   C916      1.0  0.64012  0.98215  0.76522  1.0000
  H   H736      1.0  0.97503  0.63631  0.87038  1.0000
  H   H737      1.0  0.82737  0.84214  0.72833  1.0000
  C   C917      1.0  0.69416  0.50502  0.70867  1.0000
  H   H738      1.0  0.83040  0.98216  0.73370  1.0000
  C   C918      1.0  0.63833  0.95349  0.74165  1.0000
  C   C919      1.0  0.78153  0.53498  0.85165  1.0000
  C   C920      1.0  0.89081  0.48577  0.90576  1.0000
  C   C921      1.0  0.92562  0.93778  0.68806  1.0000
  H   H739      1.0  0.92773  0.91641  0.66921  1.0000
  H   H740      1.0  0.84600  0.86366  0.84916  1.0000
  H   H741      1.0  0.77074  0.79296  0.80788  1.0000
  H   H742      1.0  0.52981  0.53835  0.71108  1.0000
  H   H743      1.0  0.89296  0.85575  0.71227  1.0000
  C   C922      1.0  0.72577  0.50143  0.94884  1.0000
  C   C923      1.0  0.68719  0.97847  0.71402  1.0000
  C   C924      1.0  0.55101  0.60109  0.66697  1.0000
  C   C925      1.0  0.97817  0.95642  0.93919  1.0000
  C   C926      1.0  0.90750  0.91668  0.81632  1.0000
  C   C927      1.0  0.84909  0.93041  0.75424  1.0000
  H   H744      1.0  0.80241  0.84945  0.79195  1.0000
  C   C928      1.0  0.94506  0.96519  0.73921  1.0000
  C   C929      1.0  0.77822  0.91609  0.82203  1.0000
  C   C930      1.0  0.80225  0.52938  0.71821  1.0000
  C   C931      1.0  0.49535  0.95757  0.96199  1.0000
  C   C932      1.0  0.84686  0.75474  0.80817  1.0000
  C   C933      1.0  0.94282  0.83763  0.71328  1.0000
  C   C934      1.0  0.62672  0.51673  0.97799  1.0000
  C   C935      1.0  0.77574  0.94400  0.79802  1.0000
  H   H745      1.0  0.86118  0.90090  0.89806  1.0000
  H   H746      1.0  0.90615  0.94805  0.89511  1.0000
  C   C936      1.0  0.96695  0.82928  0.76685  1.0000
  C   C937      1.0  0.88230  0.88979  0.81767  1.0000
  C   C938      1.0  0.81291  0.75701  0.81137  1.0000
  C   C939      1.0  0.91608  0.93754  0.84411  1.0000
  H   H747      1.0  0.61949  0.51726  0.95244  1.0000
  H   H748      1.0  0.70069  0.53386  0.71491  1.0000
  C   C940      1.0  0.74433  0.51537  0.97536  1.0000
  H   H749      1.0  0.76499  0.55119  0.86687  1.0000
  H   H750      1.0  0.51281  0.58943  0.75590  1.0000
  H   H751      1.0  0.83414  0.54572  0.78787  1.0000
  H   H752      1.0  0.93583  0.84013  0.80800  1.0000
  C   C941      1.0  0.87404  0.90528  0.87515  1.0000
  C   C942      1.0  0.80879  0.93336  0.71088  1.0000
  C   C943      1.0  0.86548  0.88427  0.84731  1.0000
  C   C944      1.0  0.93919  0.53250  0.72615  1.0000
  S   S125      1.0  0.52725  0.97720  0.83897  1.0000
  H   H753      1.0  0.54434  0.97197  0.68273  1.0000
  H   H754      1.0  0.89588  0.53300  0.83349  1.0000
  H   H755      1.0  0.67249  0.94195  0.83133  1.0000
  C   C945      1.0  0.91022  0.84892  0.76213  1.0000
  H   H756      1.0  0.84174  0.50751  0.68838  1.0000
  H   H757      1.0  0.74546  0.96837  0.76052  1.0000
  C   C946      1.0  0.82333  0.49282  0.81174  1.0000
  H   H758      1.0  0.94893  0.54949  0.70635  1.0000
  C   C947      1.0  0.53815  0.51252  0.72219  1.0000
  C   C948      1.0  0.50168  0.60701  0.77458  1.0000
  C   C949      1.0  0.91216  0.50914  0.72074  1.0000
  C   C950      1.0  0.88149  0.50840  0.87934  1.0000
  H   H759      1.0  0.54781  0.63027  0.79014  1.0000
  H   H760      1.0  0.79360  0.94979  0.69453  1.0000
  H   H761      1.0  0.90085  0.50803  0.69678  1.0000
  C   C951      1.0  0.50774  0.65357  0.81769  1.0000
  C   C952      1.0  0.96970  0.82842  0.73276  1.0000
  H   H762      1.0  0.94506  0.83745  0.68684  1.0000
  S   S126      1.0  0.71752  0.97251  0.68314  1.0000
  C   C953      1.0  0.98365  0.55313  0.82875  1.0000
  H   H763      1.0  0.52324  0.67193  0.83234  1.0000
  H   H764      1.0  0.60009  0.97156  0.65966  1.0000
  Fe  Fe64      1.0  0.49394  0.94062  0.80854  1.0000
  C   C954      1.0  0.91493  0.48733  0.77682  1.0000
  H   H765      1.0  0.66806  0.55340  0.97034  1.0000
  H   H766      1.0  0.97132  0.94296  0.91640  1.0000
  P   P32       1.0  0.96323  0.50850  0.82126  1.0000
  C   C955      1.0  0.96951  0.58085  0.84891  1.0000
  H   H767      1.0  0.97544  0.55106  0.76030  1.0000
  C   C956      1.0  0.90330  0.51490  0.85352  1.0000
  S   S127      1.0  0.49154  0.89461  0.84703  1.0000
  H   H768      1.0  0.64345  0.97234  0.87692  1.0000
  C   C957      1.0  0.54846  0.98182  0.65792  1.0000
  C   C958      1.0  0.56944  0.63264  0.65773  1.0000
  C   C959      1.0  0.66952  0.48656  0.72619  1.0000
  C   C960      1.0  0.71073  0.48624  0.68351  1.0000
  S   S128      1.0  0.61234  0.98499  0.79877  1.0000
