data_image0
_chemical_formula_structural       FeS2FeS2FeSFeS3FeS2FeS2FeCFeHS2HCFeS2FeSC2H2CSCHPH4C2PHC7H4C6H5CH2C2H2C2H4C4PC8HCHC7H3C2H3CH2CH6C2HC2H2C6HC8HC3H2C2H15CH2C4H2PC5HPC9HC2H2C2H4CH6CHSC5HCHCHCHC3H2SH2CHCH4C3HCH2SC8PC8H3C5HCH5CHC3H4C2H2C3H3CHC3H2CHC6H2C4H2FeSFeSFeS2FeSCFeS3C3H5CH4CSC6H4C4HC4HS2FeS2FeSCFeSC3H3C2H2CH4C6H3C2H2CH2CHC3H2C2HCH2CH3C3HC2H2C2HC7HC2H4C2H4CHC2H2C3H2C3SH3CH2C3HCHC3H2C5PHC6PC8HCPHC2H3C2HCH9CHC4HCHCHC3HC13PH4PHC2HCH4CH6C2H3C2PC13H2CHCHCHCHCHCHFeS2FeS2FeCFeS3FeS2FeS2FeCFeCS2CFeHCFeS2FeS2H3C2H2C2H2C5HC8H4C6H7FeH3CH2CH2CHC7HPCHC2H2C2H2C2H4PHCH2C7HCHCH6C6PC4SC13HC2HCHCH4FeC3H6CH3PH2CH4CSH3CSH2C3HC2HC5HC2H2CHC3HCSHC2HC2H3C6PC15HCH11C3H2C2H2CH3SH2CSHCHC2HCHC5HCHCHCH2CSC2H4C2H2C2HC4HSCH2CSC4HCHCHC2H2CHSFeH3C2H4CH2CHFeS2FeS2FeSFeS3FeS2FeS2FeCFeHS2CSFeS2FeSCHCH3C2H4CH4C7H4C6H4C2H3C4HC2HC6PC18H12CH7SH4C6H2CHCH4C7PCHCH2C5SH3CHFeH2CH2CHC4PC8HC5HCH9CHCH2C4PC8H3C6H4CH3C3H9C3SCHCHCHCSCH2CHCH3C2PC2HC2HCHC2SHCHCH2CHC4HC5FeSFeSFeS2FeSCFeS3C3H2CHC2HC2H4C5H5C2H3C2H2S2FeS2FeS2FeSC3H2C2HC4H3C6H4C6PC9H7CH4CHC6PC8HC4HSHC2H8CHC2H5C2HC5HC4PC7PH2C3H3CH2CH5C2HCH3CH6C2HC2H2CHC3H3CHC7PC5HC12H2CH3CHCH4CH9C2PC2HC2HC4H2C6H3C5HC2H2CHC2H2C2HCH2C3H5CHCHCH2CHCH3CHCH2CHCFeS2FeS2FeCFeS3FeS2FeS2FeHFeCS2H4FeS2FeS3H2CH2C5HC3H2C8H4C6H7PCSCHCH3SC5HC7H2CHCHC2H7C2HC17H2CH4C3H3CH9CH2C3H3C2H3C6PC3SCHCHCH2C7H6C2H4CFeCHC2H3C3HC3HPH2SC11H7C2PC3FePC4H2C7H15C2H2C2HC3HCHSCHC2HC2FeC3HCH2SHCSC5HCHCHCHCFeSHFeS2FeSFeS3FeS2FeS2FeSFeCS2FeSCPFeS2H2C3H2C2H2CH2SCHC2HC6H4CHCH3C5HC9H2C2HC2HCHCH2CHC5H2C5HPC18HC2HFeH2C3HCSH7CHCHSH3CH3CH4CH3C2H3C2HCSHCHC2H3C2PC3HPC15H3CH2C2H12C3HCHCPC8HCH11SC3H6CHCHC2HCHSCHCHC4H5CHCHC2H2C3H2C3H2CH4CH3C2HCHC2HFeSHFeSFeS2FeS2FeS3CHC3H3C5H4C3SC2H4FeSCSFeS2FeSC3H2C2HC3H2C7H3C4HCH4C6PH3C6H2C3SHCH6CH2PC2HC3HCHCHC2HCH10CH2CH2CSCH3CHC4HCHC10H2C2H5CH2C3H2C3HCH2CH2C4H4C5H3C2HCH4CPCH2CHC3PHCHC2H5C7PC3H2C11H4CH3C2HC2HCHC2H2CHCH2C4SH2C3H2C2H2C2H2C2H2CH2CPHPCFeSCFeSCFeSFeS3FeS2FeS2FeHFeS3FeSH2CH2CFeS2H2C2HC8HCHC6H4CSHC3H2SHC2SCSC4H2CH2CHC2H2C2HCHC2HC3H3C2SCH2C2H2C5H2C8HCHCH5CH4C2HC3HC2H2PC2HCHCPCSCHCH2C3HC8HFeCH2C2SH3CH3CHC2H3CH5CHC2HC2FeHCHC5HCH2CHC5HC2H3PCSCPC3H3C3H8CH2C6HC2H2CH4CSCFeSHC3H3C2HC2HCSCHC2HCH2CHCHCHC2HC2H2C5FeSHFeSCFeSFeS3FeS2FeS2FeSFeS3FeSHCFeS2H2CH2C2HCH3CHC4HC7H7CH2CH3C2HCHC6H4CH2C4HC2HC3H4CHC2HC3PCH2C6H3CH6CHCHC2HC3HSC5HC5H9C2H3C2H4C2H4C2PCHC6H2CHCHC2H5C2H2C8H2CH3C2H3C2H3SH4C2HC10PC7HCH2CHCHC2HCH2CHC2HC5HSHCHCHSHCSC2HC6H2FeSCFeSFeS2FeS2FeS3C5H2C6H4CHC4HCH2FeSCSFeS2FeSH3CH2CHC3H2C6H4CHCHCH3CH2C3HPC9HCHCHC2H8CH4CH2CH2C2H2CH2PCHCHC2H3CHCHC5HCHCHCHPCHCHCHC3HC6PC3HCHC10HCH2CH3C2HCH5CH2CHPH2C2HC4H2CH2C3HCH3C3H2CHCH2CHC2HC7HCHCHCH3C4HC2HC4HCHC2HCHC2H3C5H2C4HCHC2PH2FeSCFeS2FeSFeS3FeS2FeS2FeSFeS3FeS2HCH2CFeS2HC3HC4H2CHCH2C6H4C5H2CH2CH2CHC5HC2HC5H3C4H2C8H2C3H2C5HSC2HC2H5C2HC2H2PFeC5H2C3PHCHSPH2PCH2C2HCH3C3H3C2H2C2H2CH3C3H2C3HC3H3FeH7C2H2FeHSC2H3C4H3CSHFeHC3HC6H2CHC9PC18H15C2H2C2H7C2H4CHCPHCH3C3S
_chemical_formula_sum              "Fe128 S256 C1920 H1536 P64"
_cell_length_a       46.9663
_cell_length_b       32.8394
_cell_length_c       50.1668
_cell_angle_alpha    89.9592
_cell_angle_beta     90.0096
_cell_angle_gamma    90.1846

_space_group_name_H-M_alt    "P 1"
_space_group_IT_number       1

loop_
  _space_group_symop_operation_xyz
  'x, y, z'

loop_
  _atom_site_type_symbol
  _atom_site_label
  _atom_site_symmetry_multiplicity
  _atom_site_fract_x
  _atom_site_fract_y
  _atom_site_fract_z
  _atom_site_occupancy
  Fe  Fe1       1.0  0.41969  0.07731  0.24326  1.0000
  S   S1        1.0  0.42812  0.14470  0.24004  1.0000
  S   S2        1.0  0.45680  0.03624  0.25734  1.0000
  Fe  Fe2       1.0  0.35504  0.09208  0.23640  1.0000
  S   S3        1.0  0.36009  0.16013  0.23277  1.0000
  S   S4        1.0  0.31310  0.05572  0.23623  1.0000
  Fe  Fe3       1.0  0.39715  0.14593  0.20562  1.0000
  S   S5        1.0  0.41227  0.18813  0.17146  1.0000
  Fe  Fe4       1.0  0.39069  0.15426  0.26739  1.0000
  S   S6        1.0  0.39428  0.20398  0.29975  1.0000
  S   S7        1.0  0.39074  0.07751  0.20722  1.0000
  S   S8        1.0  0.38370  0.08708  0.27249  1.0000
  Fe  Fe5       1.0  0.07497  0.10853  0.23822  1.0000
  S   S9        1.0  0.05826  0.04427  0.23803  1.0000
  S   S10       1.0  0.05165  0.16887  0.22854  1.0000
  Fe  Fe6       1.0  0.13760  0.07771  0.24131  1.0000
  S   S11       1.0  0.12440  0.01141  0.24090  1.0000
  S   S12       1.0  0.18160  0.10881  0.24295  1.0000
  Fe  Fe7       1.0  0.09311  0.02929  0.20864  1.0000
  C   C1        1.0  0.02045  0.23977  0.00695  1.0000
  Fe  Fe8       1.0  0.09056  0.03072  0.27042  1.0000
  H   H1        1.0  0.17928  0.01902  0.05301  1.0000
  S   S13       1.0  0.10836  0.09413  0.20733  1.0000
  S   S14       1.0  0.10525  0.09631  0.27246  1.0000
  H   H2        1.0  0.16565  0.98341  0.01149  1.0000
  C   C2        1.0  0.01403  0.23316  0.22516  1.0000
  Fe  Fe9       1.0  0.38918  0.26610  0.01383  1.0000
  S   S15       1.0  0.38156  0.22050  0.04822  1.0000
  S   S16       1.0  0.38674  0.33467  0.01486  1.0000
  Fe  Fe10      1.0  0.11333  0.39400  0.01627  1.0000
  S   S17       1.0  0.11584  0.32590  0.00990  1.0000
  C   C3        1.0  0.11009  0.44375  0.08649  1.0000
  C   C4        1.0  0.47521  0.97525  0.22196  1.0000
  H   H3        1.0  0.05096  0.32401  0.04488  1.0000
  H   H4        1.0  0.07226  0.25481  0.06941  1.0000
  C   C5        1.0  0.11675  0.37233  0.31536  1.0000
  S   S18       1.0  0.07678  0.98660  0.30393  1.0000
  C   C6        1.0  0.01834  0.24104  0.30676  1.0000
  H   H5        1.0  0.05381  0.06153  0.14550  1.0000
  P   P1        1.0  0.46288  0.11532  0.04542  1.0000
  H   H6        1.0  0.32954  0.04634  0.29211  1.0000
  H   H7        1.0  0.02448  0.43408  0.15602  1.0000
  H   H8        1.0  0.04399  0.16624  0.13112  1.0000
  H   H9        1.0  0.47861  0.41171  0.17567  1.0000
  C   C7        1.0  0.48170  0.19409  0.10606  1.0000
  C   C8        1.0  0.40888  0.45217  0.24467  1.0000
  P   P2        1.0  0.40918  0.37660  0.30994  1.0000
  H   H10       1.0  0.42210  0.45773  0.22734  1.0000
  C   C9        1.0  0.99903  0.24605  0.09263  1.0000
  C   C10       1.0  0.40222  0.19759  0.13758  1.0000
  C   C11       1.0  0.38204  0.17386  0.12408  1.0000
  C   C12       1.0  0.37581  0.18162  0.09693  1.0000
  C   C13       1.0  0.38945  0.21331  0.08285  1.0000
  C   C14       1.0  0.40925  0.23742  0.09647  1.0000
  C   C15       1.0  0.41561  0.22961  0.12357  1.0000
  H   H11       1.0  0.37138  0.14931  0.13448  1.0000
  H   H12       1.0  0.36037  0.16274  0.08671  1.0000
  H   H13       1.0  0.42013  0.26138  0.08583  1.0000
  H   H14       1.0  0.43128  0.24817  0.13370  1.0000
  C   C16       1.0  0.27668  0.07136  0.23826  1.0000
  C   C17       1.0  0.26871  0.11227  0.24053  1.0000
  C   C18       1.0  0.23960  0.12295  0.24200  1.0000
  C   C19       1.0  0.21799  0.09308  0.24113  1.0000
  C   C20       1.0  0.22595  0.05217  0.23913  1.0000
  C   C21       1.0  0.25507  0.04146  0.23773  1.0000
  H   H15       1.0  0.28494  0.13571  0.24101  1.0000
  H   H16       1.0  0.23375  0.15466  0.24357  1.0000
  H   H17       1.0  0.20971  0.02878  0.23857  1.0000
  H   H18       1.0  0.26090  0.00973  0.23606  1.0000
  H   H19       1.0  0.40496  0.29230  0.28882  1.0000
  C   C22       1.0  0.04579  0.25591  0.30194  1.0000
  H   H20       1.0  0.01402  0.04453  0.11521  1.0000
  H   H21       1.0  0.99698  0.12804  0.19604  1.0000
  C   C23       1.0  0.45605  0.12688  0.01080  1.0000
  C   C24       1.0  0.01852  0.19366  0.23536  1.0000
  H   H22       1.0  0.99878  0.14576  0.10947  1.0000
  H   H23       1.0  0.45691  0.19437  0.31966  1.0000
  C   C25       1.0  0.23387  0.10684  0.31529  1.0000
  C   C26       1.0  0.39986  0.02948  0.05029  1.0000
  H   H24       1.0  0.46409  0.29797  0.17395  1.0000
  H   H25       1.0  0.14870  0.07296  0.07142  1.0000
  H   H26       1.0  0.46924  0.43686  0.03768  1.0000
  H   H27       1.0  0.03984  0.15170  0.05635  1.0000
  C   C27       1.0  0.47339  0.46819  0.10767  1.0000
  C   C28       1.0  0.46715  0.25069  0.20355  1.0000
  C   C29       1.0  0.46371  0.35321  0.29415  1.0000
  C   C30       1.0  0.03272  0.07315  0.14954  1.0000
  P   P3        1.0  0.08537  0.31504  0.28618  1.0000
  C   C31       1.0  0.47601  0.27204  0.18092  1.0000
  C   C32       1.0  0.10943  0.27381  0.27832  1.0000
  C   C33       1.0  0.13743  0.27386  0.28824  1.0000
  C   C34       1.0  0.15592  0.24181  0.28225  1.0000
  C   C35       1.0  0.14667  0.20960  0.26624  1.0000
  C   C36       1.0  0.11899  0.20951  0.25607  1.0000
  C   C37       1.0  0.10043  0.24145  0.26201  1.0000
  C   C38       1.0  0.02739  0.33801  0.18107  1.0000
  H   H28       1.0  0.11008  0.07325  0.14730  1.0000
  C   C39       1.0  0.41724  0.09760  0.07966  1.0000
  H   H29       1.0  0.44801  0.25973  0.21399  1.0000
  C   C40       1.0  0.08473  0.35070  0.25861  1.0000
  C   C41       1.0  0.07640  0.39127  0.26280  1.0000
  C   C42       1.0  0.07624  0.41902  0.24165  1.0000
  C   C43       1.0  0.08430  0.40659  0.21614  1.0000
  C   C44       1.0  0.09217  0.36620  0.21166  1.0000
  C   C45       1.0  0.09232  0.33829  0.23275  1.0000
  C   C46       1.0  0.02587  0.31987  0.28683  1.0000
  H   H30       1.0  0.07009  0.45035  0.24514  1.0000
  H   H31       1.0  0.02820  0.35046  0.27914  1.0000
  H   H32       1.0  0.48188  0.44924  0.09201  1.0000
  C   C47       1.0  0.36680  0.46749  0.27049  1.0000
  C   C48       1.0  0.37654  0.35038  0.31870  1.0000
  H   H33       1.0  0.16097  0.18474  0.26163  1.0000
  H   H34       1.0  0.11189  0.18452  0.24357  1.0000
  H   H35       1.0  0.07904  0.24081  0.25387  1.0000
  C   C49       1.0  0.08079  0.44895  0.09017  1.0000
  H   H36       1.0  0.06619  0.43988  0.07457  1.0000
  H   H37       1.0  0.07021  0.40170  0.28247  1.0000
  C   C50       1.0  0.47903  0.11942  0.17990  1.0000
  H   H38       1.0  0.08439  0.42826  0.19982  1.0000
  H   H39       1.0  0.09824  0.35662  0.19180  1.0000
  H   H40       1.0  0.09854  0.30724  0.22872  1.0000
  H   H41       1.0  0.12363  0.38477  0.29643  1.0000
  H   H42       1.0  0.06088  0.23740  0.12783  1.0000
  H   H43       1.0  0.43856  0.06649  0.31594  1.0000
  C   C51       1.0  0.99469  0.26560  0.30183  1.0000
  C   C52       1.0  0.04094  0.22891  0.11846  1.0000
  H   H44       1.0  0.14513  0.29854  0.30060  1.0000
  C   C53       1.0  0.27347  0.22893  0.26273  1.0000
  C   C54       1.0  0.02474  0.25805  0.10466  1.0000
  H   H45       1.0  0.34524  0.22869  0.27099  1.0000
  H   H46       1.0  0.39301  0.00327  0.03877  1.0000
  C   C55       1.0  0.12719  0.01809  0.00593  1.0000
  C   C56       1.0  0.43253  0.08624  0.05680  1.0000
  C   C57       1.0  0.32297  0.22270  0.27508  1.0000
  C   C58       1.0  0.39986  0.41560  0.28598  1.0000
  C   C59       1.0  0.11884  0.21742  0.99968  1.0000
  C   C60       1.0  0.02965  0.37969  0.13253  1.0000
  H   H47       1.0  0.36096  0.43272  0.30631  1.0000
  C   C61       1.0  0.03150  0.18858  0.12031  1.0000
  C   C62       1.0  0.33210  0.31844  0.30496  1.0000
  C   C63       1.0  0.07520  0.30851  0.09441  1.0000
  C   C64       1.0  0.09363  0.33864  0.10435  1.0000
  C   C65       1.0  0.12261  0.33776  0.09804  1.0000
  C   C66       1.0  0.13339  0.30707  0.08168  1.0000
  C   C67       1.0  0.11520  0.27695  0.07174  1.0000
  C   C68       1.0  0.08619  0.27770  0.07795  1.0000
  H   H48       1.0  0.47612  0.02872  0.05753  1.0000
  C   C69       1.0  0.35757  0.33830  0.29852  1.0000
  C   C70       1.0  0.47550  0.28779  0.27481  1.0000
  C   C71       1.0  0.04980  0.29529  0.29156  1.0000
  H   H49       1.0  0.09029  0.05636  0.00575  1.0000
  H   H50       1.0  0.48641  0.19188  0.12716  1.0000
  C   C72       1.0  0.28647  0.19196  0.30301  1.0000
  C   C73       1.0  0.11673  0.06786  0.04034  1.0000
  H   H51       1.0  0.47634  0.12957  0.10137  1.0000
  H   H52       1.0  0.01184  0.05439  0.99710  1.0000
  H   H53       1.0  0.47321  0.26439  0.05687  1.0000
  H   H54       1.0  0.02372  0.35507  0.00838  1.0000
  H   H55       1.0  0.03369  0.28377  0.15833  1.0000
  H   H56       1.0  0.25731  0.23927  0.24889  1.0000
  H   H57       1.0  0.43886  0.13455  0.29502  1.0000
  H   H58       1.0  0.08576  0.36341  0.11647  1.0000
  H   H59       1.0  0.13659  0.36182  0.10505  1.0000
  H   H60       1.0  0.15572  0.30732  0.07617  1.0000
  H   H61       1.0  0.12353  0.25378  0.05857  1.0000
  H   H62       1.0  0.37800  0.43420  0.03633  1.0000
  H   H63       1.0  0.33190  0.18759  0.31009  1.0000
  H   H64       1.0  0.42299  0.12442  0.09094  1.0000
  H   H65       1.0  0.31751  0.30938  0.28933  1.0000
  C   C74       1.0  0.00048  0.11077  0.17792  1.0000
  H   H66       1.0  0.16065  0.21066  0.01652  1.0000
  H   H67       1.0  0.20109  0.06731  0.29981  1.0000
  C   C75       1.0  0.42343  0.05230  0.04199  1.0000
  C   C76       1.0  0.39772  0.45124  0.03830  1.0000
  C   C77       1.0  0.37461  0.43798  0.28924  1.0000
  C   C78       1.0  0.18350  0.12253  0.31578  1.0000
  H   H68       1.0  0.36249  0.34427  0.27777  1.0000
  H   H69       1.0  0.16177  0.11420  0.31082  1.0000
  P   P4        1.0  0.09421  0.10798  0.05268  1.0000
  C   C79       1.0  0.10173  0.11986  0.08705  1.0000
  C   C80       1.0  0.10299  0.15134  0.03202  1.0000
  C   C81       1.0  0.13113  0.16613  0.03226  1.0000
  C   C82       1.0  0.44700  0.27590  0.27673  1.0000
  C   C83       1.0  0.01495  0.35475  0.02838  1.0000
  H   H70       1.0  0.42926  0.46608  0.16173  1.0000
  P   P5        1.0  0.03758  0.30989  0.10180  1.0000
  C   C84       1.0  0.10501  0.16049  0.09531  1.0000
  C   C85       1.0  0.11069  0.16948  0.12201  1.0000
  C   C86       1.0  0.11269  0.13807  0.14069  1.0000
  C   C87       1.0  0.10873  0.09764  0.13275  1.0000
  C   C88       1.0  0.10304  0.08853  0.10604  1.0000
  C   C89       1.0  0.05754  0.09113  0.05279  1.0000
  C   C90       1.0  0.05103  0.04926  0.05325  1.0000
  C   C91       1.0  0.02271  0.03608  0.05442  1.0000
  C   C92       1.0  0.00703  0.10607  0.05612  1.0000
  H   H71       1.0  0.44053  0.24572  0.27030  1.0000
  C   C93       1.0  0.03534  0.11940  0.05512  1.0000
  C   C94       1.0  0.12870  0.45584  0.10707  1.0000
  H   H72       1.0  0.43459  0.04347  0.02397  1.0000
  H   H73       1.0  0.00180  0.19962  0.03634  1.0000
  C   C95       1.0  0.31527  0.19980  0.29747  1.0000
  C   C96       1.0  0.46824  0.16151  0.06437  1.0000
  H   H74       1.0  0.14704  0.15211  0.04491  1.0000
  H   H75       1.0  0.15140  0.45186  0.10451  1.0000
  H   H76       1.0  0.49120  0.26706  0.26671  1.0000
  H   H77       1.0  0.44354  0.08959  0.16098  1.0000
  C   C97       1.0  0.48383  0.32639  0.28355  1.0000
  H   H78       1.0  0.10317  0.18533  0.08128  1.0000
  H   H79       1.0  0.11369  0.20078  0.12827  1.0000
  H   H80       1.0  0.11736  0.14517  0.16133  1.0000
  H   H81       1.0  0.06144  0.15840  0.01388  1.0000
  H   H82       1.0  0.09987  0.05703  0.10020  1.0000
  H   H83       1.0  0.06773  0.02655  0.05308  1.0000
  C   C98       1.0  0.46524  0.08625  0.16806  1.0000
  H   H84       1.0  0.01539  0.21017  0.31384  1.0000
  S   S19       1.0  0.12484  0.42257  0.05682  1.0000
  C   C99       1.0  0.43052  0.14626  0.00370  1.0000
  C   C100      1.0  0.03029  0.33685  0.04921  1.0000
  C   C101      1.0  0.47553  0.11618  0.99076  1.0000
  C   C102      1.0  0.43496  0.34158  0.29610  1.0000
  C   C103      1.0  0.44652  0.13095  0.31515  1.0000
  H   H85       1.0  0.25056  0.08605  0.30954  1.0000
  C   C104      1.0  0.02458  0.38033  0.18056  1.0000
  H   H86       1.0  0.38176  0.08388  0.10540  1.0000
  C   C105      1.0  0.39362  0.07474  0.08787  1.0000
  H   H87       1.0  0.43350  0.33951  0.23316  1.0000
  C   C106      1.0  0.08301  0.16954  0.01501  1.0000
  H   H88       1.0  0.03516  0.25366  0.02085  1.0000
  C   C107      1.0  0.41707  0.42321  0.26362  1.0000
  C   C108      1.0  0.01873  0.33522  0.07504  1.0000
  C   C109      1.0  0.00067  0.06450  0.05556  1.0000
  H   H89       1.0  0.47501  0.20008  0.22947  1.0000
  H   H90       1.0  0.41510  0.15458  0.01884  1.0000
  S   S20       1.0  0.46564  0.36893  0.98910  1.0000
  H   H91       1.0  0.42002  0.32735  0.10136  1.0000
  H   H92       1.0  0.03065  0.24751  0.21354  1.0000
  C   C110      1.0  0.30215  0.23693  0.25758  1.0000
  H   H93       1.0  0.39814  0.31987  0.19871  1.0000
  C   C111      1.0  0.02596  0.40117  0.15633  1.0000
  H   H94       1.0  0.02172  0.39706  0.19899  1.0000
  H   H95       1.0  0.42429  0.39850  0.03325  1.0000
  H   H96       1.0  0.01796  0.00376  0.05449  1.0000
  H   H97       1.0  0.43684  0.40710  0.26070  1.0000
  C   C112      1.0  0.01023  0.06370  0.13240  1.0000
  C   C113      1.0  0.10964  0.04848  0.01628  1.0000
  C   C114      1.0  0.16000  0.02772  0.04263  1.0000
  H   H98       1.0  0.36653  0.02320  0.07953  1.0000
  C   C115      1.0  0.13897  0.19911  0.01620  1.0000
  H   H99       1.0  0.39723  0.45289  0.11447  1.0000
  H   H100      1.0  0.13336  0.99540  0.14672  1.0000
  S   S21       1.0  0.07694  0.99294  0.17226  1.0000
  C   C116      1.0  0.42374  0.43102  0.03669  1.0000
  C   C117      1.0  0.38497  0.04066  0.07325  1.0000
  C   C118      1.0  0.37944  0.34588  0.08611  1.0000
  C   C119      1.0  0.35999  0.37774  0.08350  1.0000
  C   C120      1.0  0.36656  0.41620  0.09382  1.0000
  C   C121      1.0  0.39273  0.42300  0.10645  1.0000
  C   C122      1.0  0.41255  0.39124  0.10880  1.0000
  C   C123      1.0  0.40550  0.35255  0.09885  1.0000
  P   P6        1.0  0.44564  0.39837  0.12666  1.0000
  C   C124      1.0  0.45501  0.45185  0.12706  1.0000
  C   C125      1.0  0.44134  0.38022  0.16056  1.0000
  C   C126      1.0  0.41850  0.35446  0.16749  1.0000
  C   C127      1.0  0.41559  0.34016  0.19363  1.0000
  C   C128      1.0  0.43549  0.35118  0.21304  1.0000
  C   C129      1.0  0.45818  0.37681  0.20641  1.0000
  C   C130      1.0  0.46097  0.39165  0.18037  1.0000
  C   C131      1.0  0.00594  0.17700  0.10824  1.0000
  H   H101      1.0  0.39902  0.99096  0.26313  1.0000
  H   H102      1.0  0.30830  0.25361  0.23984  1.0000
  H   H103      1.0  0.40293  0.34489  0.15289  1.0000
  C   C132      1.0  0.42678  0.30261  0.28732  1.0000
  C   C133      1.0  0.47388  0.37109  0.10974  1.0000
  C   C134      1.0  0.47267  0.36513  0.08200  1.0000
  C   C135      1.0  0.14233  0.05786  0.05321  1.0000
  C   C136      1.0  0.15240  0.00775  0.01907  1.0000
  H   H104      1.0  0.45464  0.37573  0.07058  1.0000
  C   C137      1.0  0.48115  0.23211  0.09356  1.0000
  H   H105      1.0  0.37417  0.31582  0.07846  1.0000
  H   H106      1.0  0.33974  0.37243  0.07366  1.0000
  H   H107      1.0  0.46240  0.20299  0.03109  1.0000
  H   H108      1.0  0.06380  0.23645  0.30617  1.0000
  H   H109      1.0  0.24327  0.20030  0.28841  1.0000
  C   C138      1.0  0.03184  0.33704  0.13274  1.0000
  H   H110      1.0  0.29836  0.10626  0.29041  1.0000
  C   C139      1.0  0.09099  0.20248  0.99891  1.0000
  C   C140      1.0  0.03123  0.31641  0.15730  1.0000
  C   C141      1.0  0.46773  0.19986  0.05197  1.0000
  H   H111      1.0  0.45854  0.98526  0.20864  1.0000
  H   H112      1.0  0.47376  0.38487  0.22149  1.0000
  H   H113      1.0  0.03103  0.39642  0.11397  1.0000
  H   H114      1.0  0.35127  0.44072  0.09207  1.0000
  C   C142      1.0  0.08931  0.98124  0.13954  1.0000
  C   C143      1.0  0.26561  0.20670  0.28536  1.0000
  H   H115      1.0  0.46752  0.14777  0.18178  1.0000
  H   H116      1.0  0.48541  0.25941  0.10496  1.0000
  C   C144      1.0  0.47554  0.15888  0.09148  1.0000
  C   C145      1.0  0.02782  0.09641  0.17237  1.0000
  C   C146      1.0  0.47422  0.23496  0.06653  1.0000
  H   H117      1.0  0.17746  0.24188  0.28995  1.0000
  H   H118      1.0  0.47065  0.38307  0.30074  1.0000
  H   H119      1.0  0.04512  0.10272  0.18608  1.0000
  C   C147      1.0  0.07041  0.46597  0.11413  1.0000
  H   H120      1.0  0.02681  0.32204  0.19997  1.0000
  C   C148      1.0  0.00145  0.20895  0.01570  1.0000
  C   C149      1.0  0.09762  0.33935  0.31646  1.0000
  C   C150      1.0  0.47901  0.04868  0.16625  1.0000
  H   H121      1.0  0.00315  0.46370  0.02230  1.0000
  H   H122      1.0  0.99974  0.14524  0.25837  1.0000
  C   C151      1.0  0.44916  0.45278  0.03915  1.0000
  H   H123      1.0  0.46795  0.02267  0.15787  1.0000
  C   C152      1.0  0.48244  0.21670  0.21220  1.0000
  C   C153      1.0  0.11802  0.98412  0.13241  1.0000
  C   C154      1.0  0.32504  0.06300  0.31027  1.0000
  C   C155      1.0  0.30718  0.09692  0.30940  1.0000
  C   C156      1.0  0.49157  0.46505  0.26444  1.0000
  C   C157      1.0  0.99845  0.30493  0.29181  1.0000
  H   H124      1.0  0.04775  0.46999  0.11665  1.0000
  H   H125      1.0  0.02058  0.12794  0.99099  1.0000
  C   C158      1.0  0.99678  0.17556  0.25040  1.0000
  C   C159      1.0  0.47880  0.99481  0.24654  1.0000
  C   C160      1.0  0.20570  0.09593  0.30971  1.0000
  C   C161      1.0  0.11828  0.47257  0.13108  1.0000
  H   H126      1.0  0.28128  0.15530  0.99031  1.0000
  H   H127      1.0  0.49238  0.45636  0.28523  1.0000
  Fe  Fe11      1.0  0.41448  0.34409  0.47538  1.0000
  S   S22       1.0  0.44939  0.38710  0.45885  1.0000
  Fe  Fe12      1.0  0.35067  0.33072  0.48815  1.0000
  S   S23       1.0  0.30976  0.36803  0.49323  1.0000
  Fe  Fe13      1.0  0.38345  0.26527  0.45739  1.0000
  S   S24       1.0  0.37910  0.21265  0.42712  1.0000
  S   S25       1.0  0.37569  0.33182  0.44970  1.0000
  Fe  Fe14      1.0  0.09986  0.40991  0.45446  1.0000
  S   S26       1.0  0.10219  0.34097  0.45432  1.0000
  C   C162      1.0  0.46526  0.41585  0.57177  1.0000
  Fe  Fe15      1.0  0.07205  0.34263  0.48975  1.0000
  S   S27       1.0  0.03153  0.30503  0.50077  1.0000
  S   S28       1.0  0.13678  0.41648  0.48298  1.0000
  S   S29       1.0  0.06779  0.41165  0.48810  1.0000
  C   C163      1.0  0.27361  0.35164  0.48988  1.0000
  C   C164      1.0  0.25169  0.38079  0.49105  1.0000
  C   C165      1.0  0.22275  0.36925  0.48889  1.0000
  H   H128      1.0  0.25713  0.41259  0.49347  1.0000
  H   H129      1.0  0.20626  0.39212  0.48951  1.0000
  H   H130      1.0  0.47767  0.02562  0.40383  1.0000
  H   H131      1.0  0.44221  0.34265  0.35396  1.0000
  H   H132      1.0  0.16091  0.99642  0.51423  1.0000
  C   C166      1.0  0.08416  0.98010  0.33871  1.0000
  H   H133      1.0  0.12868  0.00538  0.55298  1.0000
  H   H134      1.0  0.33890  0.31616  0.37243  1.0000
  H   H135      1.0  0.29326  0.24428  0.43036  1.0000
  H   H136      1.0  0.32867  0.25137  0.39420  1.0000
  C   C167      1.0  0.02956  0.00334  0.42686  1.0000
  S   S30       1.0  0.10376  0.45657  0.41996  1.0000
  C   C168      1.0  0.99801  0.36476  0.64527  1.0000
  C   C169      1.0  0.38109  0.17124  0.35002  1.0000
  C   C170      1.0  0.37788  0.17413  0.37802  1.0000
  C   C171      1.0  0.38353  0.21082  0.39168  1.0000
  C   C172      1.0  0.39262  0.24458  0.37688  1.0000
  C   C173      1.0  0.39591  0.24164  0.34894  1.0000
  H   H137      1.0  0.34424  0.12628  0.55639  1.0000
  H   H138      1.0  0.37093  0.14770  0.38916  1.0000
  H   H139      1.0  0.39723  0.27294  0.38696  1.0000
  H   H140      1.0  0.40314  0.26792  0.33785  1.0000
  C   C174      1.0  0.16302  0.39443  0.57190  1.0000
  C   C175      1.0  0.48615  0.34822  0.56982  1.0000
  C   C176      1.0  0.47253  0.42591  0.47158  1.0000
  C   C177      1.0  0.30527  0.21390  0.36645  1.0000
  H   H141      1.0  0.47393  0.26004  0.54383  1.0000
  C   C178      1.0  0.48802  0.39035  0.56523  1.0000
  C   C179      1.0  0.01692  0.23308  0.47323  1.0000
  C   C180      1.0  0.01064  0.26004  0.49403  1.0000
  C   C181      1.0  0.08967  0.32357  0.34143  1.0000
  H   H142      1.0  0.03479  0.23947  0.46027  1.0000
  S   S31       1.0  0.42357  0.27718  0.48092  1.0000
  S   S32       1.0  0.35598  0.26337  0.49463  1.0000
  Fe  Fe16      1.0  0.39563  0.27981  0.51757  1.0000
  S   S33       1.0  0.41413  0.25358  0.55657  1.0000
  S   S34       1.0  0.38904  0.34756  0.51330  1.0000
  Fe  Fe17      1.0  0.10496  0.41346  0.51650  1.0000
  S   S35       1.0  0.10789  0.34535  0.52001  1.0000
  C   C182      1.0  0.45680  0.16467  0.32910  1.0000
  Fe  Fe18      1.0  0.13767  0.34861  0.48471  1.0000
  S   S36       1.0  0.17904  0.31154  0.48375  1.0000
  C   C183      1.0  0.21526  0.32819  0.48585  1.0000
  C   C184      1.0  0.23720  0.29905  0.48465  1.0000
  C   C185      1.0  0.26616  0.31063  0.48655  1.0000
  H   H143      1.0  0.23173  0.26724  0.48227  1.0000
  H   H144      1.0  0.28268  0.28781  0.48567  1.0000
  H   H145      1.0  0.22961  0.40762  0.54682  1.0000
  C   C186      1.0  0.08216  0.44168  0.62419  1.0000
  C   C187      1.0  0.08803  0.43683  0.59678  1.0000
  H   H146      1.0  0.12766  0.38697  0.38181  1.0000
  H   H147      1.0  0.04964  0.43513  0.33588  1.0000
  C   C188      1.0  0.41889  0.10726  0.60041  1.0000
  H   H148      1.0  0.06848  0.41998  0.63411  1.0000
  H   H149      1.0  0.07895  0.41153  0.58587  1.0000
  H   H150      1.0  0.12605  0.34232  0.62854  1.0000
  H   H151      1.0  0.14388  0.01297  0.46861  1.0000
  C   C189      1.0  0.38317  0.18411  0.63182  1.0000
  C   C190      1.0  0.36465  0.19017  0.61007  1.0000
  C   C191      1.0  0.37360  0.21137  0.58698  1.0000
  C   C192      1.0  0.40138  0.22669  0.58521  1.0000
  C   C193      1.0  0.42002  0.22032  0.60687  1.0000
  C   C194      1.0  0.41099  0.19938  0.63003  1.0000
  H   H152      1.0  0.34312  0.17848  0.61113  1.0000
  H   H153      1.0  0.35904  0.21575  0.57053  1.0000
  H   H154      1.0  0.44162  0.23172  0.60577  1.0000
  C   C195      1.0  0.48164  0.99195  0.63811  1.0000
  C   C196      1.0  0.05368  0.98292  0.62750  1.0000
  H   H155      1.0  0.40380  0.42706  0.53847  1.0000
  H   H156      1.0  0.04272  0.18134  0.55325  1.0000
  C   C197      1.0  0.43844  0.35757  0.58752  1.0000
  H   H157      1.0  0.06101  0.42047  0.38340  1.0000
  H   H158      1.0  0.42960  0.13172  0.56216  1.0000
  C   C198      1.0  0.38899  0.45212  0.54031  1.0000
  H   H159      1.0  0.09434  0.32852  0.38413  1.0000
  C   C199      1.0  0.42432  0.39936  0.33960  1.0000
  C   C200      1.0  0.28979  0.22903  0.41145  1.0000
  C   C201      1.0  0.39010  0.20510  0.33523  1.0000
  H   H160      1.0  0.03522  0.10800  0.54511  1.0000
  H   H161      1.0  0.40400  0.00216  0.45158  1.0000
  C   C202      1.0  0.30959  0.23347  0.39090  1.0000
  C   C203      1.0  0.18543  0.39370  0.55364  1.0000
  H   H162      1.0  0.35302  0.41724  0.52589  1.0000
  C   C204      1.0  0.07687  0.99461  0.64360  1.0000
  H   H163      1.0  0.14962  0.40959  0.61146  1.0000
  H   H164      1.0  0.45131  0.44438  0.40683  1.0000
  C   C205      1.0  0.10525  0.46513  0.58353  1.0000
  H   H165      1.0  0.17218  0.18091  0.33192  1.0000
  H   H166      1.0  0.07531  0.29786  0.34289  1.0000
  H   H167      1.0  0.36117  0.04355  0.56392  1.0000
  C   C206      1.0  0.43016  0.45705  0.36955  1.0000
  C   C207      1.0  0.08201  0.33669  0.64003  1.0000
  C   C208      1.0  0.02660  0.99280  0.53040  1.0000
  H   H168      1.0  0.18176  0.38266  0.53354  1.0000
  C   C209      1.0  0.36956  0.34218  0.34543  1.0000
  C   C210      1.0  0.45572  0.07963  0.41788  1.0000
  H   H169      1.0  0.46467  0.18737  0.55217  1.0000
  H   H170      1.0  0.35139  0.02485  0.33485  1.0000
  C   C211      1.0  0.23738  0.43393  0.64914  1.0000
  C   C212      1.0  0.28208  0.39653  0.64791  1.0000
  H   H171      1.0  0.40218  0.08057  0.63645  1.0000
  C   C213      1.0  0.45736  0.19051  0.41687  1.0000
  C   C214      1.0  0.37756  0.06120  0.57385  1.0000
  C   C215      1.0  0.48256  0.20208  0.56180  1.0000
  C   C216      1.0  0.43183  0.09340  0.43209  1.0000
  C   C217      1.0  0.46582  0.12186  0.36770  1.0000
  C   C218      1.0  0.46674  0.16016  0.35517  1.0000
  C   C219      1.0  0.07268  0.44382  0.37279  1.0000
  H   H172      1.0  0.00953  0.10188  0.46492  1.0000
  C   C220      1.0  0.10740  0.99949  0.38037  1.0000
  C   C221      1.0  0.45576  0.08802  0.35333  1.0000
  H   H173      1.0  0.12084  0.02052  0.39123  1.0000
  H   H174      1.0  0.00607  0.17658  0.45354  1.0000
  H   H175      1.0  0.40906  0.46052  0.33177  1.0000
  H   H176      1.0  0.11092  0.03290  0.34317  1.0000
  C   C222      1.0  0.10173  0.00671  0.35307  1.0000
  C   C223      1.0  0.00143  0.38953  0.62261  1.0000
  H   H177      1.0  0.44266  0.05389  0.50038  1.0000
  H   H178      1.0  0.44087  0.24955  0.42677  1.0000
  H   H179      1.0  0.43787  0.18132  0.40701  1.0000
  H   H180      1.0  0.24767  0.28846  0.63259  1.0000
  C   C224      1.0  0.43901  0.37476  0.35793  1.0000
  H   H181      1.0  0.42739  0.12550  0.43414  1.0000
  C   C225      1.0  0.05418  0.32763  0.63157  1.0000
  C   C226      1.0  0.38018  0.05853  0.60158  1.0000
  H   H182      1.0  0.32136  0.21708  0.35120  1.0000
  H   H183      1.0  0.41707  0.01171  0.53053  1.0000
  C   C227      1.0  0.99629  0.05191  0.52540  1.0000
  C   C228      1.0  0.09979  0.32374  0.59548  1.0000
  C   C229      1.0  0.07220  0.31443  0.58696  1.0000
  H   H184      1.0  0.34064  0.06278  0.37645  1.0000
  H   H185      1.0  0.37421  0.13579  0.47511  1.0000
  C   C230      1.0  0.01084  0.27631  0.65396  1.0000
  C   C231      1.0  0.44618  0.09261  0.32712  1.0000
  C   C232      1.0  0.00373  0.06688  0.42922  1.0000
  S   S37       1.0  0.11285  0.46165  0.54885  1.0000
  H   H186      1.0  0.11735  0.32224  0.58151  1.0000
  H   H187      1.0  0.06836  0.30595  0.56635  1.0000
  H   H188      1.0  0.02828  0.30837  0.59810  1.0000
  C   C233      1.0  0.10057  0.34063  0.36487  1.0000
  H   H189      1.0  0.04111  0.46999  0.44232  1.0000
  H   H190      1.0  0.30568  0.29481  0.33651  1.0000
  C   C234      1.0  0.21761  0.17128  0.33305  1.0000
  C   C235      1.0  0.19466  0.42156  0.60588  1.0000
  C   C236      1.0  0.18943  0.16015  0.32753  1.0000
  H   H191      1.0  0.29431  0.37054  0.64120  1.0000
  C   C237      1.0  0.27280  0.23880  0.64758  1.0000
  H   H192      1.0  0.24365  0.37636  0.62890  1.0000
  C   C238      1.0  0.44043  0.39943  0.58285  1.0000
  C   C239      1.0  0.48921  0.47179  0.50656  1.0000
  C   C240      1.0  0.35789  0.03623  0.49455  1.0000
  H   H193      1.0  0.42268  0.41905  0.58774  1.0000
  H   H194      1.0  0.39466  0.07637  0.45461  1.0000
  C   C241      1.0  0.04951  0.31606  0.60496  1.0000
  C   C242      1.0  0.16751  0.40842  0.59786  1.0000
  C   C243      1.0  0.44875  0.39110  0.38203  1.0000
  C   C244      1.0  0.44171  0.00972  0.42783  1.0000
  C   C245      1.0  0.49215  0.99037  0.51182  1.0000
  P   P7        1.0  0.20017  0.43843  0.63980  1.0000
  H   H195      1.0  0.34417  0.06129  0.48921  1.0000
  C   C246      1.0  0.12998  0.01725  0.48563  1.0000
  C   C247      1.0  0.13955  0.00795  0.51128  1.0000
  C   C248      1.0  0.12140  0.01296  0.53308  1.0000
  C   C249      1.0  0.09357  0.02677  0.52923  1.0000
  C   C250      1.0  0.08350  0.03497  0.50342  1.0000
  C   C251      1.0  0.10223  0.03133  0.48173  1.0000
  P   P8        1.0  0.04830  0.05571  0.49885  1.0000
  C   C252      1.0  0.02225  0.03220  0.52036  1.0000
  C   C253      1.0  0.05239  0.10950  0.50501  1.0000
  C   C254      1.0  0.04460  0.12658  0.52960  1.0000
  C   C255      1.0  0.04925  0.16802  0.53450  1.0000
  C   C256      1.0  0.06243  0.19234  0.51522  1.0000
  C   C257      1.0  0.07087  0.17530  0.49097  1.0000
  C   C258      1.0  0.06579  0.13407  0.48582  1.0000
  C   C259      1.0  0.44421  0.43214  0.38789  1.0000
  H   H196      1.0  0.45641  0.20357  0.49765  1.0000
  C   C260      1.0  0.47467  0.14492  0.48954  1.0000
  P   P9        1.0  0.02464  0.32779  0.65464  1.0000
  H   H197      1.0  0.02003  0.38705  0.61002  1.0000
  C   C261      1.0  0.03461  0.04677  0.46578  1.0000
  C   C262      1.0  0.04097  0.01060  0.45218  1.0000
  H   H198      1.0  0.03226  0.98901  0.63430  1.0000
  H   H199      1.0  0.30375  0.17031  0.54513  1.0000
  H   H200      1.0  0.03527  0.97590  0.41614  1.0000
  C   C263      1.0  0.47051  0.10286  0.49020  1.0000
  C   C264      1.0  0.06630  0.45221  0.34576  1.0000
  H   H201      1.0  0.45731  0.41516  0.64152  1.0000
  C   C265      1.0  0.01557  0.07456  0.45431  1.0000
  H   H202      1.0  0.07991  0.03063  0.54643  1.0000
  H   H203      1.0  0.09552  0.03898  0.46170  1.0000
  H   H204      1.0  0.45549  0.05799  0.36214  1.0000
  H   H205      1.0  0.41908  0.34452  0.59571  1.0000
  H   H206      1.0  0.06584  0.22455  0.51891  1.0000
  H   H207      1.0  0.08109  0.19425  0.47607  1.0000
  H   H208      1.0  0.07253  0.12123  0.46696  1.0000
  H   H209      1.0  0.48564  0.27292  0.44845  1.0000
  H   H210      1.0  0.45938  0.37178  0.39648  1.0000
  C   C266      1.0  0.10469  0.33492  0.62198  1.0000
  H   H211      1.0  0.27135  0.22123  0.62933  1.0000
  C   C267      1.0  0.36047  0.44652  0.53312  1.0000
  C   C268      1.0  0.41309  0.06552  0.44390  1.0000
  C   C269      1.0  0.47059  0.44066  0.49770  1.0000
  C   C270      1.0  0.45910  0.22947  0.42791  1.0000
  H   H212      1.0  0.03202  0.07870  0.64930  1.0000
  C   C271      1.0  0.35074  0.99729  0.48538  1.0000
  H   H213      1.0  0.01693  0.37378  0.45882  1.0000
  C   C272      1.0  0.41603  0.11056  0.57275  1.0000
  H   H214      1.0  0.43452  0.12565  0.61079  1.0000
  C   C273      1.0  0.21692  0.42220  0.58713  1.0000
  C   C274      1.0  0.11952  0.37344  0.36359  1.0000
  C   C275      1.0  0.46014  0.03740  0.41546  1.0000
  H   H215      1.0  0.04591  0.97620  0.52590  1.0000
  C   C276      1.0  0.34408  0.32228  0.35177  1.0000
  C   C277      1.0  0.25949  0.27672  0.64946  1.0000
  C   C278      1.0  0.10444  0.98577  0.63437  1.0000
  C   C279      1.0  0.42021  0.44078  0.34548  1.0000
  C   C280      1.0  0.30047  0.11809  0.33286  1.0000
  C   C281      1.0  0.12743  0.38946  0.33886  1.0000
  C   C282      1.0  0.32539  0.31030  0.33156  1.0000
  C   C283      1.0  0.33109  0.07210  0.35777  1.0000
  C   C284      1.0  0.31262  0.10543  0.35710  1.0000
  C   C285      1.0  0.28103  0.18944  0.36238  1.0000
  C   C286      1.0  0.26172  0.18406  0.38354  1.0000
  C   C287      1.0  0.26587  0.20429  0.40779  1.0000
  C   C288      1.0  0.46131  0.33212  0.58139  1.0000
  P   P10       1.0  0.47930  0.11538  0.40118  1.0000
  H   H216      1.0  0.41147  0.17567  0.51530  1.0000
  H   H217      1.0  0.14191  0.38508  0.56568  1.0000
  H   H218      1.0  0.00715  0.41554  0.41850  1.0000
  H   H219      1.0  0.37661  0.14283  0.33992  1.0000
  P   P11       1.0  0.27665  0.16123  0.33158  1.0000
  H   H220      1.0  0.00194  0.02554  0.39585  1.0000
  C   C289      1.0  0.41824  0.02376  0.44209  1.0000
  C   C290      1.0  0.24011  0.14450  0.32727  1.0000
  H   H221      1.0  0.45935  0.30001  0.58576  1.0000
  C   C291      1.0  0.33721  0.05079  0.33437  1.0000
  H   H222      1.0  0.30808  0.12118  0.37554  1.0000
  H   H223      1.0  0.24368  0.16368  0.38165  1.0000
  H   H224      1.0  0.25073  0.20038  0.42391  1.0000
  H   H225      1.0  0.42552  0.19494  0.64647  1.0000
  C   C292      1.0  0.25330  0.39993  0.64103  1.0000
  H   H226      1.0  0.45473  0.42810  0.51102  1.0000
  H   H227      1.0  0.38357  0.35093  0.36154  1.0000
  H   H228      1.0  0.29771  0.19634  0.49904  1.0000
  H   H229      1.0  0.49218  0.00526  0.53105  1.0000
  H   H230      1.0  0.36585  0.03920  0.61290  1.0000
  H   H231      1.0  0.48715  0.08281  0.48319  1.0000
  C   C293      1.0  0.40077  0.08166  0.61486  1.0000
  C   C294      1.0  0.38208  0.04212  0.51068  1.0000
  H   H232      1.0  0.46687  0.44829  0.56809  1.0000
  H   H233      1.0  0.22189  0.20115  0.34130  1.0000
  H   H234      1.0  0.33319  0.17898  0.46420  1.0000
  C   C295      1.0  0.21236  0.40780  0.56120  1.0000
  C   C296      1.0  0.39870  0.00822  0.51767  1.0000
  P   P12       1.0  0.39097  0.09214  0.52359  1.0000
  C   C297      1.0  0.42332  0.11246  0.50907  1.0000
  C   C298      1.0  0.36209  0.12681  0.51644  1.0000
  C   C299      1.0  0.35880  0.14245  0.49054  1.0000
  C   C300      1.0  0.33545  0.16689  0.48423  1.0000
  C   C301      1.0  0.31552  0.17674  0.50386  1.0000
  C   C302      1.0  0.31898  0.16216  0.52983  1.0000
  C   C303      1.0  0.34211  0.13718  0.53614  1.0000
  C   C304      1.0  0.42758  0.15486  0.50800  1.0000
  C   C305      1.0  0.45311  0.17092  0.49814  1.0000
  C   C306      1.0  0.01092  0.03143  0.41538  1.0000
  C   C307      1.0  0.39538  0.08744  0.55924  1.0000
  C   C308      1.0  0.44505  0.08658  0.50004  1.0000
  C   C309      1.0  0.09438  0.46531  0.38583  1.0000
  H   H235      1.0  0.05487  0.98804  0.46098  1.0000
  H   H236      1.0  0.33190  0.99276  0.47322  1.0000
  C   C310      1.0  0.48089  0.16428  0.41768  1.0000
  H   H237      1.0  0.47528  0.18662  0.36525  1.0000
  C   C311      1.0  0.48758  0.24351  0.55746  1.0000
  H   H238      1.0  0.23775  0.43386  0.59236  1.0000
  C   C312      1.0  0.00581  0.97416  0.54619  1.0000
  H   H239      1.0  0.46203  0.00459  0.63035  1.0000
  C   C313      1.0  0.00054  0.19719  0.46950  1.0000
  H   H240      1.0  0.14166  0.41548  0.33795  1.0000
  C   C314      1.0  0.48432  0.24262  0.43998  1.0000
  H   H241      1.0  0.12262  0.99426  0.64640  1.0000
  C   C315      1.0  0.99522  0.37845  0.45215  1.0000
  H   H242      1.0  0.44550  0.97724  0.42629  1.0000
  Fe  Fe19      1.0  0.41464  0.08099  0.74263  1.0000
  S   S38       1.0  0.42141  0.14671  0.72975  1.0000
  S   S39       1.0  0.45411  0.04149  0.75374  1.0000
  Fe  Fe20      1.0  0.34902  0.09523  0.74759  1.0000
  S   S40       1.0  0.35265  0.16063  0.73584  1.0000
  S   S41       1.0  0.30617  0.06690  0.75954  1.0000
  Fe  Fe21      1.0  0.38250  0.13875  0.70355  1.0000
  C   C316      1.0  0.25410  0.39367  0.79395  1.0000
  Fe  Fe22      1.0  0.39088  0.16287  0.76304  1.0000
  S   S42       1.0  0.39816  0.21783  0.79064  1.0000
  S   S43       1.0  0.37734  0.07211  0.71448  1.0000
  S   S44       1.0  0.38558  0.09839  0.77687  1.0000
  Fe  Fe23      1.0  0.07294  0.11692  0.75378  1.0000
  S   S45       1.0  0.06017  0.05060  0.75015  1.0000
  S   S46       1.0  0.04374  0.16853  0.76966  1.0000
  Fe  Fe24      1.0  0.13615  0.09673  0.74154  1.0000
  S   S47       1.0  0.12703  0.02978  0.73676  1.0000
  S   S48       1.0  0.17924  0.12921  0.73570  1.0000
  Fe  Fe25      1.0  0.08833  0.04866  0.71325  1.0000
  C   C317      1.0  0.04932  0.23323  0.84965  1.0000
  Fe  Fe26      1.0  0.09976  0.03602  0.77391  1.0000
  C   C318      1.0  0.27402  0.42347  0.80114  1.0000
  S   S49       1.0  0.09872  0.11592  0.71584  1.0000
  S   S50       1.0  0.11116  0.10209  0.77969  1.0000
  C   C319      1.0  0.21826  0.40222  0.72281  1.0000
  Fe  Fe27      1.0  0.35711  0.32876  0.97945  1.0000
  H   H243      1.0  0.29429  0.41616  0.92165  1.0000
  C   C320      1.0  0.46135  0.01522  0.85409  1.0000
  Fe  Fe28      1.0  0.39431  0.26551  0.95163  1.0000
  S   S51       1.0  0.39379  0.21712  0.91850  1.0000
  S   S52       1.0  0.39264  0.33404  0.94898  1.0000
  Fe  Fe29      1.0  0.10984  0.41060  0.95535  1.0000
  S   S53       1.0  0.11274  0.34403  0.94563  1.0000
  S   S54       1.0  0.11086  0.46389  0.92547  1.0000
  H   H244      1.0  0.22586  0.29289  0.75104  1.0000
  H   H245      1.0  0.24080  0.25956  0.97651  1.0000
  H   H246      1.0  0.18103  0.33026  0.75700  1.0000
  C   C321      1.0  0.44704  0.99609  0.87510  1.0000
  C   C322      1.0  0.48724  0.25365  0.77725  1.0000
  H   H247      1.0  0.24054  0.27163  0.92208  1.0000
  H   H248      1.0  0.01089  0.07312  0.85457  1.0000
  C   C323      1.0  0.14329  0.35355  0.69074  1.0000
  C   C324      1.0  0.32271  0.25926  0.78656  1.0000
  H   H249      1.0  0.17591  0.40042  0.73929  1.0000
  H   H250      1.0  0.17938  0.32081  0.86766  1.0000
  C   C325      1.0  0.99578  0.40778  0.93445  1.0000
  C   C326      1.0  0.02259  0.21487  0.84672  1.0000
  C   C327      1.0  0.01980  0.20339  0.65573  1.0000
  C   C328      1.0  0.19578  0.38410  0.73669  1.0000
  C   C329      1.0  0.16907  0.33939  0.68046  1.0000
  H   H251      1.0  0.37255  0.42670  0.71240  1.0000
  C   C330      1.0  0.27956  0.46057  0.67154  1.0000
  C   C331      1.0  0.38417  0.26188  0.67719  1.0000
  C   C332      1.0  0.39815  0.21668  0.82622  1.0000
  C   C333      1.0  0.40474  0.25240  0.84051  1.0000
  C   C334      1.0  0.40369  0.25323  0.86870  1.0000
  C   C335      1.0  0.39609  0.21819  0.88298  1.0000
  C   C336      1.0  0.39024  0.18224  0.86867  1.0000
  C   C337      1.0  0.39113  0.18149  0.84053  1.0000
  H   H252      1.0  0.41062  0.27968  0.82972  1.0000
  H   H253      1.0  0.40870  0.28092  0.87938  1.0000
  H   H254      1.0  0.38479  0.15476  0.87945  1.0000
  H   H255      1.0  0.38646  0.15362  0.82991  1.0000
  C   C338      1.0  0.27111  0.08484  0.75248  1.0000
  C   C339      1.0  0.26613  0.12158  0.73909  1.0000
  C   C340      1.0  0.23795  0.13463  0.73419  1.0000
  C   C341      1.0  0.21436  0.11104  0.74232  1.0000
  C   C342      1.0  0.21937  0.07439  0.75575  1.0000
  C   C343      1.0  0.24754  0.06153  0.76088  1.0000
  H   H256      1.0  0.28397  0.13982  0.73242  1.0000
  H   H257      1.0  0.23438  0.16295  0.72371  1.0000
  H   H258      1.0  0.20153  0.05594  0.76222  1.0000
  H   H259      1.0  0.25107  0.03312  0.77127  1.0000
  H   H260      1.0  0.42771  0.44056  0.77407  1.0000
  H   H261      1.0  0.02977  0.28373  0.70619  1.0000
  H   H262      1.0  0.45076  0.97991  0.71074  1.0000
  Fe  Fe30      1.0  0.42250  0.33468  0.98445  1.0000
  H   H263      1.0  0.01962  0.19310  0.83082  1.0000
  H   H264      1.0  0.24838  0.24850  0.83773  1.0000
  H   H265      1.0  0.07776  0.14773  0.82235  1.0000
  C   C344      1.0  0.15215  0.41951  0.67070  1.0000
  H   H266      1.0  0.27084  0.18803  0.77793  1.0000
  H   H267      1.0  0.32559  0.20899  0.92432  1.0000
  C   C345      1.0  0.36911  0.25077  0.70001  1.0000
  H   H268      1.0  0.28489  0.42788  0.87380  1.0000
  H   H269      1.0  0.49235  0.18071  0.65804  1.0000
  C   C346      1.0  0.31369  0.28816  0.76792  1.0000
  H   H270      1.0  0.08631  0.34530  0.66042  1.0000
  C   C347      1.0  0.01835  0.20412  0.75651  1.0000
  C   C348      1.0  0.41171  0.27753  0.67942  1.0000
  C   C349      1.0  0.43762  0.42249  0.70661  1.0000
  C   C350      1.0  0.10480  0.46652  0.89038  1.0000
  C   C351      1.0  0.47526  0.43967  0.88007  1.0000
  C   C352      1.0  0.02034  0.25247  0.98027  1.0000
  C   C353      1.0  0.24538  0.29182  0.97558  1.0000
  H   H271      1.0  0.46825  0.34514  0.65582  1.0000
  P   P13       1.0  0.45976  0.30260  0.70685  1.0000
  C   C354      1.0  0.28040  0.34696  0.97500  1.0000
  H   H272      1.0  0.39327  0.38290  0.77208  1.0000
  C   C355      1.0  0.36183  0.41292  0.79644  1.0000
  C   C356      1.0  0.31150  0.42534  0.90846  1.0000
  H   H273      1.0  0.25120  0.32863  0.67417  1.0000
  H   H274      1.0  0.21579  0.43261  0.71466  1.0000
  C   C357      1.0  0.35441  0.36941  0.69976  1.0000
  C   C358      1.0  0.44449  0.14532  0.95722  1.0000
  H   H275      1.0  0.47604  0.03998  0.85810  1.0000
  H   H276      1.0  0.31756  0.42463  0.66815  1.0000
  C   C359      1.0  0.28916  0.28110  0.75244  1.0000
  C   C360      1.0  0.29690  0.41348  0.81793  1.0000
  H   H277      1.0  0.48797  0.44541  0.83901  1.0000
  H   H278      1.0  0.12967  0.33344  0.70225  1.0000
  H   H279      1.0  0.02965  0.10374  0.69579  1.0000
  H   H280      1.0  0.07041  0.41932  0.83900  1.0000
  P   P14       1.0  0.32172  0.45201  0.82905  1.0000
  H   H281      1.0  0.33121  0.31494  0.69038  1.0000
  C   C361      1.0  0.30633  0.43198  0.88133  1.0000
  H   H282      1.0  0.44069  0.37452  0.73557  1.0000
  H   H283      1.0  0.34290  0.42436  0.93971  1.0000
  C   C362      1.0  0.03633  0.34265  0.68759  1.0000
  C   C363      1.0  0.04455  0.38322  0.69221  1.0000
  C   C364      1.0  0.05318  0.39569  0.71761  1.0000
  C   C365      1.0  0.05344  0.36786  0.73869  1.0000
  C   C366      1.0  0.04509  0.32749  0.73433  1.0000
  C   C367      1.0  0.03656  0.31489  0.70889  1.0000
  C   C368      1.0  0.05413  0.26106  0.87022  1.0000
  H   H284      1.0  0.19759  0.31220  0.91374  1.0000
  C   C369      1.0  0.03216  0.27061  0.88790  1.0000
  H   H285      1.0  0.29409  0.39298  0.75012  1.0000
  C   C370      1.0  0.00016  0.22501  0.86394  1.0000
  H   H286      1.0  0.03594  0.29180  0.90413  1.0000
  H   H287      1.0  0.04410  0.40544  0.67623  1.0000
  H   H288      1.0  0.05939  0.42716  0.72094  1.0000
  H   H289      1.0  0.05981  0.37779  0.75842  1.0000
  H   H290      1.0  0.04482  0.30595  0.75072  1.0000
  H   H291      1.0  0.23615  0.40179  0.78148  1.0000
  C   C371      1.0  0.44457  0.38317  0.71505  1.0000
  C   C372      1.0  0.03147  0.45623  0.94914  1.0000
  C   C373      1.0  0.03047  0.09015  0.85729  1.0000
  C   C374      1.0  0.04382  0.09059  0.88223  1.0000
  C   C375      1.0  0.06958  0.11177  0.88579  1.0000
  C   C376      1.0  0.08151  0.13294  0.86414  1.0000
  P   P15       1.0  0.08922  0.10794  0.91667  1.0000
  C   C377      1.0  0.06550  0.09174  0.94311  1.0000
  C   C378      1.0  0.11685  0.06997  0.91325  1.0000
  C   C379      1.0  0.13024  0.05443  0.93613  1.0000
  C   C380      1.0  0.15083  0.02392  0.93393  1.0000
  S   S55       1.0  0.35743  0.26083  0.98017  1.0000
  C   C381      1.0  0.14540  0.02451  0.88598  1.0000
  C   C382      1.0  0.12472  0.05486  0.88811  1.0000
  C   C383      1.0  0.05116  0.11993  0.95928  1.0000
  C   C384      1.0  0.46651  0.45244  0.97640  1.0000
  C   C385      1.0  0.26147  0.29933  0.67304  1.0000
  C   C386      1.0  0.21261  0.28454  0.84987  1.0000
  C   C387      1.0  0.06044  0.04997  0.94694  1.0000
  C   C388      1.0  0.10463  0.15731  0.92383  1.0000
  C   C389      1.0  0.08807  0.19266  0.92119  1.0000
  C   C390      1.0  0.10014  0.23103  0.92579  1.0000
  C   C391      1.0  0.12897  0.23446  0.93237  1.0000
  C   C392      1.0  0.14558  0.19954  0.93506  1.0000
  C   C393      1.0  0.13350  0.16108  0.93088  1.0000
  H   H292      1.0  0.06439  0.01925  0.84375  1.0000
  C   C394      1.0  0.02949  0.24354  0.65814  1.0000
  C   C395      1.0  0.00094  0.23364  0.96269  1.0000
  H   H293      1.0  0.03429  0.07352  0.89839  1.0000
  C   C396      1.0  0.47640  0.99968  0.74381  1.0000
  H   H294      1.0  0.12452  0.06566  0.95569  1.0000
  C   C397      1.0  0.03206  0.10629  0.97882  1.0000
  H   H295      1.0  0.33342  0.44210  0.74386  1.0000
  H   H296      1.0  0.44379  0.44999  0.97320  1.0000
  H   H297      1.0  0.11463  0.06548  0.87004  1.0000
  H   H298      1.0  0.05424  0.15232  0.95676  1.0000
  Fe  Fe31      1.0  0.08119  0.33395  0.97915  1.0000
  C   C398      1.0  0.45657  0.00259  0.82787  1.0000
  C   C399      1.0  0.46976  0.12546  0.96409  1.0000
  C   C400      1.0  0.25773  0.37478  0.97315  1.0000
  H   H299      1.0  0.06582  0.19063  0.91557  1.0000
  H   H300      1.0  0.08711  0.25815  0.92442  1.0000
  H   H301      1.0  0.13849  0.26411  0.93585  1.0000
  H   H302      1.0  0.16783  0.20246  0.94055  1.0000
  H   H303      1.0  0.14694  0.13461  0.93290  1.0000
  H   H304      1.0  0.30146  0.23294  0.70947  1.0000
  C   C401      1.0  0.04139  0.03651  0.96645  1.0000
  H   H305      1.0  0.31491  0.20030  0.80387  1.0000
  H   H306      1.0  0.38277  0.44336  0.90977  1.0000
  H   H307      1.0  0.34241  0.26384  0.79748  1.0000
  P   P16       1.0  0.28041  0.31451  0.72481  1.0000
  H   H308      1.0  0.35030  0.01536  0.77761  1.0000
  H   H309      1.0  0.05336  0.46638  0.94861  1.0000
  C   C402      1.0  0.29521  0.42690  0.66308  1.0000
  H   H310      1.0  0.42351  0.28472  0.66145  1.0000
  H   H311      1.0  0.45088  0.00581  0.89544  1.0000
  H   H312      1.0  0.46008  0.44265  0.92046  1.0000
  H   H313      1.0  0.16078  0.01151  0.95164  1.0000
  C   C403      1.0  0.17843  0.40592  0.66080  1.0000
  S   S56       1.0  0.07657  0.40165  0.98754  1.0000
  H   H314      1.0  0.48464  0.22525  0.78803  1.0000
  H   H315      1.0  0.20483  0.28874  0.82974  1.0000
  H   H316      1.0  0.45912  0.23573  0.74570  1.0000
  C   C404      1.0  0.08304  0.44202  0.84925  1.0000
  S   S57       1.0  0.04398  0.29090  0.96744  1.0000
  H   H317      1.0  0.99410  0.17814  0.91114  1.0000
  H   H318      1.0  0.37418  0.45543  0.86218  1.0000
  C   C405      1.0  0.42413  0.28273  0.70464  1.0000
  C   C406      1.0  0.40801  0.27445  0.72758  1.0000
  C   C407      1.0  0.38066  0.25804  0.72521  1.0000
  H   H319      1.0  0.03759  0.00411  0.96896  1.0000
  C   C408      1.0  0.35487  0.44826  0.81081  1.0000
  C   C409      1.0  0.04294  0.11035  0.83569  1.0000
  H   H320      1.0  0.46743  0.01765  0.81150  1.0000
  C   C410      1.0  0.18651  0.36539  0.66547  1.0000
  C   C411      1.0  0.24738  0.34191  0.73008  1.0000
  C   C412      1.0  0.27667  0.28413  0.69494  1.0000
  C   C413      1.0  0.22432  0.32349  0.74330  1.0000
  C   C414      1.0  0.09721  0.97439  0.83956  1.0000
  H   H321      1.0  0.25533  0.23760  0.74417  1.0000
  C   C415      1.0  0.28082  0.16848  0.97049  1.0000
  C   C416      1.0  0.30564  0.19913  0.93318  1.0000
  H   H322      1.0  0.41654  0.27977  0.74733  1.0000
  H   H323      1.0  0.36880  0.24986  0.74295  1.0000
  C   C417      1.0  0.47832  0.46048  0.85596  1.0000
  H   H324      1.0  0.45740  0.22037  0.68373  1.0000
  C   C418      1.0  0.47716  0.23477  0.67772  1.0000
  C   C419      1.0  0.31058  0.38627  0.73575  1.0000
  C   C420      1.0  0.35634  0.44727  0.87468  1.0000
  H   H325      1.0  0.32667  0.31503  0.76503  1.0000
  C   C421      1.0  0.19873  0.34462  0.74672  1.0000
  S   S58       1.0  0.37009  0.15832  0.66079  1.0000
  H   H326      1.0  0.38320  0.99415  0.81278  1.0000
  C   C422      1.0  0.27352  0.24499  0.75657  1.0000
  C   C423      1.0  0.30935  0.35054  0.72036  1.0000
  H   H327      1.0  0.10159  0.14893  0.86627  1.0000
  C   C424      1.0  0.28245  0.21644  0.77549  1.0000
  C   C425      1.0  0.30722  0.22335  0.79021  1.0000
  H   H328      1.0  0.06630  0.22578  0.83585  1.0000
  H   H329      1.0  0.23438  0.19164  0.92083  1.0000
  H   H330      1.0  0.07488  0.27519  0.87250  1.0000
  C   C426      1.0  0.33169  0.32186  0.90528  1.0000
  C   C427      1.0  0.34859  0.32591  0.88254  1.0000
  C   C428      1.0  0.34426  0.29996  0.86083  1.0000
  C   C429      1.0  0.32350  0.26942  0.86209  1.0000
  C   C430      1.0  0.30700  0.26454  0.88518  1.0000
  C   C431      1.0  0.31081  0.29161  0.90653  1.0000
  P   P17       1.0  0.27912  0.22681  0.88686  1.0000
  C   C432      1.0  0.24679  0.25496  0.88070  1.0000
  C   C433      1.0  0.28505  0.18542  0.86376  1.0000
  C   C434      1.0  0.26234  0.16756  0.84968  1.0000
  C   C435      1.0  0.26738  0.13571  0.83175  1.0000
  C   C436      1.0  0.29492  0.12060  0.82842  1.0000
  C   C437      1.0  0.31740  0.13698  0.84323  1.0000
  C   C438      1.0  0.31249  0.16912  0.86093  1.0000
  C   C439      1.0  0.23266  0.27418  0.90188  1.0000
  C   C440      1.0  0.20838  0.29760  0.89717  1.0000
  C   C441      1.0  0.19823  0.30258  0.87120  1.0000
  C   C442      1.0  0.35507  0.40534  0.71470  1.0000
  C   C443      1.0  0.23705  0.26128  0.85454  1.0000
  C   C444      1.0  0.27971  0.20383  0.91954  1.0000
  C   C445      1.0  0.07606  0.99525  0.85359  1.0000
  C   C446      1.0  0.28974  0.24579  0.69293  1.0000
  H   H331      1.0  0.05323  0.00090  0.89079  1.0000
  C   C447      1.0  0.25504  0.17211  0.95677  1.0000
  H   H332      1.0  0.33484  0.34188  0.92216  1.0000
  H   H333      1.0  0.36511  0.34897  0.88185  1.0000
  H   H334      1.0  0.35731  0.30311  0.84317  1.0000
  H   H335      1.0  0.32061  0.24950  0.84518  1.0000
  H   H336      1.0  0.29785  0.28913  0.92433  1.0000
  H   H337      1.0  0.24068  0.17770  0.85267  1.0000
  H   H338      1.0  0.24993  0.12230  0.82056  1.0000
  H   H339      1.0  0.29878  0.09582  0.81458  1.0000
  H   H340      1.0  0.33865  0.12469  0.84098  1.0000
  H   H341      1.0  0.33010  0.18120  0.87247  1.0000
  H   H342      1.0  0.34726  0.38745  0.79534  1.0000
  C   C448      1.0  0.24375  0.38106  0.71917  1.0000
  C   C449      1.0  0.33148  0.34233  0.70234  1.0000
  C   C450      1.0  0.42486  0.15554  0.97701  1.0000
  H   H343      1.0  0.48740  0.02600  0.93989  1.0000
  H   H344      1.0  0.15090  0.01246  0.86653  1.0000
  C   C451      1.0  0.46996  0.97452  0.72209  1.0000
  C   C452      1.0  0.00789  0.20182  0.73042  1.0000
  H   H345      1.0  0.43723  0.46476  0.67378  1.0000
  H   H346      1.0  0.01575  0.23789  0.79325  1.0000
  C   C453      1.0  0.00767  0.23508  0.77322  1.0000
  H   H347      1.0  0.44003  0.15285  0.93657  1.0000
  H   H348      1.0  0.07097  0.02765  0.93457  1.0000
  H   H349      1.0  0.26053  0.39540  0.70776  1.0000
  S   S59       1.0  0.06948  0.01808  0.67533  1.0000
  H   H350      1.0  0.03324  0.10901  0.81608  1.0000
  H   H351      1.0  0.08076  0.41089  0.88732  1.0000
  C   C454      1.0  0.25448  0.18937  0.93127  1.0000
  S   S60       1.0  0.14621  0.40782  0.98471  1.0000
  H   H352      1.0  0.42927  0.44444  0.72072  1.0000
  C   C455      1.0  0.01021  0.09533  0.68545  1.0000
  H   H353      1.0  0.01589  0.17866  0.71711  1.0000
  C   C456      1.0  0.38799  0.41016  0.78317  1.0000
  C   C457      1.0  0.08892  0.43709  0.87669  1.0000
  H   H354      1.0  0.04014  0.40519  0.92352  1.0000
  C   C458      1.0  0.25711  0.35370  0.80312  1.0000
  H   H355      1.0  0.48667  0.10414  0.72683  1.0000
  C   C459      1.0  0.33305  0.41391  0.73253  1.0000
  C   C460      1.0  0.30612  0.18168  0.95860  1.0000
  C   C461      1.0  0.36140  0.44055  0.90180  1.0000
  C   C462      1.0  0.32869  0.44323  0.86416  1.0000
  C   C463      1.0  0.15830  0.00883  0.90886  1.0000
  H   H356      1.0  0.37163  0.36257  0.68610  1.0000
  C   C464      1.0  0.28005  0.34345  0.81948  1.0000
  H   H357      1.0  0.34872  0.23587  0.69801  1.0000
  C   C465      1.0  0.01156  0.08120  0.65922  1.0000
  H   H358      1.0  0.17388  0.98468  0.90717  1.0000
  C   C466      1.0  0.02398  0.42145  0.93464  1.0000
  H   H359      1.0  0.28234  0.31254  0.82671  1.0000
  H   H360      1.0  0.49129  0.46391  0.78036  1.0000
  C   C467      1.0  0.13484  0.39358  0.68581  1.0000
  S   S61       1.0  0.10584  0.98539  0.80553  1.0000
  C   C468      1.0  0.29978  0.37327  0.82694  1.0000
  C   C469      1.0  0.06825  0.13208  0.83920  1.0000
  H   H361      1.0  0.11459  0.40452  0.69332  1.0000
  H   H362      1.0  0.17543  0.30812  0.68396  1.0000
  H   H363      1.0  0.31712  0.36523  0.84005  1.0000
  H   H364      1.0  0.24155  0.33073  0.79778  1.0000
  C   C470      1.0  0.47581  0.29668  0.73927  1.0000
  C   C471      1.0  0.45615  0.35508  0.69701  1.0000
  H   H365      1.0  0.02364  0.41577  0.80466  1.0000
  H   H366      1.0  0.48259  0.40851  0.88188  1.0000
  C   C472      1.0  0.44214  0.43400  0.68011  1.0000
  C   C473      1.0  0.27400  0.30529  0.97624  1.0000
  H   H367      1.0  0.32617  0.17853  0.96913  1.0000
  C   C474      1.0  0.00405  0.43252  0.80769  1.0000
  C   C475      1.0  0.33898  0.42983  0.91869  1.0000
  C   C476      1.0  0.40740  0.44249  0.78430  1.0000
  C   C477      1.0  0.48343  0.27504  0.68518  1.0000
  H   H368      1.0  0.02323  0.99222  0.71386  1.0000
  S   S62       1.0  0.31612  0.36595  0.97523  1.0000
  C   C478      1.0  0.22912  0.36133  0.97265  1.0000
  H   H369      1.0  0.23547  0.16165  0.96597  1.0000
  H   H370      1.0  0.48497  0.11715  0.94878  1.0000
  C   C479      1.0  0.47257  0.25993  0.75334  1.0000
  S   S63       1.0  0.42628  0.26574  0.98531  1.0000
  C   C480      1.0  0.47444  0.97423  0.96376  1.0000
  C   C481      1.0  0.00529  0.25280  0.88472  1.0000
  C   C482      1.0  0.22270  0.31970  0.97380  1.0000
  C   C483      1.0  0.48197  0.41774  0.98369  1.0000
  H   H371      1.0  0.40527  0.17094  0.97163  1.0000
  C   C484      1.0  0.46027  0.36667  0.67032  1.0000
  H   H372      1.0  0.14452  0.44984  0.66639  1.0000
  C   C485      1.0  0.46256  0.45896  0.90181  1.0000
  H   H373      1.0  0.29828  0.19390  0.66787  1.0000
  C   C486      1.0  0.06984  0.98477  0.88034  1.0000
  C   C487      1.0  0.02707  0.06469  0.98231  1.0000
  H   H374      1.0  0.00056  0.24309  0.94213  1.0000
  H   H375      1.0  0.27123  0.45426  0.79381  1.0000
  C   C488      1.0  0.28792  0.22336  0.66932  1.0000
  H   H376      1.0  0.21203  0.38323  0.97123  1.0000
  S   S64       1.0  0.18691  0.30116  0.97191  1.0000
  Fe  Fe32      1.0  0.14706  0.34072  0.97705  1.0000
  H   H377      1.0  0.26228  0.40706  0.97224  1.0000
  H   H378      1.0  0.29108  0.28338  0.97772  1.0000
  H   H379      1.0  0.37482  0.25692  0.65771  1.0000
  C   C489      1.0  0.45360  0.40617  0.66201  1.0000
  C   C490      1.0  0.25079  0.46408  0.66470  1.0000
  H   H380      1.0  0.20595  0.35350  0.65717  1.0000
  H   H381      1.0  0.12494  0.24315  0.98739  1.0000
  H   H382      1.0  0.07564  0.21652  0.98568  1.0000
  H   H383      1.0  0.03431  0.17831  0.65915  1.0000
  C   C491      1.0  0.49243  0.00744  0.95707  1.0000
  H   H384      1.0  0.05162  0.24908  0.66311  1.0000
  H   H385      1.0  0.48928  0.35387  0.93210  1.0000
  C   C492      1.0  0.35153  0.98352  0.78310  1.0000
  H   H386      1.0  0.12095  0.00194  0.98802  1.0000
  Fe  Fe33      1.0  0.40989  0.58860  0.23014  1.0000
  S   S65       1.0  0.41698  0.65692  0.22987  1.0000
  S   S66       1.0  0.44612  0.54463  0.21738  1.0000
  Fe  Fe34      1.0  0.34477  0.60021  0.23727  1.0000
  S   S67       1.0  0.34853  0.66823  0.23719  1.0000
  S   S68       1.0  0.30281  0.56439  0.24109  1.0000
  Fe  Fe35      1.0  0.37901  0.66081  0.20256  1.0000
  S   S69       1.0  0.37334  0.70547  0.16726  1.0000
  Fe  Fe36      1.0  0.38612  0.65932  0.26457  1.0000
  S   S70       1.0  0.39449  0.70671  0.29782  1.0000
  S   S71       1.0  0.37299  0.59282  0.20114  1.0000
  S   S72       1.0  0.38120  0.59076  0.26644  1.0000
  Fe  Fe37      1.0  0.06662  0.60901  0.23010  1.0000
  S   S73       1.0  0.05580  0.54237  0.23078  1.0000
  S   S74       1.0  0.03091  0.65326  0.21729  1.0000
  Fe  Fe38      1.0  0.13063  0.58802  0.23474  1.0000
  S   S75       1.0  0.12302  0.51980  0.23472  1.0000
  S   S76       1.0  0.17256  0.62439  0.23632  1.0000
  Fe  Fe39      1.0  0.09141  0.53245  0.20156  1.0000
  C   C493      1.0  0.06468  0.51391  0.01871  1.0000
  Fe  Fe40      1.0  0.08773  0.53467  0.26391  1.0000
  H   H387      1.0  0.07926  0.73896  0.28488  1.0000
  S   S77       1.0  0.10126  0.59937  0.19978  1.0000
  S   S78       1.0  0.09636  0.60245  0.26526  1.0000
  C   C494      1.0  0.46385  0.60861  0.07839  1.0000
  S   S79       1.0  0.04894  0.77034  0.00793  1.0000
  Fe  Fe41      1.0  0.39843  0.78200  0.01106  1.0000
  S   S80       1.0  0.41002  0.73733  0.04516  1.0000
  S   S81       1.0  0.38756  0.84835  0.01515  1.0000
  Fe  Fe42      1.0  0.10851  0.89924  0.02013  1.0000
  S   S82       1.0  0.11773  0.83212  0.01917  1.0000
  C   C495      1.0  0.44372  0.47769  0.14667  1.0000
  H   H388      1.0  0.39837  0.69133  0.99444  1.0000
  C   C496      1.0  0.39712  0.49334  0.04234  1.0000
  H   H389      1.0  0.03304  0.70093  0.26713  1.0000
  H   H390      1.0  0.37793  0.49756  0.23373  1.0000
  H   H391      1.0  0.47581  0.56663  0.12881  1.0000
  C   C497      1.0  0.06585  0.81158  0.08615  1.0000
  C   C498      1.0  0.11462  0.51875  0.00706  1.0000
  H   H392      1.0  0.09924  0.50503  0.04639  1.0000
  H   H393      1.0  0.00412  0.81962  0.19950  1.0000
  H   H394      1.0  0.02107  0.67642  0.10490  1.0000
  H   H395      1.0  0.47131  0.57822  0.01372  1.0000
  C   C499      1.0  0.39653  0.65845  0.99570  1.0000
  H   H396      1.0  0.44850  0.61045  0.09443  1.0000
  H   H397      1.0  0.09717  0.89010  0.13597  1.0000
  H   H398      1.0  0.42695  0.89648  0.18607  1.0000
  H   H399      1.0  0.00503  0.76074  0.28232  1.0000
  C   C500      1.0  0.00074  0.74762  0.26299  1.0000
  C   C501      1.0  0.38418  0.71368  0.13339  1.0000
  C   C502      1.0  0.40592  0.69132  0.12113  1.0000
  C   C503      1.0  0.41368  0.69949  0.09435  1.0000
  C   C504      1.0  0.39984  0.72983  0.07928  1.0000
  C   C505      1.0  0.37842  0.75253  0.09166  1.0000
  C   C506      1.0  0.37077  0.74457  0.11847  1.0000
  H   H400      1.0  0.41662  0.66764  0.13222  1.0000
  H   H401      1.0  0.43039  0.68195  0.08511  1.0000
  H   H402      1.0  0.36757  0.77608  0.08054  1.0000
  H   H403      1.0  0.35412  0.76240  0.12766  1.0000
  C   C507      1.0  0.26678  0.58192  0.23925  1.0000
  C   C508      1.0  0.25983  0.62330  0.23745  1.0000
  C   C509      1.0  0.23099  0.63563  0.23655  1.0000
  C   C510      1.0  0.20863  0.60689  0.23726  1.0000
  C   C511      1.0  0.21557  0.56554  0.23890  1.0000
  C   C512      1.0  0.24439  0.55324  0.23999  1.0000
  H   H404      1.0  0.27669  0.64580  0.23682  1.0000
  H   H405      1.0  0.22600  0.66769  0.23523  1.0000
  H   H406      1.0  0.19875  0.54298  0.23952  1.0000
  H   H407      1.0  0.24939  0.52118  0.24141  1.0000
  C   C513      1.0  0.47088  0.50740  0.22942  1.0000
  C   C514      1.0  0.08905  0.47783  0.13478  1.0000
  H   H408      1.0  0.01719  0.50053  0.18092  1.0000
  H   H409      1.0  0.01158  0.82400  0.04288  1.0000
  H   H410      1.0  0.04743  0.96413  0.12577  1.0000
  C   C515      1.0  0.01175  0.69651  0.22931  1.0000
  C   C516      1.0  0.01685  0.71378  0.25435  1.0000
  C   C517      1.0  0.48100  0.50941  0.10836  1.0000
  C   C518      1.0  0.99764  0.52692  0.01117  1.0000
  H   H411      1.0  0.43841  0.83095  0.11294  1.0000
  C   C519      1.0  0.00618  0.82206  0.15656  1.0000
  C   C520      1.0  0.08857  0.86724  0.12262  1.0000
  H   H412      1.0  0.12695  0.71454  0.27051  1.0000
  C   C521      1.0  0.03922  0.59200  0.07148  1.0000
  C   C522      1.0  0.02956  0.56492  0.09099  1.0000
  C   C523      1.0  0.04233  0.56457  0.11611  1.0000
  C   C524      1.0  0.06498  0.59090  0.12171  1.0000
  C   C525      1.0  0.07474  0.61847  0.10231  1.0000
  C   C526      1.0  0.06164  0.61878  0.07709  1.0000
  P   P18       1.0  0.10356  0.65313  0.11019  1.0000
  C   C527      1.0  0.11787  0.67538  0.08000  1.0000
  C   C528      1.0  0.09131  0.69431  0.13109  1.0000
  C   C529      1.0  0.10624  0.73146  0.13119  1.0000
  C   C530      1.0  0.09772  0.76315  0.14788  1.0000
  C   C531      1.0  0.07404  0.75832  0.16436  1.0000
  C   C532      1.0  0.05912  0.72148  0.16452  1.0000
  C   C533      1.0  0.06783  0.68938  0.14816  1.0000
  C   C534      1.0  0.14482  0.66423  0.07032  1.0000
  C   C535      1.0  0.15589  0.68283  0.04741  1.0000
  C   C536      1.0  0.14013  0.71243  0.03393  1.0000
  C   C537      1.0  0.11323  0.72336  0.04331  1.0000
  C   C538      1.0  0.10220  0.70523  0.06633  1.0000
  C   C539      1.0  0.13104  0.62520  0.12752  1.0000
  C   C540      1.0  0.13770  0.58527  0.11972  1.0000
  C   C541      1.0  0.15917  0.56372  0.13288  1.0000
  C   C542      1.0  0.17386  0.58159  0.15412  1.0000
  C   C543      1.0  0.16742  0.62129  0.16194  1.0000
  C   C544      1.0  0.14618  0.64314  0.14867  1.0000
  H   H413      1.0  0.02949  0.59207  0.05191  1.0000
  H   H414      1.0  0.02603  0.55435  0.31361  1.0000
  H   H415      1.0  0.03501  0.54335  0.13120  1.0000
  H   H416      1.0  0.07498  0.58945  0.14118  1.0000
  H   H417      1.0  0.06875  0.63915  0.06152  1.0000
  H   H418      1.0  0.12484  0.73576  0.11870  1.0000
  H   H419      1.0  0.10968  0.79133  0.14822  1.0000
  H   H420      1.0  0.06764  0.78284  0.17746  1.0000
  H   H421      1.0  0.04104  0.71750  0.17769  1.0000
  H   H422      1.0  0.05629  0.66088  0.14921  1.0000
  H   H423      1.0  0.15754  0.64157  0.08045  1.0000
  H   H424      1.0  0.17683  0.67454  0.04016  1.0000
  C   C545      1.0  0.04764  0.83224  0.10372  1.0000
  H   H425      1.0  0.10099  0.74617  0.03278  1.0000
  H   H426      1.0  0.08140  0.71447  0.07341  1.0000
  H   H427      1.0  0.12637  0.57069  0.10348  1.0000
  H   H428      1.0  0.16437  0.53304  0.12669  1.0000
  H   H429      1.0  0.19022  0.56470  0.16461  1.0000
  H   H430      1.0  0.17882  0.63497  0.17849  1.0000
  H   H431      1.0  0.14162  0.67378  0.15521  1.0000
  S   S83       1.0  0.07180  0.49200  0.29738  1.0000
  H   H432      1.0  0.46135  0.71679  0.27452  1.0000
  H   H433      1.0  0.10921  0.80300  0.07330  1.0000
  H   H434      1.0  0.17993  0.96093  0.21643  1.0000
  H   H435      1.0  0.34741  0.48497  0.27311  1.0000
  C   C546      1.0  0.45104  0.51901  0.14701  1.0000
  C   C547      1.0  0.09523  0.81854  0.08706  1.0000
  C   C548      1.0  0.44872  0.49502  0.04237  1.0000
  C   C549      1.0  0.47255  0.49601  0.25627  1.0000
  C   C550      1.0  0.06972  0.96650  0.12052  1.0000
  C   C551      1.0  0.48893  0.48774  0.21104  1.0000
  H   H436      1.0  0.48895  0.90337  0.13020  1.0000
  H   H437      1.0  0.12914  0.85367  0.10468  1.0000
  C   C552      1.0  0.48209  0.77466  0.04816  1.0000
  H   H438      1.0  0.15849  0.80188  0.31629  1.0000
  C   C553      1.0  0.09070  0.71705  0.29694  1.0000
  H   H439      1.0  0.37675  0.50858  0.04392  1.0000
  H   H440      1.0  0.43806  0.94924  0.28170  1.0000
  H   H441      1.0  0.14401  0.79520  0.26942  1.0000
  H   H442      1.0  0.03270  0.93095  0.19445  1.0000
  C   C554      1.0  0.43489  0.83098  0.13430  1.0000
  C   C555      1.0  0.38445  0.56240  0.12198  1.0000
  C   C556      1.0  0.36596  0.59565  0.12239  1.0000
  C   C557      1.0  0.36355  0.62065  0.09999  1.0000
  C   C558      1.0  0.37992  0.61293  0.07727  1.0000
  C   C559      1.0  0.39862  0.57962  0.07666  1.0000
  C   C560      1.0  0.40070  0.55436  0.09920  1.0000
  P   P19       1.0  0.42135  0.57030  0.04819  1.0000
  C   C561      1.0  0.40682  0.59533  0.01908  1.0000
  H   H443      1.0  0.44210  0.53890  0.16204  1.0000
  C   C562      1.0  0.99436  0.88082  0.02938  1.0000
  H   H444      1.0  0.01047  0.85886  0.26285  1.0000
  H   H445      1.0  0.14884  0.72715  0.01631  1.0000
  C   C563      1.0  0.40990  0.63766  0.01650  1.0000
  C   C564      1.0  0.45648  0.59123  0.05375  1.0000
  C   C565      1.0  0.01655  0.74165  0.10244  1.0000
  C   C566      1.0  0.43297  0.86774  0.14821  1.0000
  C   C567      1.0  0.13204  0.67466  0.30406  1.0000
  S   S84       1.0  0.06720  0.89164  0.99765  1.0000
  H   H446      1.0  0.35374  0.60252  0.14018  1.0000
  H   H447      1.0  0.34965  0.64697  0.10056  1.0000
  H   H448      1.0  0.37809  0.63364  0.06060  1.0000
  C   C568      1.0  0.26228  0.69463  0.30960  1.0000
  H   H449      1.0  0.13284  0.48082  0.14690  1.0000
  Fe  Fe43      1.0  0.07772  0.82453  0.99446  1.0000
  H   H450      1.0  0.99682  0.90760  0.22744  1.0000
  H   H451      1.0  0.42184  0.65491  0.03116  1.0000
  C   C569      1.0  0.46467  0.74597  0.26485  1.0000
  H   H452      1.0  0.06359  0.94128  0.08093  1.0000
  H   H453      1.0  0.48805  0.49616  0.19024  1.0000
  C   C570      1.0  0.16737  0.93655  0.20774  1.0000
  H   H454      1.0  0.04553  0.87833  0.13462  1.0000
  C   C571      1.0  0.15088  0.89985  0.16889  1.0000
  C   C572      1.0  0.13417  0.87475  0.18519  1.0000
  C   C573      1.0  0.13395  0.88036  0.21296  1.0000
  C   C574      1.0  0.15063  0.91160  0.22411  1.0000
  P   P20       1.0  0.11093  0.84912  0.23355  1.0000
  C   C575      1.0  0.07450  0.86661  0.23082  1.0000
  C   C576      1.0  0.11448  0.79634  0.22373  1.0000
  C   C577      1.0  0.09233  0.76829  0.22820  1.0000
  C   C578      1.0  0.09628  0.72693  0.22264  1.0000
  C   C579      1.0  0.12232  0.71322  0.21269  1.0000
  C   C580      1.0  0.14447  0.74083  0.20823  1.0000
  C   C581      1.0  0.14064  0.78219  0.21376  1.0000
  C   C582      1.0  0.05412  0.85412  0.24967  1.0000
  H   H455      1.0  0.38633  0.54324  0.13948  1.0000
  C   C583      1.0  0.01838  0.89591  0.22823  1.0000
  C   C584      1.0  0.03852  0.90880  0.20955  1.0000
  C   C585      1.0  0.06645  0.89429  0.21078  1.0000
  C   C586      1.0  0.12159  0.85298  0.26810  1.0000
  C   C587      1.0  0.00986  0.70716  0.01308  1.0000
  H   H456      1.0  0.03418  0.74746  0.11579  1.0000
  C   C588      1.0  0.16745  0.93075  0.18017  1.0000
  H   H457      1.0  0.15073  0.89591  0.14744  1.0000
  H   H458      1.0  0.12102  0.85147  0.17616  1.0000
  H   H459      1.0  0.15062  0.91734  0.24532  1.0000
  H   H460      1.0  0.07203  0.77794  0.23608  1.0000
  H   H461      1.0  0.07922  0.70534  0.22621  1.0000
  H   H462      1.0  0.12559  0.68109  0.20887  1.0000
  H   H463      1.0  0.16483  0.72988  0.20102  1.0000
  H   H464      1.0  0.15840  0.80287  0.21093  1.0000
  H   H465      1.0  0.05990  0.83387  0.26582  1.0000
  C   C589      1.0  0.26536  0.73698  0.31004  1.0000
  H   H466      1.0  0.13683  0.51583  0.01263  1.0000
  C   C590      1.0  0.99889  0.86211  0.07609  1.0000
  H   H467      1.0  0.08166  0.90591  0.19647  1.0000
  H   H468      1.0  0.15244  0.66320  0.29723  1.0000
  C   C591      1.0  0.43198  0.79411  0.14792  1.0000
  C   C592      1.0  0.09337  0.51232  0.02606  1.0000
  C   C593      1.0  0.42385  0.83066  0.18933  1.0000
  C   C594      1.0  0.42645  0.79386  0.17532  1.0000
  P   P21       1.0  0.41607  0.82958  0.22459  1.0000
  C   C595      1.0  0.44554  0.80363  0.24028  1.0000
  C   C596      1.0  0.41110  0.88064  0.23722  1.0000
  C   C597      1.0  0.42861  0.89683  0.25732  1.0000
  C   C598      1.0  0.42410  0.93641  0.26667  1.0000
  C   C599      1.0  0.38416  0.94386  0.23663  1.0000
  C   C600      1.0  0.38853  0.90424  0.22729  1.0000
  C   C601      1.0  0.47295  0.82074  0.23924  1.0000
  C   C602      1.0  0.46993  0.53473  0.12813  1.0000
  H   H469      1.0  0.02111  0.70064  0.03139  1.0000
  H   H470      1.0  0.46565  0.76933  0.06295  1.0000
  H   H471      1.0  0.47035  0.62193  0.21093  1.0000
  C   C603      1.0  0.38263  0.80426  0.23128  1.0000
  C   C604      1.0  0.36447  0.79200  0.21051  1.0000
  C   C605      1.0  0.33844  0.77319  0.21625  1.0000
  C   C606      1.0  0.33017  0.76689  0.24270  1.0000
  C   C607      1.0  0.34802  0.77926  0.26347  1.0000
  C   C608      1.0  0.37401  0.79823  0.25781  1.0000
  H   H472      1.0  0.43343  0.76565  0.13713  1.0000
  H   H473      1.0  0.46878  0.51107  0.04370  1.0000
  H   H474      1.0  0.42352  0.76495  0.18545  1.0000
  H   H475      1.0  0.44574  0.87932  0.26592  1.0000
  C   C609      1.0  0.13770  0.82207  0.28032  1.0000
  H   H476      1.0  0.37441  0.89206  0.21215  1.0000
  H   H477      1.0  0.42117  0.75058  0.25269  1.0000
  H   H478      1.0  0.14948  0.97274  0.10191  1.0000
  C   C610      1.0  0.42263  0.51575  0.04365  1.0000
  C   C611      1.0  0.11415  0.88753  0.28299  1.0000
  C   C612      1.0  0.00133  0.56188  0.18312  1.0000
  H   H479      1.0  0.37028  0.79637  0.18984  1.0000
  H   H480      1.0  0.32503  0.76256  0.20007  1.0000
  H   H481      1.0  0.31032  0.75137  0.24704  1.0000
  H   H482      1.0  0.34211  0.77321  0.28398  1.0000
  H   H483      1.0  0.38772  0.80735  0.27414  1.0000
  H   H484      1.0  0.26499  0.75400  0.29153  1.0000
  H   H485      1.0  0.10186  0.91198  0.27409  1.0000
  H   H486      1.0  0.04887  0.50797  0.03385  1.0000
  H   H487      1.0  0.45883  0.51056  0.27071  1.0000
  C   C613      1.0  0.48938  0.63810  0.21695  1.0000
  C   C614      1.0  0.01903  0.74013  0.99718  1.0000
  C   C615      1.0  0.07857  0.70224  0.32053  1.0000
  S   S85       1.0  0.12115  0.93625  0.05736  1.0000
  C   C616      1.0  0.49166  0.76400  0.26465  1.0000
  H   H488      1.0  0.47615  0.69480  0.19922  1.0000
  C   C617      1.0  0.00915  0.70142  0.09635  1.0000
  H   H489      1.0  0.41509  0.52870  0.09926  1.0000
  C   C618      1.0  0.10655  0.84679  0.10500  1.0000
  H   H490      1.0  0.43511  0.89635  0.13765  1.0000
  C   C619      1.0  0.02613  0.86845  0.24821  1.0000
  S   S86       1.0  0.07452  0.49731  0.16505  1.0000
  C   C620      1.0  0.05699  0.52237  0.99218  1.0000
  H   H491      1.0  0.02715  0.80892  0.15586  1.0000
  H   H492      1.0  0.02235  0.57558  0.18404  1.0000
  C   C621      1.0  0.11749  0.70342  0.28881  1.0000
  H   H493      1.0  0.05736  0.79104  0.07120  1.0000
  C   C622      1.0  0.44173  0.76553  0.25258  1.0000
  H   H494      1.0  0.47663  0.84944  0.22909  1.0000
  H   H495      1.0  0.25963  0.67876  0.29077  1.0000
  H   H496      1.0  0.01239  0.54389  0.08666  1.0000
  C   C623      1.0  0.05919  0.86043  0.12179  1.0000
  C   C624      1.0  0.00246  0.85283  0.04897  1.0000
  P   P22       1.0  0.00958  0.82576  0.10120  1.0000
  C   C625      1.0  0.99846  0.51961  0.18115  1.0000
  C   C626      1.0  0.39152  0.57380  0.99952  1.0000
  H   H497      1.0  0.18010  0.95055  0.16752  1.0000
  C   C627      1.0  0.47665  0.59089  0.03306  1.0000
  C   C628      1.0  0.42788  0.86765  0.17570  1.0000
  H   H498      1.0  0.01300  0.59706  0.25795  1.0000
  C   C629      1.0  0.48348  0.81201  0.03486  1.0000
  H   H499      1.0  0.46807  0.83563  0.03923  1.0000
  C   C630      1.0  0.07880  0.95353  0.09502  1.0000
  C   C631      1.0  0.00120  0.77420  0.09145  1.0000
  S   S87       1.0  0.45952  0.90588  0.99480  1.0000
  H   H500      1.0  0.36694  0.96219  0.22868  1.0000
  C   C632      1.0  0.49118  0.62452  0.08243  1.0000
  H   H501      1.0  0.48987  0.92753  0.19571  1.0000
  C   C633      1.0  0.14610  0.82575  0.30697  1.0000
  H   H502      1.0  0.38930  0.54112  0.00037  1.0000
  H   H503      1.0  0.99706  0.87327  0.00850  1.0000
  C   C634      1.0  0.40206  0.96001  0.25620  1.0000
  H   H504      1.0  0.11788  0.91855  0.32057  1.0000
  C   C635      1.0  0.10772  0.95495  0.08828  1.0000
  C   C636      1.0  0.99440  0.58479  0.26791  1.0000
  C   C637      1.0  0.38393  0.47455  0.24820  1.0000
  C   C638      1.0  0.12306  0.89134  0.30946  1.0000
  H   H505      1.0  0.05318  0.61804  0.31976  1.0000
  C   C639      1.0  0.12711  0.97111  0.10696  1.0000
  C   C640      1.0  0.99315  0.82790  0.18129  1.0000
  C   C641      1.0  0.49272  0.67914  0.21023  1.0000
  C   C642      1.0  0.99309  0.49240  0.02721  1.0000
  C   C643      1.0  0.13884  0.86046  0.32152  1.0000
  Fe  Fe44      1.0  0.40904  0.85357  0.48220  1.0000
  S   S88       1.0  0.44638  0.89911  0.47425  1.0000
  Fe  Fe45      1.0  0.34346  0.83868  0.47980  1.0000
  S   S89       1.0  0.30067  0.87125  0.47374  1.0000
  Fe  Fe46      1.0  0.38440  0.77528  0.45611  1.0000
  S   S90       1.0  0.38803  0.72307  0.42536  1.0000
  S   S91       1.0  0.37800  0.84205  0.44837  1.0000
  Fe  Fe47      1.0  0.09759  0.90724  0.45937  1.0000
  S   S92       1.0  0.10167  0.83998  0.45173  1.0000
  C   C644      1.0  0.30187  0.80123  0.38629  1.0000
  Fe  Fe48      1.0  0.06596  0.83180  0.48170  1.0000
  S   S93       1.0  0.02633  0.79285  0.47041  1.0000
  S   S94       1.0  0.12947  0.90718  0.49323  1.0000
  S   S95       1.0  0.06029  0.89995  0.48753  1.0000
  C   C645      1.0  0.26533  0.85172  0.47831  1.0000
  C   C646      1.0  0.24185  0.87681  0.47245  1.0000
  C   C647      1.0  0.21356  0.86258  0.47550  1.0000
  H   H506      1.0  0.24555  0.90757  0.46551  1.0000
  H   H507      1.0  0.19588  0.88237  0.47084  1.0000
  C   C648      1.0  0.27006  0.73535  0.35833  1.0000
  H   H508      1.0  0.46259  0.52615  0.45150  1.0000
  C   C649      1.0  0.26252  0.67266  0.33347  1.0000
  C   C650      1.0  0.46069  0.91314  0.57313  1.0000
  H   H509      1.0  0.06950  0.91224  0.38917  1.0000
  C   C651      1.0  0.09604  0.96528  0.39369  1.0000
  C   C652      1.0  0.44245  0.53085  0.44141  1.0000
  H   H510      1.0  0.02465  0.84376  0.62280  1.0000
  H   H511      1.0  0.37804  0.64884  0.34034  1.0000
  H   H512      1.0  0.36929  0.54738  0.40720  1.0000
  H   H513      1.0  0.20454  0.87308  0.39729  1.0000
  C   C653      1.0  0.39547  0.74897  0.34542  1.0000
  C   C654      1.0  0.39411  0.75359  0.37344  1.0000
  C   C655      1.0  0.38742  0.72028  0.38971  1.0000
  C   C656      1.0  0.38147  0.68260  0.37740  1.0000
  C   C657      1.0  0.38231  0.67814  0.34935  1.0000
  H   H514      1.0  0.31926  0.69896  0.38992  1.0000
  H   H515      1.0  0.39901  0.78266  0.38250  1.0000
  H   H516      1.0  0.37638  0.65654  0.38965  1.0000
  H   H517      1.0  0.02043  0.90154  0.65391  1.0000
  H   H518      1.0  0.44340  0.55049  0.53192  1.0000
  C   C658      1.0  0.08517  0.95389  0.59354  1.0000
  C   C659      1.0  0.47153  0.93906  0.48197  1.0000
  H   H519      1.0  0.38820  0.90999  0.57564  1.0000
  H   H520      1.0  0.16926  0.60565  0.64861  1.0000
  H   H521      1.0  0.13175  0.63748  0.33901  1.0000
  C   C660      1.0  0.40998  0.89935  0.57425  1.0000
  C   C661      1.0  0.00672  0.74699  0.47734  1.0000
  H   H522      1.0  0.24967  0.84320  0.38179  1.0000
  H   H523      1.0  0.05890  0.92529  0.34129  1.0000
  S   S96       1.0  0.41709  0.78611  0.48867  1.0000
  S   S97       1.0  0.34824  0.77151  0.48575  1.0000
  Fe  Fe49      1.0  0.38028  0.78752  0.51777  1.0000
  S   S98       1.0  0.37250  0.75776  0.55904  1.0000
  S   S99       1.0  0.37386  0.85543  0.51301  1.0000
  Fe  Fe50      1.0  0.09255  0.89511  0.52098  1.0000
  S   S100      1.0  0.09605  0.82654  0.51663  1.0000
  S   S101      1.0  0.09012  0.92830  0.56205  1.0000
  Fe  Fe51      1.0  0.13148  0.83973  0.48707  1.0000
  S   S102      1.0  0.17290  0.80255  0.48723  1.0000
  C   C662      1.0  0.20826  0.82271  0.48417  1.0000
  C   C663      1.0  0.23173  0.79756  0.48996  1.0000
  C   C664      1.0  0.26002  0.81206  0.48733  1.0000
  H   H524      1.0  0.22803  0.76672  0.49670  1.0000
  H   H525      1.0  0.27775  0.79249  0.49219  1.0000
  C   C665      1.0  0.01633  0.71726  0.49520  1.0000
  C   C666      1.0  0.49130  0.78603  0.50054  1.0000
  H   H526      1.0  0.46909  0.67392  0.52554  1.0000
  C   C667      1.0  0.07858  0.93853  0.37930  1.0000
  C   C668      1.0  0.32343  0.79839  0.36697  1.0000
  C   C669      1.0  0.11081  0.50278  0.62552  1.0000
  C   C670      1.0  0.39847  0.49008  0.54946  1.0000
  H   H527      1.0  0.48049  0.78965  0.48162  1.0000
  H   H528      1.0  0.12965  0.52040  0.58795  1.0000
  H   H529      1.0  0.11963  0.52827  0.63641  1.0000
  C   C671      1.0  0.40451  0.68719  0.63367  1.0000
  C   C672      1.0  0.37597  0.69867  0.63104  1.0000
  C   C673      1.0  0.36675  0.72040  0.60824  1.0000
  C   C674      1.0  0.38582  0.73121  0.58770  1.0000
  C   C675      1.0  0.41444  0.72000  0.59039  1.0000
  C   C676      1.0  0.42365  0.69825  0.61319  1.0000
  H   H530      1.0  0.47786  0.93514  0.57375  1.0000
  H   H531      1.0  0.34459  0.72884  0.60651  1.0000
  H   H532      1.0  0.42946  0.72790  0.57488  1.0000
  H   H533      1.0  0.44582  0.68985  0.61494  1.0000
  C   C677      1.0  0.38272  0.67330  0.51199  1.0000
  C   C678      1.0  0.37978  0.65637  0.48663  1.0000
  C   C679      1.0  0.38124  0.61423  0.48328  1.0000
  C   C680      1.0  0.38478  0.58892  0.50544  1.0000
  C   C681      1.0  0.38659  0.60575  0.53118  1.0000
  C   C682      1.0  0.38667  0.64819  0.53413  1.0000
  P   P23       1.0  0.39105  0.57355  0.56001  1.0000
  C   C683      1.0  0.36813  0.58812  0.58740  1.0000
  C   C684      1.0  0.37185  0.56982  0.61249  1.0000
  C   C685      1.0  0.35445  0.58070  0.63395  1.0000
  C   C686      1.0  0.33286  0.60934  0.63043  1.0000
  C   C687      1.0  0.32843  0.62679  0.60537  1.0000
  C   C688      1.0  0.34581  0.61604  0.58386  1.0000
  C   C689      1.0  0.42832  0.57742  0.56877  1.0000
  C   C690      1.0  0.43680  0.59728  0.59230  1.0000
  C   C691      1.0  0.32373  0.86330  0.40303  1.0000
  H   H534      1.0  0.11461  0.52720  0.33382  1.0000
  H   H535      1.0  0.38217  0.70601  0.51448  1.0000
  H   H536      1.0  0.37681  0.67604  0.46958  1.0000
  H   H537      1.0  0.37974  0.60128  0.46348  1.0000
  H   H538      1.0  0.38612  0.55637  0.50232  1.0000
  H   H539      1.0  0.38931  0.66189  0.55361  1.0000
  H   H540      1.0  0.38857  0.54771  0.61560  1.0000
  C   C692      1.0  0.03248  0.56369  0.33343  1.0000
  H   H541      1.0  0.05438  0.79764  0.39324  1.0000
  H   H542      1.0  0.31183  0.64927  0.60271  1.0000
  H   H543      1.0  0.34170  0.62983  0.56469  1.0000
  H   H544      1.0  0.42135  0.61010  0.60588  1.0000
  C   C693      1.0  0.41147  0.57163  0.41355  1.0000
  H   H545      1.0  0.18601  0.49865  0.48168  1.0000
  C   C694      1.0  0.14459  0.59850  0.40464  1.0000
  C   C695      1.0  0.15460  0.62764  0.42264  1.0000
  C   C696      1.0  0.14132  0.66556  0.42424  1.0000
  C   C697      1.0  0.11792  0.67431  0.40797  1.0000
  C   C698      1.0  0.10737  0.64489  0.39017  1.0000
  C   C699      1.0  0.12105  0.60700  0.38855  1.0000
  P   P24       1.0  0.07844  0.65635  0.36757  1.0000
  C   C700      1.0  0.05796  0.61033  0.36250  1.0000
  C   C701      1.0  0.05561  0.69513  0.38161  1.0000
  C   C702      1.0  0.02881  0.68510  0.39234  1.0000
  C   C703      1.0  0.02625  0.53864  0.35518  1.0000
  C   C704      1.0  0.02063  0.75595  0.40328  1.0000
  C   C705      1.0  0.04719  0.76622  0.39268  1.0000
  C   C706      1.0  0.06454  0.73604  0.38171  1.0000
  C   C707      1.0  0.19474  0.77626  0.41956  1.0000
  H   H546      1.0  0.36095  0.88427  0.38200  1.0000
  C   C708      1.0  0.18913  0.81737  0.41476  1.0000
  C   C709      1.0  0.03584  0.54921  0.38061  1.0000
  C   C710      1.0  0.05165  0.58489  0.38430  1.0000
  C   C711      1.0  0.04406  0.73627  0.63454  1.0000
  H   H547      1.0  0.36199  0.93386  0.48486  1.0000
  S   S103      1.0  0.10386  0.95824  0.42831  1.0000
  H   H548      1.0  0.49192  0.93596  0.44353  1.0000
  C   C712      1.0  0.04337  0.85415  0.63341  1.0000
  C   C713      1.0  0.07252  0.94613  0.35213  1.0000
  H   H549      1.0  0.15506  0.56924  0.40308  1.0000
  H   H550      1.0  0.17271  0.62088  0.43528  1.0000
  H   H551      1.0  0.14922  0.68829  0.43807  1.0000
  H   H552      1.0  0.10827  0.70401  0.40946  1.0000
  H   H553      1.0  0.11379  0.58421  0.37448  1.0000
  H   H554      1.0  0.02115  0.65404  0.39267  1.0000
  H   H555      1.0  0.33582  0.54190  0.54478  1.0000
  H   H556      1.0  0.05767  0.71282  0.32632  1.0000
  C   C714      1.0  0.46821  0.62677  0.45436  1.0000
  H   H557      1.0  0.47042  0.82646  0.61688  1.0000
  C   C715      1.0  0.46567  0.60224  0.59824  1.0000
  C   C716      1.0  0.18679  0.51546  0.61945  1.0000
  H   H558      1.0  0.42425  0.47503  0.45654  1.0000
  H   H559      1.0  0.05911  0.59244  0.40414  1.0000
  H   H560      1.0  0.03156  0.52926  0.39735  1.0000
  H   H561      1.0  0.17957  0.75822  0.43080  1.0000
  H   H562      1.0  0.11613  0.73649  0.62589  1.0000
  C   C717      1.0  0.43819  0.56543  0.42541  1.0000
  C   C718      1.0  0.44999  0.64993  0.34821  1.0000
  H   H563      1.0  0.32420  0.88774  0.41756  1.0000
  C   C719      1.0  0.38979  0.54265  0.41661  1.0000
  C   C720      1.0  0.34445  0.86121  0.38310  1.0000
  C   C721      1.0  0.03641  0.49739  0.45353  1.0000
  C   C722      1.0  0.34138  0.47883  0.53503  1.0000
  C   C723      1.0  0.02209  0.83972  0.54695  1.0000
  H   H564      1.0  0.47090  0.73777  0.37832  1.0000
  C   C724      1.0  0.00017  0.68142  0.49968  1.0000
  C   C725      1.0  0.03092  0.76456  0.57191  1.0000
  C   C726      1.0  0.04626  0.79892  0.58045  1.0000
  C   C727      1.0  0.04174  0.83646  0.56775  1.0000
  P   P25       1.0  0.07376  0.79496  0.60542  1.0000
  C   C728      1.0  0.07074  0.74866  0.62472  1.0000
  C   C729      1.0  0.10697  0.79798  0.58731  1.0000
  C   C730      1.0  0.11740  0.76366  0.57379  1.0000
  C   C731      1.0  0.14265  0.76626  0.55903  1.0000
  C   C732      1.0  0.15732  0.80326  0.55726  1.0000
  C   C733      1.0  0.14657  0.83781  0.56990  1.0000
  C   C734      1.0  0.12142  0.83529  0.58472  1.0000
  P   P26       1.0  0.46628  0.60274  0.42211  1.0000
  H   H565      1.0  0.08506  0.74462  0.37353  1.0000
  H   H566      1.0  0.25995  0.63985  0.33304  1.0000
  C   C735      1.0  0.42072  0.50199  0.44448  1.0000
  C   C736      1.0  0.48636  0.58778  0.58069  1.0000
  C   C737      1.0  0.37948  0.52295  0.55090  1.0000
  H   H567      1.0  0.44728  0.59144  0.36710  1.0000
  H   H568      1.0  0.28269  0.71211  0.48229  1.0000
  H   H569      1.0  0.01945  0.86844  0.53660  1.0000
  C   C738      1.0  0.45022  0.67580  0.48639  1.0000
  H   H570      1.0  0.16832  0.51296  0.52732  1.0000
  H   H571      1.0  0.03480  0.73485  0.58045  1.0000
  C   C739      1.0  0.38982  0.71118  0.33313  1.0000
  H   H572      1.0  0.10586  0.73509  0.57435  1.0000
  H   H573      1.0  0.15062  0.73995  0.54842  1.0000
  H   H574      1.0  0.17660  0.80550  0.54543  1.0000
  H   H575      1.0  0.15731  0.86689  0.56763  1.0000
  H   H576      1.0  0.11304  0.86285  0.59348  1.0000
  C   C740      1.0  0.17947  0.55659  0.62168  1.0000
  C   C741      1.0  0.09512  0.72648  0.63193  1.0000
  H   H577      1.0  0.26599  0.67538  0.37605  1.0000
  C   C742      1.0  0.47199  0.95910  0.50664  1.0000
  H   H578      1.0  0.43605  0.70063  0.49122  1.0000
  H   H579      1.0  0.40469  0.94336  0.51331  1.0000
  H   H580      1.0  0.48747  0.48289  0.52676  1.0000
  C   C743      1.0  0.11653  0.49813  0.59806  1.0000
  H   H581      1.0  0.31983  0.66110  0.47184  1.0000
  H   H582      1.0  0.26352  0.75600  0.44691  1.0000
  H   H583      1.0  0.14554  0.86369  0.34210  1.0000
  H   H584      1.0  0.05540  0.52113  0.58191  1.0000
  H   H585      1.0  0.12629  0.51191  0.38121  1.0000
  H   H586      1.0  0.36094  0.69067  0.64652  1.0000
  C   C744      1.0  0.35081  0.51692  0.54386  1.0000
  C   C745      1.0  0.49181  0.95097  0.46271  1.0000
  H   H587      1.0  0.11426  0.83520  0.64137  1.0000
  C   C746      1.0  0.34435  0.82869  0.36514  1.0000
  C   C747      1.0  0.26618  0.69292  0.35778  1.0000
  H   H588      1.0  0.40720  0.59897  0.40219  1.0000
  H   H589      1.0  0.17724  0.57509  0.60392  1.0000
  C   C748      1.0  0.46054  0.63808  0.39505  1.0000
  H   H590      1.0  0.43434  0.66978  0.44644  1.0000
  C   C749      1.0  0.46882  0.66075  0.50572  1.0000
  C   C750      1.0  0.10285  0.50400  0.34449  1.0000
  C   C751      1.0  0.45204  0.62342  0.36996  1.0000
  H   H591      1.0  0.49029  0.85046  0.45458  1.0000
  H   H592      1.0  0.45470  0.71168  0.33443  1.0000
  H   H593      1.0  0.32447  0.77260  0.35357  1.0000
  C   C752      1.0  0.10852  0.96565  0.60953  1.0000
  H   H594      1.0  0.42838  0.95933  0.57691  1.0000
  C   C753      1.0  0.07001  0.83590  0.62915  1.0000
  C   C754      1.0  0.06058  0.62319  0.57106  1.0000
  C   C755      1.0  0.05618  0.58661  0.58475  1.0000
  C   C756      1.0  0.05886  0.54955  0.57135  1.0000
  C   C757      1.0  0.06632  0.54896  0.54438  1.0000
  C   C758      1.0  0.07145  0.58546  0.53059  1.0000
  C   C759      1.0  0.06803  0.62272  0.54403  1.0000
  P   P27       1.0  0.08148  0.58344  0.49580  1.0000
  C   C760      1.0  0.11559  0.55885  0.49167  1.0000
  C   C761      1.0  0.05318  0.55542  0.47940  1.0000
  C   C762      1.0  0.05874  0.51989  0.46468  1.0000
  C   C763      1.0  0.39448  0.50773  0.43195  1.0000
  C   C764      1.0  0.05776  0.96267  0.60295  1.0000
  H   H595      1.0  0.19017  0.50284  0.59978  1.0000
  C   C765      1.0  0.02478  0.56711  0.48344  1.0000
  C   C766      1.0  0.12630  0.55200  0.46594  1.0000
  C   C767      1.0  0.15158  0.53029  0.46236  1.0000
  C   C768      1.0  0.16690  0.51658  0.48446  1.0000
  C   C769      1.0  0.15699  0.52470  0.51015  1.0000
  C   C770      1.0  0.13151  0.54591  0.51379  1.0000
  C   C771      1.0  0.08559  0.63457  0.48293  1.0000
  C   C772      1.0  0.10851  0.65866  0.49183  1.0000
  C   C773      1.0  0.11080  0.69948  0.48406  1.0000
  C   C774      1.0  0.09050  0.71631  0.46700  1.0000
  C   C775      1.0  0.06824  0.69220  0.45734  1.0000
  C   C776      1.0  0.06567  0.65148  0.46525  1.0000
  H   H596      1.0  0.05813  0.65190  0.58141  1.0000
  H   H597      1.0  0.05057  0.58684  0.60571  1.0000
  C   C777      1.0  0.48717  0.62881  0.49942  1.0000
  H   H598      1.0  0.06840  0.51990  0.53430  1.0000
  H   H599      1.0  0.07085  0.65144  0.53381  1.0000
  H   H600      1.0  0.08007  0.50832  0.46236  1.0000
  C   C778      1.0  0.00249  0.54417  0.47263  1.0000
  H   H601      1.0  0.47580  0.69123  0.41649  1.0000
  C   C779      1.0  0.46793  0.67937  0.39776  1.0000
  H   H602      1.0  0.01975  0.59344  0.49551  1.0000
  H   H603      1.0  0.11429  0.56160  0.44861  1.0000
  H   H604      1.0  0.15870  0.52262  0.44246  1.0000
  H   H605      1.0  0.03626  0.72188  0.50559  1.0000
  C   C780      1.0  0.44930  0.56395  0.55087  1.0000
  H   H606      1.0  0.12398  0.55072  0.53391  1.0000
  H   H607      1.0  0.12416  0.64614  0.50540  1.0000
  H   H608      1.0  0.12810  0.71835  0.49147  1.0000
  H   H609      1.0  0.09179  0.74819  0.46146  1.0000
  H   H610      1.0  0.05230  0.70574  0.44457  1.0000
  H   H611      1.0  0.04776  0.63388  0.45806  1.0000
  H   H612      1.0  0.37774  0.48516  0.43429  1.0000
  H   H613      1.0  0.44704  0.81127  0.56772  1.0000
  H   H614      1.0  0.05394  0.86301  0.57357  1.0000
  C   C781      1.0  0.04822  0.59951  0.33700  1.0000
  C   C782      1.0  0.24095  0.78325  0.39815  1.0000
  P   P28       1.0  0.27520  0.76188  0.38951  1.0000
  C   C783      1.0  0.44335  0.84373  0.56960  1.0000
  C   C784      1.0  0.20889  0.84114  0.40086  1.0000
  H   H615      1.0  0.16972  0.83098  0.42230  1.0000
  C   C785      1.0  0.01065  0.76819  0.55165  1.0000
  C   C786      1.0  0.45677  0.69110  0.35124  1.0000
  H   H616      1.0  0.42053  0.49351  0.55507  1.0000
  C   C787      1.0  0.09356  0.47453  0.63878  1.0000
  C   C788      1.0  0.22036  0.75907  0.41097  1.0000
  C   C789      1.0  0.01139  0.71546  0.40299  1.0000
  C   C790      1.0  0.39163  0.96939  0.50820  1.0000
  H   H617      1.0  0.33849  0.65539  0.42568  1.0000
  H   H618      1.0  0.47896  0.84344  0.40668  1.0000
  C   C791      1.0  0.28852  0.72881  0.41539  1.0000
  C   C792      1.0  0.31031  0.70095  0.40978  1.0000
  C   C793      1.0  0.32129  0.67622  0.43003  1.0000
  C   C794      1.0  0.31099  0.67970  0.45606  1.0000
  C   C795      1.0  0.28996  0.70828  0.46194  1.0000
  C   C796      1.0  0.27898  0.73302  0.44176  1.0000
  H   H619      1.0  0.01475  0.51037  0.35213  1.0000
  H   H620      1.0  0.39781  0.83619  0.57148  1.0000
  H   H621      1.0  0.28741  0.83462  0.42097  1.0000
  C   C797      1.0  0.43262  0.92706  0.57497  1.0000
  C   C798      1.0  0.09343  0.67413  0.33641  1.0000
  C   C799      1.0  0.23460  0.82412  0.39236  1.0000
  C   C800      1.0  0.09365  0.84942  0.64385  1.0000
  C   C801      1.0  0.48500  0.94974  0.63972  1.0000
  H   H622      1.0  0.22450  0.72729  0.41515  1.0000
  C   C802      1.0  0.18945  0.49117  0.64238  1.0000
  C   C803      1.0  0.30278  0.83314  0.40487  1.0000
  H   H623      1.0  0.27122  0.79018  0.33435  1.0000
  H   H624      1.0  0.03952  0.95351  0.59136  1.0000
  C   C804      1.0  0.12010  0.66000  0.32774  1.0000
  H   H625      1.0  0.00768  0.73311  0.34332  1.0000
  C   C805      1.0  0.46625  0.87135  0.57018  1.0000
  C   C806      1.0  0.41538  0.85773  0.57176  1.0000
  H   H626      1.0  0.00952  0.94383  0.55382  1.0000
  H   H627      1.0  0.02514  0.75389  0.63025  1.0000
  C   C807      1.0  0.10929  0.49545  0.37146  1.0000
  C   C808      1.0  0.26900  0.75733  0.33432  1.0000
  H   H628      1.0  0.00740  0.77938  0.41210  1.0000
  C   C809      1.0  0.17487  0.57379  0.64678  1.0000
  H   H629      1.0  0.11145  0.67450  0.65336  1.0000
  H   H630      1.0  0.12988  0.95912  0.60275  1.0000
  C   C810      1.0  0.44954  0.65851  0.46092  1.0000
  C   C811      1.0  0.48683  0.61174  0.47389  1.0000
  C   C812      1.0  0.08129  0.48237  0.33138  1.0000
  H   H631      1.0  0.31975  0.61829  0.64722  1.0000
  H   H632      1.0  0.47192  0.61804  0.61629  1.0000
  H   H633      1.0  0.40151  0.77471  0.33318  1.0000
  H   H634      1.0  0.46798  0.92958  0.63339  1.0000
  H   H635      1.0  0.00781  0.65915  0.51384  1.0000
  C   C813      1.0  0.48948  0.81651  0.51993  1.0000
  H   H636      1.0  0.42659  0.48884  0.37419  1.0000
  C   C814      1.0  0.47818  0.56841  0.55710  1.0000
  H   H637      1.0  0.35792  0.56743  0.65345  1.0000
  C   C815      1.0  0.46573  0.70580  0.37599  1.0000
  H   H638      1.0  0.99868  0.74172  0.54522  1.0000
  H   H639      1.0  0.48177  0.52191  0.40047  1.0000
  C   C816      1.0  0.00659  0.80557  0.53889  1.0000
  H   H640      1.0  0.31933  0.47431  0.52929  1.0000
  C   C817      1.0  0.36764  0.96395  0.49210  1.0000
  H   H641      1.0  0.45680  0.95048  0.52177  1.0000
  H   H642      1.0  0.47712  0.84362  0.51569  1.0000
  H   H643      1.0  0.99317  0.66050  0.34427  1.0000
  C   C818      1.0  0.00825  0.50937  0.45760  1.0000
  H   H644      1.0  0.36086  0.82646  0.35014  1.0000
  C   C819      1.0  0.09263  0.69150  0.64772  1.0000
  H   H645      1.0  0.00057  0.93666  0.45653  1.0000
  H   H646      1.0  0.99417  0.86191  0.45542  1.0000
  C   C820      1.0  0.04169  0.70131  0.65036  1.0000
  H   H647      1.0  0.44284  0.63881  0.32898  1.0000
  C   C821      1.0  0.04079  0.88669  0.65119  1.0000
  Fe  Fe52      1.0  0.42048  0.56927  0.74229  1.0000
  S   S104      1.0  0.42848  0.63679  0.73820  1.0000
  S   S105      1.0  0.45396  0.52406  0.75815  1.0000
  Fe  Fe53      1.0  0.35587  0.57950  0.73059  1.0000
  S   S106      1.0  0.36017  0.64742  0.72530  1.0000
  S   S107      1.0  0.31551  0.53969  0.72701  1.0000
  Fe  Fe54      1.0  0.39996  0.63337  0.70160  1.0000
  C   C822      1.0  0.21962  0.82678  0.97600  1.0000
  Fe  Fe55      1.0  0.38829  0.64563  0.76231  1.0000
  S   S108      1.0  0.37841  0.68962  0.79723  1.0000
  S   S109      1.0  0.39419  0.56508  0.70493  1.0000
  S   S110      1.0  0.38176  0.57831  0.76840  1.0000
  Fe  Fe56      1.0  0.07893  0.60287  0.73552  1.0000
  S   S111      1.0  0.06413  0.53752  0.73597  1.0000
  S   S112      1.0  0.05070  0.65964  0.72729  1.0000
  Fe  Fe57      1.0  0.14210  0.57515  0.73713  1.0000
  S   S113      1.0  0.13088  0.50843  0.73756  1.0000
  S   S114      1.0  0.18684  0.60364  0.73763  1.0000
  Fe  Fe58      1.0  0.09848  0.52415  0.70596  1.0000
  H   H648      1.0  0.06642  0.69290  0.78312  1.0000
  Fe  Fe59      1.0  0.09739  0.52620  0.76765  1.0000
  C   C823      1.0  0.06634  0.58388  0.86496  1.0000
  S   S115      1.0  0.11174  0.58996  0.70349  1.0000
  S   S116      1.0  0.11026  0.59261  0.76917  1.0000
  H   H649      1.0  0.06277  0.92707  0.67803  1.0000
  H   H650      1.0  0.47159  0.89985  0.77410  1.0000
  H   H651      1.0  0.11756  0.53144  0.83794  1.0000
  H   H652      1.0  0.41718  0.94976  0.88649  1.0000
  Fe  Fe60      1.0  0.40269  0.78922  0.94863  1.0000
  S   S117      1.0  0.42084  0.75486  0.91197  1.0000
  S   S118      1.0  0.39221  0.85637  0.94978  1.0000
  Fe  Fe61      1.0  0.09379  0.89933  0.96003  1.0000
  S   S119      1.0  0.10214  0.83196  0.95589  1.0000
  S   S120      1.0  0.07641  0.94282  0.92778  1.0000
  S   S121      1.0  0.08454  0.48081  0.80047  1.0000
  H   H653      1.0  0.31890  0.96521  0.75549  1.0000
  H   H654      1.0  0.07018  0.63168  0.83586  1.0000
  C   C824      1.0  0.24179  0.79825  0.97308  1.0000
  H   H655      1.0  0.48643  0.92445  0.81851  1.0000
  H   H656      1.0  0.41705  0.67853  0.93760  1.0000
  C   C825      1.0  0.09608  0.70310  0.81528  1.0000
  C   C826      1.0  0.02252  0.63815  0.95035  1.0000
  C   C827      1.0  0.03996  0.93805  0.73241  1.0000
  C   C828      1.0  0.38051  0.63705  0.97688  1.0000
  C   C829      1.0  0.42222  0.95242  0.84353  1.0000
  H   H657      1.0  0.06407  0.65209  0.66947  1.0000
  C   C830      1.0  0.08494  0.95381  0.89370  1.0000
  C   C831      1.0  0.45246  0.64319  0.95170  1.0000
  C   C832      1.0  0.08506  0.69789  0.95875  1.0000
  H   H658      1.0  0.32108  0.89216  0.76855  1.0000
  H   H659      1.0  0.03791  0.60841  0.98559  1.0000
  C   C833      1.0  0.33383  0.95513  0.77061  1.0000
  C   C834      1.0  0.44716  0.59959  0.90378  1.0000
  C   C835      1.0  0.39091  0.70704  0.82915  1.0000
  C   C836      1.0  0.37231  0.72962  0.84549  1.0000
  C   C837      1.0  0.38088  0.74407  0.87086  1.0000
  C   C838      1.0  0.40841  0.73659  0.88030  1.0000
  C   C839      1.0  0.42710  0.71413  0.86394  1.0000
  C   C840      1.0  0.41849  0.69948  0.83862  1.0000
  H   H660      1.0  0.35098  0.73590  0.83850  1.0000
  H   H661      1.0  0.36616  0.76110  0.88304  1.0000
  H   H662      1.0  0.44851  0.70822  0.87085  1.0000
  H   H663      1.0  0.43329  0.68279  0.82630  1.0000
  C   C841      1.0  0.27972  0.55765  0.72972  1.0000
  C   C842      1.0  0.25689  0.52961  0.72931  1.0000
  C   C843      1.0  0.22833  0.54287  0.73157  1.0000
  C   C844      1.0  0.22225  0.58443  0.73440  1.0000
  C   C845      1.0  0.24511  0.61226  0.73484  1.0000
  C   C846      1.0  0.27357  0.59907  0.73248  1.0000
  H   H664      1.0  0.26132  0.49746  0.72745  1.0000
  H   H665      1.0  0.21105  0.52104  0.73136  1.0000
  H   H666      1.0  0.24077  0.64443  0.73702  1.0000
  H   H667      1.0  0.29076  0.62109  0.73284  1.0000
  H   H668      1.0  0.08640  0.59090  0.87457  1.0000
  H   H669      1.0  0.21029  0.89011  0.98231  1.0000
  H   H670      1.0  0.12368  0.53185  0.96586  1.0000
  P   P29       1.0  0.39613  0.91341  0.83622  1.0000
  C   C847      1.0  0.35988  0.93640  0.87740  1.0000
  S   S122      1.0  0.31425  0.86877  0.97921  1.0000
  C   C848      1.0  0.33488  0.88944  0.90645  1.0000
  H   H671      1.0  0.01207  0.51561  0.86843  1.0000
  C   C849      1.0  0.02042  0.95974  0.71686  1.0000
  H   H672      1.0  0.01351  0.65802  0.77488  1.0000
  H   H673      1.0  0.44534  0.56877  0.81368  1.0000
  H   H674      1.0  0.10967  0.89398  0.67159  1.0000
  S   S123      1.0  0.18337  0.80977  0.97385  1.0000
  C   C850      1.0  0.48826  0.94202  0.71510  1.0000
  C   C851      1.0  0.06951  0.70558  0.80289  1.0000
  C   C852      1.0  0.02148  0.69058  0.73850  1.0000
  C   C853      1.0  0.45307  0.49917  0.89952  1.0000
  C   C854      1.0  0.00020  0.56235  0.93583  1.0000
  H   H675      1.0  0.48553  0.93628  0.88838  1.0000
  C   C855      1.0  0.04986  0.55130  0.87414  1.0000
  C   C856      1.0  0.30563  0.50146  0.82412  1.0000
  C   C857      1.0  0.31282  0.52540  0.80184  1.0000
  C   C858      1.0  0.29951  0.56285  0.79758  1.0000
  C   C859      1.0  0.27811  0.57605  0.81479  1.0000
  C   C860      1.0  0.27029  0.55204  0.83663  1.0000
  C   C861      1.0  0.28406  0.51499  0.84137  1.0000
  H   H676      1.0  0.47707  0.66458  0.67196  1.0000
  H   H677      1.0  0.11370  0.68860  0.80505  1.0000
  C   C862      1.0  0.43127  0.65342  0.93341  1.0000
  H   H678      1.0  0.23654  0.76654  0.96989  1.0000
  C   C863      1.0  0.02543  0.82823  0.79016  1.0000
  H   H679      1.0  0.02350  0.73032  0.70434  1.0000
  C   C864      1.0  0.09442  0.65905  0.95166  1.0000
  C   C865      1.0  0.46897  0.59021  0.92194  1.0000
  H   H680      1.0  0.48280  0.78798  0.90621  1.0000
  H   H681      1.0  0.32831  0.51524  0.78734  1.0000
  H   H682      1.0  0.30547  0.58138  0.78056  1.0000
  H   H683      1.0  0.26741  0.60470  0.81097  1.0000
  H   H684      1.0  0.25343  0.56214  0.84979  1.0000
  H   H685      1.0  0.09790  0.63621  0.96692  1.0000
  H   H686      1.0  0.01250  0.58647  0.73170  1.0000
  C   C866      1.0  0.00766  0.63395  0.92641  1.0000
  C   C867      1.0  0.00709  0.68325  0.76249  1.0000
  H   H687      1.0  0.12819  0.92642  0.84208  1.0000
  C   C868      1.0  0.47997  0.49199  0.74298  1.0000
  C   C869      1.0  0.01094  0.47709  0.96414  1.0000
  C   C870      1.0  0.48339  0.63110  0.85497  1.0000
  C   C871      1.0  0.03179  0.59675  0.83006  1.0000
  C   C872      1.0  0.03539  0.88293  0.83190  1.0000
  C   C873      1.0  0.11502  0.50055  0.87612  1.0000
  C   C874      1.0  0.10720  0.52788  0.98078  1.0000
  C   C875      1.0  0.34117  0.92928  0.89860  1.0000
  C   C876      1.0  0.01553  0.56335  0.83873  1.0000
  C   C877      1.0  0.37293  0.90364  0.86425  1.0000
  C   C878      1.0  0.27806  0.85122  0.97824  1.0000
  C   C879      1.0  0.41608  0.86864  0.82702  1.0000
  C   C880      1.0  0.41760  0.85568  0.80038  1.0000
  C   C881      1.0  0.43198  0.81978  0.79387  1.0000
  C   C882      1.0  0.44551  0.79719  0.81377  1.0000
  C   C883      1.0  0.44492  0.81068  0.84015  1.0000
  C   C884      1.0  0.43042  0.84637  0.84676  1.0000
  H   H688      1.0  0.45626  0.76906  0.80877  1.0000
  H   H689      1.0  0.32039  0.88393  0.92292  1.0000
  C   C885      1.0  0.99669  0.59603  0.91908  1.0000
  H   H690      1.0  0.48418  0.56646  0.91767  1.0000
  H   H691      1.0  0.41219  0.64083  0.89556  1.0000
  H   H692      1.0  0.03026  0.66781  0.95635  1.0000
  H   H693      1.0  0.00990  0.84368  0.72751  1.0000
  C   C886      1.0  0.01267  0.72403  0.72290  1.0000
  C   C887      1.0  0.02652  0.60448  0.96698  1.0000
  C   C888      1.0  0.46546  0.84641  0.91587  1.0000
  H   H694      1.0  0.45582  0.96772  0.95181  1.0000
  H   H695      1.0  0.05732  0.95440  0.74183  1.0000
  H   H696      1.0  0.00384  0.84841  0.85348  1.0000
  C   C889      1.0  0.45669  0.52081  0.87552  1.0000
  H   H697      1.0  0.08120  0.70527  0.97952  1.0000
  H   H698      1.0  0.17402  0.56324  0.68909  1.0000
  H   H699      1.0  0.40763  0.87293  0.78458  1.0000
  H   H700      1.0  0.43253  0.80929  0.77340  1.0000
  H   H701      1.0  0.18676  0.49085  0.68555  1.0000
  H   H702      1.0  0.45508  0.79290  0.85561  1.0000
  H   H703      1.0  0.42971  0.85593  0.86740  1.0000
  H   H704      1.0  0.37472  0.83762  0.86149  1.0000
  H   H705      1.0  0.34214  0.82581  0.89917  1.0000
  C   C890      1.0  0.10955  0.50512  0.84856  1.0000
  H   H706      1.0  0.17385  0.93542  0.75921  1.0000
  H   H707      1.0  0.36992  0.65340  0.96093  1.0000
  C   C891      1.0  0.46616  0.88816  0.91075  1.0000
  C   C892      1.0  0.37841  0.59467  0.97852  1.0000
  C   C893      1.0  0.01563  0.85133  0.83505  1.0000
  H   H708      1.0  0.02662  0.72783  0.80604  1.0000
  H   H709      1.0  0.36626  0.57810  0.96370  1.0000
  H   H710      1.0  0.12075  0.71739  0.85010  1.0000
  C   C894      1.0  0.10593  0.93268  0.87958  1.0000
  C   C895      1.0  0.46402  0.60040  0.84744  1.0000
  H   H711      1.0  0.02079  0.80736  0.77398  1.0000
  H   H712      1.0  0.44313  0.51335  0.91662  1.0000
  H   H713      1.0  0.47178  0.51591  0.83468  1.0000
  C   C896      1.0  0.07647  0.77728  0.70030  1.0000
  C   C897      1.0  0.08885  0.74660  0.71563  1.0000
  C   C898      1.0  0.09201  0.75182  0.74308  1.0000
  C   C899      1.0  0.08257  0.78761  0.75530  1.0000
  C   C900      1.0  0.06989  0.81845  0.74001  1.0000
  C   C901      1.0  0.06722  0.81316  0.71237  1.0000
  P   P30       1.0  0.06239  0.86704  0.75505  1.0000
  C   C902      1.0  0.03705  0.89573  0.73553  1.0000
  C   C903      1.0  0.04537  0.85979  0.78688  1.0000
  C   C904      1.0  0.06592  0.67884  0.65684  1.0000
  S   S124      1.0  0.13432  0.91165  0.98283  1.0000
  C   C905      1.0  0.42857  0.63180  0.90957  1.0000
  H   H714      1.0  0.45139  0.90806  0.92096  1.0000
  C   C906      1.0  0.04988  0.88759  0.80773  1.0000
  H   H715      1.0  0.47266  0.59070  0.68093  1.0000
  C   C907      1.0  0.11180  0.94273  0.85269  1.0000
  H   H716      1.0  0.36977  0.50809  0.82277  1.0000
  H   H717      1.0  0.36412  0.96745  0.87123  1.0000
  C   C908      1.0  0.01331  0.87596  0.72433  1.0000
  C   C909      1.0  0.09699  0.89091  0.75720  1.0000
  C   C910      1.0  0.10823  0.91149  0.73502  1.0000
  C   C911      1.0  0.13594  0.92709  0.73567  1.0000
  C   C912      1.0  0.15266  0.92228  0.75846  1.0000
  C   C913      1.0  0.14194  0.90090  0.78037  1.0000
  C   C914      1.0  0.11433  0.88481  0.77966  1.0000
  H   H718      1.0  0.07417  0.77334  0.67905  1.0000
  H   H719      1.0  0.09584  0.71857  0.70633  1.0000
  H   H720      1.0  0.10197  0.72806  0.75474  1.0000
  H   H721      1.0  0.08569  0.79155  0.77654  1.0000
  H   H722      1.0  0.05834  0.83684  0.70003  1.0000
  H   H723      1.0  0.45015  0.83395  0.92980  1.0000
  C   C915      1.0  0.00601  0.83903  0.91080  1.0000
  C   C916      1.0  0.09108  0.88240  0.66126  1.0000
  H   H724      1.0  0.14431  0.94355  0.71863  1.0000
  H   H725      1.0  0.06417  0.91331  0.80521  1.0000
  H   H726      1.0  0.03464  0.88988  0.90658  1.0000
  H   H727      1.0  0.33141  0.95457  0.90898  1.0000
  C   C917      1.0  0.17748  0.54984  0.66964  1.0000
  Fe  Fe62      1.0  0.14141  0.84408  0.98106  1.0000
  C   C918      1.0  0.47583  0.61331  0.80094  1.0000
  H   H728      1.0  0.09565  0.91551  0.71719  1.0000
  C   C919      1.0  0.07853  0.53004  0.97339  1.0000
  C   C920      1.0  0.99379  0.89777  0.70890  1.0000
  H   H729      1.0  0.15490  0.89746  0.79806  1.0000
  H   H730      1.0  0.10661  0.86784  0.79668  1.0000
  H   H731      1.0  0.27742  0.49681  0.85823  1.0000
  C   C921      1.0  0.09992  0.71920  0.84086  1.0000
  C   C922      1.0  0.46034  0.59183  0.82020  1.0000
  C   C923      1.0  0.36600  0.86361  0.87189  1.0000
  H   H732      1.0  0.05704  0.53331  0.89098  1.0000
  C   C924      1.0  0.18469  0.50875  0.66752  1.0000
  C   C925      1.0  0.33510  0.91411  0.77798  1.0000
  C   C926      1.0  0.04696  0.72477  0.81589  1.0000
  H   H733      1.0  0.47415  0.51365  0.70293  1.0000
  P   P31       1.0  0.44386  0.57269  0.87246  1.0000
  H   H734      1.0  0.13406  0.76369  0.92138  1.0000
  H   H735      1.0  0.11775  0.90881  0.88945  1.0000
  S   S125      1.0  0.36755  0.77026  0.97705  1.0000
  C   C927      1.0  0.37264  0.92977  0.80982  1.0000
  C   C928      1.0  0.40624  0.57122  0.86474  1.0000
  C   C929      1.0  0.38782  0.54793  0.88078  1.0000
  C   C930      1.0  0.35831  0.55045  0.87738  1.0000
  C   C931      1.0  0.34698  0.57619  0.85795  1.0000
  C   C932      1.0  0.36507  0.59892  0.84165  1.0000
  C   C933      1.0  0.39455  0.59671  0.84509  1.0000
  C   C934      1.0  0.03229  0.85710  0.90523  1.0000
  C   C935      1.0  0.35426  0.90149  0.79768  1.0000
  C   C936      1.0  0.02452  0.54113  0.86114  1.0000
  C   C937      1.0  0.46906  0.50078  0.85363  1.0000
  H   H736      1.0  0.00417  0.66025  0.91382  1.0000
  H   H737      1.0  0.01075  0.77326  0.96126  1.0000
  H   H738      1.0  0.39613  0.52895  0.89656  1.0000
  H   H739      1.0  0.34415  0.53323  0.89023  1.0000
  H   H740      1.0  0.32417  0.57923  0.85580  1.0000
  H   H741      1.0  0.35625  0.61931  0.82676  1.0000
  H   H742      1.0  0.40780  0.61614  0.83290  1.0000
  C   C938      1.0  0.07708  0.73755  0.85436  1.0000
  C   C939      1.0  0.05061  0.74054  0.84151  1.0000
  P   P32       1.0  0.08250  0.75846  0.88735  1.0000
  C   C940      1.0  0.05279  0.79051  0.89658  1.0000
  C   C941      1.0  0.08585  0.71860  0.91215  1.0000
  C   C942      1.0  0.08044  0.72735  0.93910  1.0000
  Fe  Fe63      1.0  0.35825  0.83770  0.97982  1.0000
  P   P33       1.0  0.02004  0.52326  0.98191  1.0000
  C   C943      1.0  0.09918  0.64968  0.92487  1.0000
  C   C944      1.0  0.09505  0.67933  0.90517  1.0000
  C   C945      1.0  0.05562  0.83308  0.89809  1.0000
  C   C946      1.0  0.37053  0.97112  0.80289  1.0000
  H   H743      1.0  0.28741  0.78787  0.97206  1.0000
  H   H744      1.0  0.03910  0.90445  0.84795  1.0000
  C   C947      1.0  0.02636  0.77253  0.90258  1.0000
  C   C948      1.0  0.11488  0.78814  0.88535  1.0000
  C   C949      1.0  0.11898  0.81493  0.86381  1.0000
  C   C950      1.0  0.14426  0.83730  0.86158  1.0000
  C   C951      1.0  0.16552  0.83331  0.88087  1.0000
  C   C952      1.0  0.16165  0.80663  0.90226  1.0000
  C   C953      1.0  0.13649  0.78398  0.90451  1.0000
  H   H745      1.0  0.03279  0.75552  0.85083  1.0000
  H   H746      1.0  0.07292  0.75707  0.94510  1.0000
  H   H747      1.0  0.23949  0.49081  0.67137  1.0000
  H   H748      1.0  0.45454  0.66024  0.97012  1.0000
  H   H749      1.0  0.10646  0.61951  0.91944  1.0000
  H   H750      1.0  0.09935  0.67145  0.88468  1.0000
  H   H751      1.0  0.07575  0.84807  0.89425  1.0000
  H   H752      1.0  0.47292  0.60634  0.77999  1.0000
  H   H753      1.0  0.12725  0.52358  0.88647  1.0000
  H   H754      1.0  0.07326  0.53623  0.95275  1.0000
  H   H755      1.0  0.02383  0.73974  0.90207  1.0000
  H   H756      1.0  0.10257  0.81869  0.84883  1.0000
  H   H757      1.0  0.14733  0.85794  0.84499  1.0000
  H   H758      1.0  0.18501  0.85094  0.87936  1.0000
  H   H759      1.0  0.17817  0.80364  0.91725  1.0000
  C   C954      1.0  0.48057  0.94962  0.98587  1.0000
  C   C955      1.0  0.34719  0.85665  0.89304  1.0000
  H   H760      1.0  0.35466  0.86971  0.80353  1.0000
  H   H761      1.0  0.02023  0.55979  0.77734  1.0000
  C   C956      1.0  0.40066  0.47756  0.79867  1.0000
  C   C957      1.0  0.00418  0.74794  0.97355  1.0000
  H   H762      1.0  0.48256  0.92254  0.69860  1.0000
  C   C958      1.0  0.00298  0.79678  0.90923  1.0000
  C   C959      1.0  0.05727  0.60667  0.84302  1.0000
  C   C960      1.0  0.01516  0.56636  0.95997  1.0000
  H   H763      1.0  0.26114  0.91150  0.98407  1.0000
  C   C961      1.0  0.01053  0.82416  0.81413  1.0000
  H   H764      1.0  0.41565  0.50266  0.79954  1.0000
  S   S126      1.0  0.08591  0.47819  0.67348  1.0000
  C   C962      1.0  0.43727  0.97110  0.82260  1.0000
  H   H765      1.0  0.46794  0.51727  0.96874  1.0000
  C   C963      1.0  0.48576  0.90403  0.89245  1.0000
  C   C964      1.0  0.48547  0.49249  0.71557  1.0000
  H   H766      1.0  0.43368  0.96198  0.80209  1.0000
  C   C965      1.0  0.06467  0.90105  0.66489  1.0000
  C   C966      1.0  0.99751  0.93955  0.70492  1.0000
  Fe  Fe64      1.0  0.42214  0.86173  0.98492  1.0000
  C   C967      1.0  0.37453  0.48056  0.81176  1.0000
  C   C968      1.0  0.42775  0.96449  0.86990  1.0000
  C   C969      1.0  0.27076  0.81026  0.97430  1.0000
  H   H767      1.0  0.48668  0.63882  0.87570  1.0000
  C   C970      1.0  0.48419  0.82045  0.90267  1.0000
  H   H768      1.0  0.02113  0.69191  0.65810  1.0000
  H   H769      1.0  0.28981  0.48430  0.68323  1.0000
  S   S127      1.0  0.41741  0.65832  0.66155  1.0000
  H   H770      1.0  0.02496  0.61505  0.81334  1.0000
  C   C971      1.0  0.99948  0.57134  0.77178  1.0000
  S   S128      1.0  0.43425  0.79551  0.98238  1.0000
  C   C972      1.0  0.48030  0.49071  0.97403  1.0000
  C   C973      1.0  0.22693  0.86769  0.98005  1.0000
  C   C974      1.0  0.48794  0.88380  0.78512  1.0000
  C   C975      1.0  0.47143  0.61182  0.94588  1.0000
  C   C976      1.0  0.25587  0.87975  0.98103  1.0000
  H   H771      1.0  0.48606  0.80688  0.66189  1.0000
  C   C977      1.0  0.49234  0.60274  0.67275  1.0000
  H   H772      1.0  0.48828  0.60473  0.95982  1.0000
  C   C978      1.0  0.99510  0.58584  0.74586  1.0000
  H   H773      1.0  0.99458  0.80041  0.81616  1.0000
  C   C979      1.0  0.09328  0.47603  0.83497  1.0000
  H   H774      1.0  0.02595  0.48794  0.81677  1.0000
  C   C980      1.0  0.00528  0.47360  0.81486  1.0000
  Fe  Fe65      1.0  0.89087  0.40755  0.26095  1.0000
  S   S129      1.0  0.87703  0.34384  0.27090  1.0000
  H   H775      1.0  0.51695  0.01491  0.17555  1.0000
  Fe  Fe66      1.0  0.89601  0.38823  0.20097  1.0000
  S   S130      1.0  0.88137  0.32330  0.20749  1.0000
  S   S131      1.0  0.91388  0.40512  0.15952  1.0000
  Fe  Fe67      1.0  0.84810  0.34915  0.23518  1.0000
  S   S132      1.0  0.80389  0.31893  0.23791  1.0000
  Fe  Fe68      1.0  0.91124  0.32217  0.24251  1.0000
  S   S133      1.0  0.93481  0.26298  0.25406  1.0000
  S   S134      1.0  0.86043  0.41404  0.22612  1.0000
  S   S135      1.0  0.92746  0.38600  0.23522  1.0000
  Fe  Fe69      1.0  0.56725  0.36135  0.24200  1.0000
  S   S136      1.0  0.55756  0.29520  0.23335  1.0000
  S   S137      1.0  0.53215  0.40498  0.25750  1.0000
  Fe  Fe70      1.0  0.63215  0.34697  0.23369  1.0000
  S   S138      1.0  0.62593  0.28057  0.22410  1.0000
  S   S139      1.0  0.67454  0.38250  0.23417  1.0000
  Fe  Fe71      1.0  0.58867  0.30085  0.19894  1.0000
  S   S140      1.0  0.57313  0.28033  0.15719  1.0000
  Fe  Fe72      1.0  0.59545  0.28007  0.25934  1.0000
  C   C981      1.0  0.57099  0.01851  0.22916  1.0000
  S   S141      1.0  0.59640  0.36787  0.20655  1.0000
  S   S142      1.0  0.60361  0.34565  0.26993  1.0000
  Fe  Fe73      1.0  0.89110  0.03297  0.01911  1.0000
  S   S143      1.0  0.88427  0.10057  0.02089  1.0000
  C   C982      1.0  0.63725  0.30319  0.99906  1.0000
  P   P34       1.0  0.59297  0.98649  0.15283  1.0000
  Fe  Fe74      1.0  0.60922  0.15677  0.01279  1.0000
  S   S144      1.0  0.61219  0.08865  0.00658  1.0000
  S   S145      1.0  0.61895  0.18310  0.05457  1.0000
  H   H776      1.0  0.75002  0.27740  0.23883  1.0000
  H   H777      1.0  0.92723  0.00612  0.22871  1.0000
  C   C983      1.0  0.62678  0.04081  0.08620  1.0000
  C   C984      1.0  0.98195  0.19027  0.99806  1.0000
  C   C985      1.0  0.52168  0.10792  0.04593  1.0000
  H   H778      1.0  0.58327  0.44886  0.23536  1.0000
  H   H779      1.0  0.93287  0.07584  0.30526  1.0000
  C   C986      1.0  0.68110  0.43285  0.00480  1.0000
  C   C987      1.0  0.52597  0.17618  0.28776  1.0000
  H   H780      1.0  0.69052  0.18581  0.04439  1.0000
  H   H781      1.0  0.69969  0.30055  0.23738  1.0000
  C   C988      1.0  0.60654  0.04830  0.18893  1.0000
  H   H782      1.0  0.78875  0.38112  0.29962  1.0000
  H   H783      1.0  0.97866  0.05440  0.05611  1.0000
  S   S146      1.0  0.89330  0.46206  0.28974  1.0000
  C   C989      1.0  0.50937  0.44505  0.24601  1.0000
  H   H784      1.0  0.90656  0.12383  0.26056  1.0000
  C   C990      1.0  0.92504  0.98714  0.12376  1.0000
  C   C991      1.0  0.59632  0.40630  0.99773  1.0000
  H   H785      1.0  0.50730  0.27617  0.14969  1.0000
  C   C992      1.0  0.58629  0.25236  0.12918  1.0000
  C   C993      1.0  0.56726  0.24143  0.10859  1.0000
  C   C994      1.0  0.57668  0.22029  0.08566  1.0000
  C   C995      1.0  0.60540  0.20968  0.08297  1.0000
  C   C996      1.0  0.62435  0.22029  0.10364  1.0000
  C   C997      1.0  0.61494  0.24153  0.12651  1.0000
  H   H786      1.0  0.54500  0.24923  0.11041  1.0000
  H   H787      1.0  0.56172  0.21221  0.07012  1.0000
  H   H788      1.0  0.64661  0.21234  0.10187  1.0000
  H   H789      1.0  0.62990  0.24973  0.14203  1.0000
  C   C998      1.0  0.96682  0.23655  0.24538  1.0000
  H   H790      1.0  0.93014  0.01513  0.08485  1.0000
  C   C999      1.0  0.52279  0.99250  0.99454  1.0000
  H   H791      1.0  0.57096  0.06764  0.14039  1.0000
  H   H792      1.0  0.64367  0.31312  0.04131  1.0000
  H   H793      1.0  0.73054  0.99400  0.04129  1.0000
  C   C1000     1.0  0.50695  0.11544  0.18962  1.0000
  C   C1001     1.0  0.93745  0.10440  0.31526  1.0000
  C   C1002     1.0  0.74156  0.23651  0.00946  1.0000
  C   C1003     1.0  0.51249  0.11192  0.25338  1.0000
  C   C1004     1.0  0.86644  0.21587  0.26357  1.0000
  H   H794      1.0  0.95486  0.18264  0.26741  1.0000
  C   C1005     1.0  0.81622  0.01510  0.25655  1.0000
  C   C1006     1.0  0.53983  0.97743  0.12775  1.0000
  C   C1007     1.0  0.60027  0.29699  0.03281  1.0000
  C   C1008     1.0  0.76818  0.33773  0.23711  1.0000
  C   C1009     1.0  0.76179  0.37933  0.23594  1.0000
  C   C1010     1.0  0.73310  0.39240  0.23515  1.0000
  C   C1011     1.0  0.71038  0.36420  0.23547  1.0000
  C   C1012     1.0  0.71680  0.32267  0.23695  1.0000
  C   C1013     1.0  0.74545  0.30962  0.23781  1.0000
  H   H795      1.0  0.77892  0.40141  0.23549  1.0000
  H   H796      1.0  0.72849  0.42460  0.23409  1.0000
  C   C1014     1.0  0.63765  0.45080  0.17853  1.0000
  C   C1015     1.0  0.61787  0.17071  0.18083  1.0000
  H   H797      1.0  0.55891  0.27819  0.01863  1.0000
  C   C1016     1.0  0.58211  0.17304  0.21555  1.0000
  C   C1017     1.0  0.59235  0.08749  0.10481  1.0000
  H   H798      1.0  0.52155  0.99260  0.06257  1.0000
  C   C1018     1.0  0.70026  0.20873  0.03186  1.0000
  H   H799      1.0  0.58578  0.06947  0.25246  1.0000
  C   C1019     1.0  0.50671  0.04440  0.17602  1.0000
  H   H800      1.0  0.53177  0.20086  0.30109  1.0000
  H   H801      1.0  0.69684  0.39770  0.28945  1.0000
  C   C1020     1.0  0.54737  0.04578  0.05535  1.0000
  H   H802      1.0  0.90886  0.04835  0.26563  1.0000
  C   C1021     1.0  0.70506  0.36157  0.02532  1.0000
  C   C1022     1.0  0.53420  0.46590  0.05631  1.0000
  C   C1023     1.0  0.59011  0.01315  0.18425  1.0000
  C   C1024     1.0  0.61031  0.17813  0.20729  1.0000
  C   C1025     1.0  0.61239  0.07792  0.08527  1.0000
  H   H803      1.0  0.62087  0.05994  0.17381  1.0000
  H   H804      1.0  0.54359  0.00644  0.11822  1.0000
  C   C1026     1.0  0.82944  0.02980  0.31005  1.0000
  C   C1027     1.0  0.58707  0.05372  0.23349  1.0000
  C   C1028     1.0  0.63377  0.43701  0.15244  1.0000
  C   C1029     1.0  0.61943  0.46126  0.13388  1.0000
  C   C1030     1.0  0.50011  0.25948  0.16699  1.0000
  H   H805      1.0  0.52379  0.39561  0.99378  1.0000
  P   P35       1.0  0.94276  0.12181  0.16770  1.0000
  C   C1031     1.0  0.93248  0.09940  0.19914  1.0000
  C   C1032     1.0  0.94138  0.17683  0.16878  1.0000
  C   C1033     1.0  0.91471  0.19603  0.16965  1.0000
  C   C1034     1.0  0.91283  0.23850  0.16971  1.0000
  C   C1035     1.0  0.93754  0.26223  0.16890  1.0000
  C   C1036     1.0  0.90919  0.45992  0.08628  1.0000
  C   C1037     1.0  0.96615  0.20091  0.16775  1.0000
  C   C1038     1.0  0.93459  0.05708  0.20257  1.0000
  C   C1039     1.0  0.92593  0.03891  0.22642  1.0000
  C   C1040     1.0  0.91558  0.06284  0.24724  1.0000
  C   C1041     1.0  0.91414  0.10516  0.24430  1.0000
  C   C1042     1.0  0.92267  0.12349  0.22038  1.0000
  C   C1043     1.0  0.91833  0.10713  0.14151  1.0000
  C   C1044     1.0  0.89671  0.07819  0.14581  1.0000
  C   C1045     1.0  0.87858  0.06691  0.12494  1.0000
  C   C1046     1.0  0.88197  0.08413  0.09966  1.0000
  C   C1047     1.0  0.90310  0.11343  0.09534  1.0000
  C   C1048     1.0  0.92111  0.12506  0.11620  1.0000
  H   H806      1.0  0.70775  0.46465  0.03291  1.0000
  C   C1049     1.0  0.80344  0.37388  0.31561  1.0000
  C   C1050     1.0  0.88274  0.20731  0.28620  1.0000
  H   H807      1.0  0.96574  0.06987  0.12444  1.0000
  Fe  Fe75      1.0  0.92350  0.10708  0.99494  1.0000
  H   H808      1.0  0.89531  0.17811  0.17035  1.0000
  H   H809      1.0  0.89219  0.25309  0.17053  1.0000
  C   C1051     1.0  0.49566  0.08725  0.04891  1.0000
  C   C1052     1.0  0.62844  0.30588  0.02577  1.0000
  C   C1053     1.0  0.74919  0.99004  0.11603  1.0000
  H   H810      1.0  0.94254  0.03792  0.18663  1.0000
  C   C1054     1.0  0.68507  0.35906  0.00452  1.0000
  S   S147      1.0  0.89649  0.97949  0.30258  1.0000
  H   H811      1.0  0.76402  0.23482  0.00460  1.0000
  H   H812      1.0  0.98201  0.09089  0.31998  1.0000
  H   H813      1.0  0.89397  0.06358  0.16495  1.0000
  H   H814      1.0  0.98704  0.18739  0.16698  1.0000
  H   H815      1.0  0.86850  0.07423  0.08330  1.0000
  H   H816      1.0  0.90575  0.12675  0.07572  1.0000
  H   H817      1.0  0.93751  0.14763  0.11253  1.0000
  C   C1055     1.0  0.87064  0.20977  0.31174  1.0000
  H   H818      1.0  0.56447  0.45028  0.11691  1.0000
  C   C1056     1.0  0.91630  0.43401  0.10782  1.0000
  H   H819      1.0  0.54779  0.46296  0.98954  1.0000
  S   S148      1.0  0.59753  0.22515  0.28824  1.0000
  H   H820      1.0  0.93170  0.41004  0.10489  1.0000
  H   H821      1.0  0.64429  0.98065  0.18661  1.0000
  H   H822      1.0  0.56732  0.02960  0.05728  1.0000
  C   C1057     1.0  0.90343  0.43846  0.13305  1.0000
  H   H823      1.0  0.50328  0.99504  0.28291  1.0000
  H   H824      1.0  0.97003  0.19659  0.08477  1.0000
  H   H825      1.0  0.58102  0.11619  0.10371  1.0000
  C   C1058     1.0  0.91701  0.99564  0.09716  1.0000
  H   H826      1.0  0.57705  0.17974  0.23607  1.0000
  H   H827      1.0  0.62619  0.18852  0.22146  1.0000
  H   H828      1.0  0.53552  0.31577  0.07255  1.0000
  H   H829      1.0  0.61799  0.09509  0.21711  1.0000
  C   C1059     1.0  0.60103  0.02243  0.12652  1.0000
  H   H830      1.0  0.53387  0.21131  0.25250  1.0000
  H   H831      1.0  0.84992  0.05750  0.24749  1.0000
  H   H832      1.0  0.98614  0.26752  0.08163  1.0000
  C   C1060     1.0  0.55940  0.46578  0.09848  1.0000
  C   C1061     1.0  0.83782  0.22650  0.26621  1.0000
  H   H833      1.0  0.54166  0.99867  0.00620  1.0000
  H   H834      1.0  0.81896  0.01408  0.10524  1.0000
  H   H835      1.0  0.72874  0.40138  0.05144  1.0000
  C   C1062     1.0  0.51779  0.13844  0.29810  1.0000
  C   C1063     1.0  0.52009  0.33779  0.11031  1.0000
  H   H836      1.0  0.81941  0.32117  0.29515  1.0000
  C   C1064     1.0  0.82539  0.22814  0.29148  1.0000
  S   S149      1.0  0.93156  0.03912  0.99535  1.0000
  H   H837      1.0  0.53458  0.41544  0.08370  1.0000
  C   C1065     1.0  0.98844  0.25447  0.23013  1.0000
  H   H838      1.0  0.64232  0.40769  0.14662  1.0000
  C   C1066     1.0  0.49480  0.34541  0.06861  1.0000
  C   C1067     1.0  0.97655  0.37029  0.05882  1.0000
  H   H839      1.0  0.52083  0.45052  0.04189  1.0000
  H   H840      1.0  0.86262  0.04354  0.12814  1.0000
  H   H841      1.0  0.98000  0.32347  0.28735  1.0000
  C   C1068     1.0  0.77501  0.00931  0.04736  1.0000
  C   C1069     1.0  0.80298  0.00046  0.03951  1.0000
  P   P36       1.0  0.76892  0.04182  0.07574  1.0000
  C   C1070     1.0  0.73477  0.06677  0.07422  1.0000
  C   C1071     1.0  0.77292  0.00946  0.10459  1.0000
  C   C1072     1.0  0.80021  0.00119  0.11465  1.0000
  H   H842      1.0  0.61650  0.09909  0.06916  1.0000
  P   P37       1.0  0.67443  0.31043  0.99084  1.0000
  C   C1073     1.0  0.52728  0.18192  0.26019  1.0000
  C   C1074     1.0  0.57260  0.99808  0.20473  1.0000
  C   C1075     1.0  0.72096  0.07893  0.09773  1.0000
  C   C1076     1.0  0.69533  0.10046  0.09644  1.0000
  C   C1077     1.0  0.68359  0.11050  0.07171  1.0000
  C   C1078     1.0  0.69744  0.09910  0.04825  1.0000
  C   C1079     1.0  0.72316  0.07792  0.04949  1.0000
  C   C1080     1.0  0.79397  0.08354  0.07627  1.0000
  C   C1081     1.0  0.80310  0.10139  0.05231  1.0000
  C   C1082     1.0  0.82098  0.13551  0.05271  1.0000
  C   C1083     1.0  0.82975  0.15218  0.07699  1.0000
  C   C1084     1.0  0.82041  0.13495  0.10094  1.0000
  C   C1085     1.0  0.80243  0.10090  0.10061  1.0000
  C   C1086     1.0  0.98286  0.07822  0.13779  1.0000
  C   C1087     1.0  0.58055  0.28615  0.01316  1.0000
  H   H843      1.0  0.53860  0.32739  0.12129  1.0000
  H   H844      1.0  0.90960  0.27393  0.30729  1.0000
  H   H845      1.0  0.82092  0.01440  0.04957  1.0000
  C   C1088     1.0  0.83784  0.04260  0.26311  1.0000
  H   H846      1.0  0.89423  0.12532  0.31363  1.0000
  H   H847      1.0  0.95560  0.38291  0.06246  1.0000
  C   C1089     1.0  0.60504  0.06835  0.21347  1.0000
  C   C1090     1.0  0.69566  0.27002  0.00506  1.0000
  H   H848      1.0  0.73023  0.07252  0.11704  1.0000
  H   H849      1.0  0.68476  0.10999  0.11458  1.0000
  H   H850      1.0  0.66407  0.12789  0.07069  1.0000
  H   H851      1.0  0.68852  0.10731  0.02901  1.0000
  H   H852      1.0  0.73413  0.07082  0.03113  1.0000
  H   H853      1.0  0.79621  0.08933  0.03326  1.0000
  H   H854      1.0  0.82792  0.14913  0.03410  1.0000
  H   H855      1.0  0.84368  0.17856  0.07719  1.0000
  H   H856      1.0  0.82706  0.14808  0.11975  1.0000
  H   H857      1.0  0.79490  0.08849  0.11934  1.0000
  H   H858      1.0  0.50601  0.33549  0.28222  1.0000
  H   H859      1.0  0.52211  0.14000  0.04085  1.0000
  C   C1091     1.0  0.50642  0.20348  0.19797  1.0000
  C   C1092     1.0  0.96415  0.24341  0.16781  1.0000
  C   C1093     1.0  0.51844  0.33144  0.08281  1.0000
  H   H860      1.0  0.55736  0.00693  0.24483  1.0000
  C   C1094     1.0  0.52071  0.07775  0.18746  1.0000
  H   H861      1.0  0.74326  0.43138  0.29506  1.0000
  C   C1095     1.0  0.70129  0.43517  0.02518  1.0000
  P   P38       1.0  0.52408  0.15686  0.20719  1.0000
  C   C1096     1.0  0.52101  0.14962  0.24277  1.0000
  C   C1097     1.0  0.56112  0.16033  0.19735  1.0000
  C   C1098     1.0  0.59727  0.15759  0.16266  1.0000
  C   C1099     1.0  0.56903  0.15225  0.17086  1.0000
  C   C1100     1.0  0.54208  0.44605  0.07982  1.0000
  C   C1101     1.0  0.49793  0.35744  0.12376  1.0000
  C   C1102     1.0  0.51080  0.10648  0.28095  1.0000
  C   C1103     1.0  0.58672  0.05995  0.12545  1.0000
  H   H862      1.0  0.74211  0.18210  0.03354  1.0000
  C   C1104     1.0  0.51505  0.22506  0.17526  1.0000
  H   H863      1.0  0.87633  0.21567  0.24404  1.0000
  H   H864      1.0  0.64223  0.03351  0.07087  1.0000
  H   H865      1.0  0.98557  0.28498  0.22251  1.0000
  H   H866      1.0  0.54189  0.07396  0.19544  1.0000
  H   H867      1.0  0.63957  0.17591  0.17431  1.0000
  H   H868      1.0  0.60308  0.15308  0.14201  1.0000
  H   H869      1.0  0.55316  0.14332  0.15631  1.0000
  H   H870      1.0  0.93604  0.29521  0.16930  1.0000
  H   H871      1.0  0.94447  0.00010  0.13168  1.0000
  H   H872      1.0  0.82537  0.23426  0.24871  1.0000
  H   H873      1.0  0.53320  0.21542  0.16372  1.0000
  S   S150      1.0  0.87973  0.98961  0.05362  1.0000
  C   C1105     1.0  0.54738  0.08728  0.04917  1.0000
  C   C1106     1.0  0.72484  0.26793  0.99904  1.0000
  C   C1107     1.0  0.50791  0.45676  0.21921  1.0000
  H   H874      1.0  0.59401  0.29718  0.05360  1.0000
  H   H875      1.0  0.63240  0.98441  0.10688  1.0000
  H   H876      1.0  0.98209  0.35067  0.09930  1.0000
  H   H877      1.0  0.90513  0.20055  0.28374  1.0000
  H   H878      1.0  0.66097  0.23966  0.02595  1.0000
  H   H879      1.0  0.50685  0.08664  0.24060  1.0000
  C   C1108     1.0  0.62112  0.01307  0.10671  1.0000
  H   H880      1.0  0.52128  0.44167  0.20474  1.0000
  C   C1109     1.0  0.52157  0.02498  0.05844  1.0000
  H   H881      1.0  0.93050  0.34057  0.31759  1.0000
  C   C1110     1.0  0.75225  0.98904  0.03488  1.0000
  C   C1111     1.0  0.80125  0.99483  0.27669  1.0000
  H   H882      1.0  0.56725  0.10359  0.04659  1.0000
  C   C1112     1.0  0.72926  0.20684  0.02583  1.0000
  H   H883      1.0  0.72810  0.99431  0.10779  1.0000
  S   S151      1.0  0.95910  0.15042  0.01019  1.0000
  C   C1113     1.0  0.97793  0.10281  0.16027  1.0000
  H   H884      1.0  0.97625  0.38508  0.01691  1.0000
  C   C1114     1.0  0.84433  0.05008  0.28984  1.0000
  H   H885      1.0  0.50381  0.07747  0.28898  1.0000
  C   C1115     1.0  0.97120  0.19689  0.25540  1.0000
  C   C1116     1.0  0.84169  0.21981  0.31420  1.0000
  C   C1117     1.0  0.88357  0.46971  0.13652  1.0000
  C   C1118     1.0  0.68347  0.23995  0.02144  1.0000
  H   H886      1.0  0.92177  0.15632  0.21872  1.0000
  H   H887      1.0  0.61314  0.45095  0.02506  1.0000
  H   H888      1.0  0.64908  0.43216  0.19282  1.0000
  H   H889      1.0  0.98325  0.26183  0.16745  1.0000
  H   H890      1.0  0.49513  0.10051  0.99546  1.0000
  C   C1119     1.0  0.60788  0.44414  0.00450  1.0000
  H   H891      1.0  0.71446  0.33445  0.03380  1.0000
  C   C1120     1.0  0.49576  0.04558  0.05526  1.0000
  H   H892      1.0  0.61768  0.45081  0.11348  1.0000
  C   C1121     1.0  0.67264  0.39495  0.99479  1.0000
  C   C1122     1.0  0.91567  0.13240  0.32012  1.0000
  H   H893      1.0  0.67216  0.46060  0.99671  1.0000
  H   H894      1.0  0.80322  0.23684  0.29339  1.0000
  C   C1123     1.0  0.71314  0.39954  0.03554  1.0000
  C   C1124     1.0  0.80779  0.00185  0.30367  1.0000
  C   C1125     1.0  0.98973  0.20566  0.09440  1.0000
  H   H895      1.0  0.59252  0.38366  0.01305  1.0000
  H   H896      1.0  0.86163  0.07043  0.29494  1.0000
  C   C1126     1.0  0.82084  0.33972  0.31299  1.0000
  C   C1127     1.0  0.70676  0.39865  0.30898  1.0000
  C   C1128     1.0  0.73301  0.41818  0.31237  1.0000
  H   H897      1.0  0.97339  0.25377  0.30501  1.0000
  H   H898      1.0  0.96911  0.46926  0.17709  1.0000
  C   C1129     1.0  0.89172  0.97942  0.08676  1.0000
  H   H899      1.0  0.74713  0.03040  0.30692  1.0000
  H   H900      1.0  0.91892  0.45560  0.06698  1.0000
  H   H901      1.0  0.83227  0.45862  0.30985  1.0000
  H   H902      1.0  0.97180  0.46786  0.06179  1.0000
  C   C1130     1.0  0.80355  0.97556  0.13672  1.0000
  H   H903      1.0  0.49350  0.34087  0.04719  1.0000
  H   H904      1.0  0.81146  0.00877  0.23583  1.0000
  H   H905      1.0  0.49985  0.36186  0.14504  1.0000
  C   C1131     1.0  0.98815  0.37153  0.03317  1.0000
  C   C1132     1.0  0.99169  0.35208  0.07967  1.0000
  H   H906      1.0  0.69947  0.02015  0.28703  1.0000
  C   C1133     1.0  0.50034  0.98055  0.26374  1.0000
  H   H907      1.0  0.98989  0.12801  0.05723  1.0000
  C   C1134     1.0  0.71084  0.99453  0.29542  1.0000
  C   C1135     1.0  0.73777  0.00020  0.30676  1.0000
  H   H908      1.0  0.51660  0.13402  0.31937  1.0000
  Fe  Fe76      1.0  0.88641  0.02978  0.46245  1.0000
  S   S152      1.0  0.88327  0.09747  0.45707  1.0000
  H   H909      1.0  0.95082  0.22198  0.63916  1.0000
  Fe  Fe77      1.0  0.91671  0.10303  0.48944  1.0000
  S   S153      1.0  0.95710  0.14176  0.47996  1.0000
  Fe  Fe78      1.0  0.85094  0.09568  0.49036  1.0000
  S   S154      1.0  0.80974  0.13292  0.48728  1.0000
  S   S155      1.0  0.85221  0.02791  0.49398  1.0000
  Fe  Fe79      1.0  0.59487  0.15618  0.44978  1.0000
  S   S156      1.0  0.60240  0.08817  0.45175  1.0000
  S   S157      1.0  0.58087  0.19791  0.41485  1.0000
  Fe  Fe80      1.0  0.57381  0.08733  0.48807  1.0000
  S   S158      1.0  0.53775  0.04196  0.50053  1.0000
  S   S159      1.0  0.56449  0.15474  0.48488  1.0000
  S   S160      1.0  0.63261  0.17118  0.47599  1.0000
  C   C1136     1.0  0.53238  0.10872  0.37706  1.0000
  H   H910      1.0  0.83419  0.02668  0.41160  1.0000
  C   C1137     1.0  0.77399  0.11416  0.48542  1.0000
  C   C1138     1.0  0.75124  0.14204  0.48541  1.0000
  C   C1139     1.0  0.72264  0.12865  0.48359  1.0000
  H   H911      1.0  0.75575  0.17429  0.48674  1.0000
  H   H912      1.0  0.70548  0.15054  0.48352  1.0000
  H   H913      1.0  0.82580  0.40547  0.37691  1.0000
  C   C1140     1.0  0.60553  0.18479  0.33632  1.0000
  C   C1141     1.0  0.60247  0.17818  0.36411  1.0000
  C   C1142     1.0  0.58694  0.20552  0.37979  1.0000
  C   C1143     1.0  0.57512  0.23999  0.36718  1.0000
  C   C1144     1.0  0.57883  0.24718  0.33952  1.0000
  H   H914      1.0  0.73782  0.39859  0.56192  1.0000
  H   H915      1.0  0.61189  0.15169  0.37335  1.0000
  H   H916      1.0  0.56302  0.26144  0.37893  1.0000
  H   H917      1.0  0.56954  0.27383  0.33035  1.0000
  C   C1145     1.0  0.54395  0.47013  0.59885  1.0000
  C   C1146     1.0  0.99149  0.19560  0.64880  1.0000
  C   C1147     1.0  0.89352  0.01653  0.38047  1.0000
  S   S161      1.0  0.89422  0.47213  0.41741  1.0000
  C   C1148     1.0  0.80499  0.39826  0.33857  1.0000
  C   C1149     1.0  0.89498  0.42885  0.34108  1.0000
  H   H918      1.0  0.64326  0.08861  0.62430  1.0000
  H   H919      1.0  0.89619  0.04493  0.39108  1.0000
  H   H920      1.0  0.80807  0.33708  0.52500  1.0000
  H   H921      1.0  0.52543  0.13279  0.36394  1.0000
  Fe  Fe81      1.0  0.88701  0.03711  0.52461  1.0000
  S   S162      1.0  0.88399  0.10600  0.52268  1.0000
  C   C1150     1.0  0.98969  0.40182  0.42945  1.0000
  S   S163      1.0  0.92144  0.03437  0.49313  1.0000
  Fe  Fe82      1.0  0.60280  0.16534  0.51116  1.0000
  S   S164      1.0  0.61051  0.09822  0.51668  1.0000
  S   S165      1.0  0.60572  0.21722  0.54197  1.0000
  Fe  Fe83      1.0  0.63848  0.10357  0.48018  1.0000
  S   S166      1.0  0.68068  0.06825  0.47873  1.0000
  C   C1151     1.0  0.59397  0.21948  0.32376  1.0000
  C   C1152     1.0  0.92324  0.30876  0.52691  1.0000
  C   C1153     1.0  0.93086  0.38142  0.52206  1.0000
  H   H922      1.0  0.54648  0.25502  0.59648  1.0000
  H   H923      1.0  0.97151  0.97863  0.48704  1.0000
  C   C1154     1.0  0.96161  0.40741  0.42095  1.0000
  C   C1155     1.0  0.75116  0.43583  0.63524  1.0000
  H   H924      1.0  0.95238  0.20903  0.51930  1.0000
  C   C1156     1.0  0.71635  0.08704  0.48156  1.0000
  C   C1157     1.0  0.73912  0.05916  0.48156  1.0000
  C   C1158     1.0  0.76770  0.07253  0.48358  1.0000
  H   H925      1.0  0.73461  0.02694  0.47996  1.0000
  H   H926      1.0  0.78484  0.05063  0.48353  1.0000
  C   C1159     1.0  0.60182  0.22267  0.63407  1.0000
  C   C1160     1.0  0.60757  0.25766  0.61903  1.0000
  C   C1161     1.0  0.60885  0.25535  0.59091  1.0000
  C   C1162     1.0  0.60429  0.21822  0.57747  1.0000
  C   C1163     1.0  0.59844  0.18340  0.59253  1.0000
  C   C1164     1.0  0.59728  0.18560  0.62061  1.0000
  C   C1165     1.0  0.55732  0.28887  0.49373  1.0000
  H   H927      1.0  0.61342  0.28248  0.57946  1.0000
  H   H928      1.0  0.59445  0.15495  0.58242  1.0000
  H   H929      1.0  0.59265  0.15839  0.63196  1.0000
  C   C1166     1.0  0.78572  0.46958  0.37226  1.0000
  C   C1167     1.0  0.53848  0.34092  0.61234  1.0000
  C   C1168     1.0  0.87152  0.14430  0.37559  1.0000
  C   C1169     1.0  0.62165  0.07770  0.62154  1.0000
  H   H930      1.0  0.95709  0.42592  0.40358  1.0000
  C   C1170     1.0  0.88131  0.42365  0.62120  1.0000
  H   H931      1.0  0.91768  0.39399  0.42799  1.0000
  H   H932      1.0  0.99259  0.15491  0.34423  1.0000
  H   H933      1.0  0.88086  0.39878  0.58131  1.0000
  H   H934      1.0  0.88172  0.39420  0.63084  1.0000
  C   C1171     1.0  0.68618  0.23830  0.56740  1.0000
  C   C1172     1.0  0.70913  0.21733  0.55628  1.0000
  C   C1173     1.0  0.73608  0.22024  0.56796  1.0000
  C   C1174     1.0  0.74018  0.24446  0.59061  1.0000
  C   C1175     1.0  0.71744  0.26683  0.60132  1.0000
  C   C1176     1.0  0.69021  0.26258  0.59000  1.0000
  P   P39       1.0  0.72207  0.29589  0.63158  1.0000
  H   H935      1.0  0.94162  0.44730  0.62800  1.0000
  H   H936      1.0  0.93147  0.40876  0.50993  1.0000
  H   H937      1.0  0.79041  0.06003  0.42850  1.0000
  C   C1177     1.0  0.52730  0.31674  0.52873  1.0000
  C   C1178     1.0  0.76034  0.39728  0.55748  1.0000
  C   C1179     1.0  0.80049  0.34523  0.61510  1.0000
  C   C1180     1.0  0.77336  0.32797  0.61231  1.0000
  C   C1181     1.0  0.79908  0.98313  0.58985  1.0000
  C   C1182     1.0  0.97033  0.21533  0.50644  1.0000
  H   H938      1.0  0.57545  0.34733  0.55391  1.0000
  H   H939      1.0  0.74434  0.01881  0.35981  1.0000
  C   C1183     1.0  0.76484  0.04164  0.39486  1.0000
  C   C1184     1.0  0.69256  0.36032  0.60812  1.0000
  C   C1185     1.0  0.67581  0.39549  0.60860  1.0000
  S   S167      1.0  0.88074  0.46578  0.54425  1.0000
  H   H940      1.0  0.51820  0.33115  0.62046  1.0000
  C   C1186     1.0  0.51979  0.33616  0.48249  1.0000
  H   H941      1.0  0.66514  0.23517  0.55869  1.0000
  H   H942      1.0  0.70587  0.19821  0.53889  1.0000
  H   H943      1.0  0.75369  0.20313  0.55964  1.0000
  H   H944      1.0  0.76098  0.24522  0.59992  1.0000
  H   H945      1.0  0.67194  0.27748  0.59881  1.0000
  H   H946      1.0  0.85438  0.30419  0.33045  1.0000
  C   C1187     1.0  0.55265  0.05024  0.41263  1.0000
  H   H947      1.0  0.81278  0.35354  0.59767  1.0000
  H   H948      1.0  0.76475  0.32344  0.59255  1.0000
  P   P40       1.0  0.89290  0.20409  0.34095  1.0000
  C   C1188     1.0  0.51193  0.98227  0.46786  1.0000
  C   C1189     1.0  0.77896  0.42768  0.56675  1.0000
  H   H949      1.0  0.70061  0.34937  0.58922  1.0000
  C   C1190     1.0  0.54244  0.31136  0.47466  1.0000
  C   C1191     1.0  0.84217  0.35408  0.35586  1.0000
  C   C1192     1.0  0.51235  0.00242  0.49250  1.0000
  H   H950      1.0  0.88413  0.12237  0.36476  1.0000
  C   C1193     1.0  0.52363  0.19911  0.59072  1.0000
  H   H951      1.0  0.96424  0.98006  0.56409  1.0000
  C   C1194     1.0  0.81473  0.02552  0.39998  1.0000
  H   H952      1.0  0.67087  0.41124  0.59017  1.0000
  C   C1195     1.0  0.50992  0.26353  0.57066  1.0000
  C   C1196     1.0  0.89543  0.43208  0.36917  1.0000
  H   H953      1.0  0.74343  0.39748  0.37827  1.0000
  C   C1197     1.0  0.58520  0.37047  0.61928  1.0000
  H   H954      1.0  0.87851  0.39779  0.50484  1.0000
  H   H955      1.0  0.85464  0.09830  0.40189  1.0000
  H   H956      1.0  0.49529  0.43166  0.43439  1.0000
  H   H957      1.0  0.85759  0.34680  0.37118  1.0000
  H   H958      1.0  0.98406  0.16448  0.64680  1.0000
  H   H959      1.0  0.62253  0.08567  0.57890  1.0000
  H   H960      1.0  0.52504  0.15882  0.43006  1.0000
  H   H961      1.0  0.56113  0.27332  0.53509  1.0000
  H   H962      1.0  0.57463  0.26905  0.48772  1.0000
  H   H963      1.0  0.86663  0.20836  0.46370  1.0000
  C   C1198     1.0  0.88100  0.42640  0.59304  1.0000
  H   H964      1.0  0.83247  0.42818  0.49392  1.0000
  H   H965      1.0  0.57274  0.10253  0.35718  1.0000
  C   C1199     1.0  0.75752  0.31690  0.63493  1.0000
  H   H966      1.0  0.56088  0.02836  0.42676  1.0000
  H   H967      1.0  0.54375  0.04176  0.61111  1.0000
  C   C1200     1.0  0.93238  0.32987  0.35997  1.0000
  S   S168      1.0  0.88117  0.99538  0.56171  1.0000
  C   C1201     1.0  0.51483  0.09514  0.39789  1.0000
  H   H968      1.0  0.93218  0.31027  0.40091  1.0000
  H   H969      1.0  0.65299  0.43804  0.63332  1.0000
  H   H970      1.0  0.83276  0.36567  0.64269  1.0000
  C   C1202     1.0  0.59100  0.36651  0.59207  1.0000
  H   H971      1.0  0.59056  0.04984  0.38842  1.0000
  C   C1203     1.0  0.88596  0.22567  0.46002  1.0000
  C   C1204     1.0  0.50062  0.17980  0.57834  1.0000
  C   C1205     1.0  0.92146  0.16892  0.33369  1.0000
  C   C1206     1.0  0.91405  0.28135  0.32788  1.0000
  H   H972      1.0  0.96756  0.29269  0.64337  1.0000
  C   C1207     1.0  0.54971  0.29146  0.52061  1.0000
  H   H973      1.0  0.58011  0.99292  0.46764  1.0000
  C   C1208     1.0  0.87180  0.18582  0.36876  1.0000
  C   C1209     1.0  0.90807  0.25356  0.34845  1.0000
  C   C1210     1.0  0.91495  0.26412  0.37483  1.0000
  C   C1211     1.0  0.89340  0.97716  0.59344  1.0000
  C   C1212     1.0  0.85498  0.21306  0.38353  1.0000
  C   C1213     1.0  0.83844  0.19901  0.40486  1.0000
  C   C1214     1.0  0.83833  0.15768  0.41150  1.0000
  C   C1215     1.0  0.85475  0.13037  0.39676  1.0000
  C   C1216     1.0  0.70676  0.37945  0.35555  1.0000
  C   C1217     1.0  0.98701  0.25094  0.51040  1.0000
  H   H974      1.0  0.77573  0.01385  0.55884  1.0000
  H   H975      1.0  0.89822  0.40497  0.38110  1.0000
  C   C1218     1.0  0.89237  0.47004  0.38192  1.0000
  C   C1219     1.0  0.56943  0.06238  0.39102  1.0000
  H   H976      1.0  0.91136  0.24279  0.39094  1.0000
  H   H977      1.0  0.89747  0.39954  0.33160  1.0000
  H   H978      1.0  0.85452  0.24512  0.37849  1.0000
  H   H979      1.0  0.82556  0.22005  0.41628  1.0000
  H   H980      1.0  0.82554  0.14679  0.42810  1.0000
  C   C1220     1.0  0.88174  0.45904  0.63677  1.0000
  H   H981      1.0  0.80929  0.41390  0.45048  1.0000
  H   H982      1.0  0.94175  0.35935  0.36437  1.0000
  C   C1221     1.0  0.84042  0.33005  0.33295  1.0000
  C   C1222     1.0  0.52826  0.24089  0.58704  1.0000
  C   C1223     1.0  0.97566  0.03332  0.54147  1.0000
  H   H983      1.0  0.54829  0.30918  0.45380  1.0000
  H   H984      1.0  0.55438  0.36118  0.65050  1.0000
  C   C1224     1.0  0.89581  0.01552  0.35236  1.0000
  C   C1225     1.0  0.95720  0.42407  0.63267  1.0000
  C   C1226     1.0  0.81863  0.39176  0.54658  1.0000
  H   H985      1.0  0.72924  0.98385  0.57195  1.0000
  C   C1227     1.0  0.55889  0.35790  0.62938  1.0000
  H   H986      1.0  0.61143  0.37611  0.58423  1.0000
  H   H987      1.0  0.52776  0.22712  0.44955  1.0000
  C   C1228     1.0  0.98237  0.26821  0.64707  1.0000
  H   H988      1.0  0.57263  0.06291  0.57255  1.0000
  H   H989      1.0  0.91848  0.27910  0.51861  1.0000
  C   C1229     1.0  0.81185  0.35198  0.64045  1.0000
  C   C1230     1.0  0.51206  0.33870  0.50940  1.0000
  C   C1231     1.0  0.88810  0.98068  0.39476  1.0000
  C   C1232     1.0  0.82430  0.38782  0.35884  1.0000
  H   H990      1.0  0.87050  0.27968  0.47916  1.0000
  H   H991      1.0  0.50713  0.40342  0.55658  1.0000
  H   H992      1.0  0.84128  0.38975  0.54258  1.0000
  H   H993      1.0  0.74564  0.05574  0.40251  1.0000
  C   C1233     1.0  0.93649  0.38449  0.54935  1.0000
  C   C1234     1.0  0.69357  0.37944  0.33056  1.0000
  C   C1235     1.0  0.88116  0.46444  0.57995  1.0000
  C   C1236     1.0  0.73308  0.39887  0.35900  1.0000
  C   C1237     1.0  0.92688  0.30225  0.38055  1.0000
  H   H994      1.0  0.81939  0.99660  0.58425  1.0000
  H   H995      1.0  0.95446  0.20437  0.35327  1.0000
  H   H996      1.0  0.97752  0.34244  0.48379  1.0000
  C   C1238     1.0  0.79993  0.36214  0.53678  1.0000
  C   C1239     1.0  0.54419  0.33659  0.58499  1.0000
  H   H997      1.0  0.73136  0.42671  0.62601  1.0000
  C   C1240     1.0  0.57053  0.34984  0.57492  1.0000
  H   H998      1.0  0.83552  0.03541  0.33046  1.0000
  H   H999      1.0  0.61108  0.28640  0.62903  1.0000
  H   H1000     1.0  0.49705  0.14750  0.58121  1.0000
  H   H1001     1.0  0.57462  0.98457  0.53801  1.0000
  C   C1241     1.0  0.79006  0.04407  0.40956  1.0000
  P   P41       1.0  0.51676  0.31651  0.56336  1.0000
  C   C1242     1.0  0.55941  0.09199  0.37342  1.0000
  H   H1002     1.0  0.75635  0.34169  0.53485  1.0000
  H   H1003     1.0  0.90015  0.04337  0.34163  1.0000
  C   C1243     1.0  0.93573  0.34975  0.56542  1.0000
  H   H1004     1.0  0.51358  0.05897  0.43403  1.0000
  C   C1244     1.0  0.92926  0.31187  0.55418  1.0000
  C   C1245     1.0  0.77451  0.99282  0.57551  1.0000
  C   C1246     1.0  0.80820  0.42432  0.56155  1.0000
  P   P42       1.0  0.78121  0.44123  0.34159  1.0000
  H   H1005     1.0  0.53814  0.18152  0.60285  1.0000
  C   C1247     1.0  0.50627  0.17786  0.42959  1.0000
  H   H1006     1.0  0.49472  0.15731  0.48259  1.0000
  C   C1248     1.0  0.91835  0.99147  0.60560  1.0000
  C   C1249     1.0  0.94936  0.17682  0.34245  1.0000
  H   H1007     1.0  0.85541  0.07084  0.63103  1.0000
  H   H1008     1.0  0.98172  0.27147  0.52649  1.0000
  H   H1009     1.0  0.93100  0.01451  0.59571  1.0000
  H   H1010     1.0  0.94012  0.35230  0.58658  1.0000
  H   H1011     1.0  0.83227  0.36705  0.41832  1.0000
  C   C1250     1.0  0.89169  0.46365  0.32531  1.0000
  C   C1251     1.0  0.93408  0.22893  0.44298  1.0000
  C   C1252     1.0  0.90878  0.20733  0.44690  1.0000
  C   C1253     1.0  0.66579  0.41067  0.63288  1.0000
  C   C1254     1.0  0.88832  0.26595  0.46886  1.0000
  C   C1255     1.0  0.91356  0.28813  0.46458  1.0000
  C   C1256     1.0  0.93668  0.26899  0.45208  1.0000
  P   P43       1.0  0.91596  0.34051  0.47546  1.0000
  C   C1257     1.0  0.88226  0.36437  0.46767  1.0000
  C   C1258     1.0  0.92379  0.34363  0.51069  1.0000
  C   C1259     1.0  0.86426  0.05700  0.64881  1.0000
  H   H1012     1.0  0.63177  0.00899  0.46820  1.0000
  H   H1013     1.0  0.82299  0.44701  0.56898  1.0000
  C   C1260     1.0  0.77217  0.45641  0.62048  1.0000
  C   C1261     1.0  0.69906  0.33978  0.63192  1.0000
  C   C1262     1.0  0.86877  0.35590  0.44327  1.0000
  C   C1263     1.0  0.84248  0.37350  0.43717  1.0000
  C   C1264     1.0  0.82942  0.39966  0.45536  1.0000
  C   C1265     1.0  0.84249  0.40779  0.47979  1.0000
  C   C1266     1.0  0.86883  0.39043  0.48591  1.0000
  C   C1267     1.0  0.94455  0.36565  0.45772  1.0000
  C   C1268     1.0  0.93915  0.38924  0.43495  1.0000
  C   C1269     1.0  0.74833  0.97576  0.58287  1.0000
  C   C1270     1.0  0.77080  0.36484  0.54229  1.0000
  H   H1014     1.0  0.94107  0.41402  0.55805  1.0000
  H   H1015     1.0  0.95208  0.21400  0.43369  1.0000
  H   H1016     1.0  0.90727  0.17595  0.44041  1.0000
  H   H1017     1.0  0.98379  0.43812  0.59893  1.0000
  C   C1271     1.0  0.49334  0.44289  0.45457  1.0000
  H   H1018     1.0  0.95684  0.28449  0.44948  1.0000
  H   H1019     1.0  0.60111  0.38303  0.63263  1.0000
  H   H1020     1.0  0.69673  0.36382  0.37212  1.0000
  C   C1272     1.0  0.52575  0.06739  0.41654  1.0000
  C   C1273     1.0  0.97713  0.18777  0.48608  1.0000
  H   H1021     1.0  0.87870  0.33592  0.42887  1.0000
  C   C1274     1.0  0.58181  0.06335  0.59241  1.0000
  C   C1275     1.0  0.56545  0.05148  0.61443  1.0000
  H   H1022     1.0  0.95573  0.04876  0.54542  1.0000
  C   C1276     1.0  0.98668  0.06935  0.64602  1.0000
  H   H1023     1.0  0.83754  0.00389  0.64643  1.0000
  C   C1277     1.0  0.74611  0.41924  0.33759  1.0000
  C   C1278     1.0  0.92698  0.97594  0.63066  1.0000
  H   H1024     1.0  0.98787  0.05782  0.62580  1.0000
  H   H1025     1.0  0.94156  0.06117  0.64863  1.0000
  C   C1279     1.0  0.97277  0.36065  0.46632  1.0000
  H   H1026     1.0  0.53947  0.21076  0.64702  1.0000
  C   C1280     1.0  0.81428  0.00489  0.37560  1.0000
  H   H1027     1.0  0.92897  0.28484  0.56656  1.0000
  H   H1028     1.0  0.53717  0.43859  0.59988  1.0000
  C   C1281     1.0  0.97112  0.14885  0.33737  1.0000
  C   C1282     1.0  0.60996  0.07613  0.59595  1.0000
  C   C1283     1.0  0.98044  0.99452  0.55194  1.0000
  C   C1284     1.0  0.92606  0.31934  0.33365  1.0000
  S   S169      1.0  0.88466  0.97986  0.43027  1.0000
  H   H1029     1.0  0.56266  0.97367  0.58573  1.0000
  H   H1030     1.0  0.67337  0.36392  0.32774  1.0000
  C   C1285     1.0  0.76425  0.02069  0.37054  1.0000
  C   C1286     1.0  0.50335  0.01789  0.64703  1.0000
  C   C1287     1.0  0.98098  0.41887  0.61629  1.0000
  H   H1031     1.0  0.83170  0.22216  0.33353  1.0000
  H   H1032     1.0  0.94654  0.98677  0.63956  1.0000
  C   C1288     1.0  0.97279  0.22799  0.64450  1.0000
  C   C1289     1.0  0.50791  0.21683  0.44074  1.0000
  H   H1033     1.0  0.61721  0.16299  0.32448  1.0000
  H   H1034     1.0  0.52722  0.99047  0.45274  1.0000
  C   C1290     1.0  0.62447  0.97883  0.46250  1.0000
  C   C1291     1.0  0.60539  0.06581  0.64358  1.0000
  H   H1035     1.0  0.98881  0.08832  0.42067  1.0000
  H   H1036     1.0  0.50796  0.35307  0.46762  1.0000
  C   C1292     1.0  0.57724  0.05214  0.64020  1.0000
  C   C1293     1.0  0.89282  0.97877  0.33807  1.0000
  H   H1037     1.0  0.73300  0.47002  0.53665  1.0000
  H   H1038     1.0  0.49391  0.35715  0.51474  1.0000
  C   C1294     1.0  0.78904  0.00209  0.36067  1.0000
  H   H1039     1.0  0.50037  0.05054  0.64579  1.0000
  H   H1040     1.0  0.83355  0.99042  0.36857  1.0000
  C   C1295     1.0  0.79846  0.46523  0.63257  1.0000
  P   P44       1.0  0.76603  0.47007  0.58607  1.0000
  H   H1041     1.0  0.99188  0.08151  0.51673  1.0000
  P   P45       1.0  0.78877  0.97424  0.32942  1.0000
  C   C1296     1.0  0.96518  0.11271  0.32374  1.0000
  Fe  Fe84      1.0  0.88189  0.40632  0.76861  1.0000
  S   S170      1.0  0.87955  0.33739  0.76858  1.0000
  C   C1297     1.0  0.78124  0.43784  0.67442  1.0000
  Fe  Fe85      1.0  0.88276  0.41028  0.70630  1.0000
  S   S171      1.0  0.87993  0.34224  0.70289  1.0000
  C   C1298     1.0  0.50956  0.31981  0.77278  1.0000
  Fe  Fe86      1.0  0.84718  0.34521  0.73567  1.0000
  S   S172      1.0  0.80707  0.30561  0.73408  1.0000
  Fe  Fe87      1.0  0.91289  0.33943  0.73588  1.0000
  S   S173      1.0  0.94862  0.29321  0.72583  1.0000
  S   S174      1.0  0.84781  0.41332  0.73708  1.0000
  S   S175      1.0  0.91732  0.40822  0.73775  1.0000
  Fe  Fe88      1.0  0.57448  0.35361  0.72155  1.0000
  S   S176      1.0  0.56431  0.28699  0.72652  1.0000
  S   S177      1.0  0.54229  0.39983  0.70481  1.0000
  Fe  Fe89      1.0  0.63831  0.33777  0.73057  1.0000
  S   S178      1.0  0.63221  0.27027  0.73605  1.0000
  S   S179      1.0  0.67988  0.37419  0.73096  1.0000
  Fe  Fe90      1.0  0.60246  0.27448  0.70067  1.0000
  H   H1042     1.0  0.66779  0.26949  0.65492  1.0000
  Fe  Fe91      1.0  0.59459  0.28757  0.76165  1.0000
  S   S180      1.0  0.58011  0.24919  0.79775  1.0000
  S   S181      1.0  0.61111  0.34080  0.69359  1.0000
  S   S182      1.0  0.60227  0.35550  0.75826  1.0000
  Fe  Fe92      1.0  0.90382  0.03639  0.95838  1.0000
  S   S183      1.0  0.89802  0.10476  0.95660  1.0000
  H   H1043     1.0  0.68344  0.43788  0.88844  1.0000
  H   H1044     1.0  0.75255  0.26545  0.73343  1.0000
  C   C1299     1.0  0.49512  0.46437  0.75910  1.0000
  H   H1045     1.0  0.70273  0.29092  0.73166  1.0000
  H   H1046     1.0  0.57379  0.27579  0.97117  1.0000
  C   C1300     1.0  0.74649  0.40365  0.86143  1.0000
  Fe  Fe93      1.0  0.60907  0.17265  0.95140  1.0000
  S   S184      1.0  0.61296  0.10583  0.94217  1.0000
  S   S185      1.0  0.61171  0.22610  0.92158  1.0000
  H   H1047     1.0  0.73429  0.41378  0.73235  1.0000
  H   H1048     1.0  0.67825  0.39723  0.84708  1.0000
  C   C1301     1.0  0.52863  0.00175  0.65761  1.0000
  C   C1302     1.0  0.56857  0.33404  0.91468  1.0000
  H   H1049     1.0  0.78398  0.38817  0.73459  1.0000
  C   C1303     1.0  0.74860  0.29787  0.73322  1.0000
  C   C1304     1.0  0.72033  0.31225  0.73221  1.0000
  C   C1305     1.0  0.71348  0.26114  0.65830  1.0000
  C   C1306     1.0  0.88541  0.14203  0.71942  1.0000
  C   C1307     1.0  0.50498  0.46461  0.70437  1.0000
  C   C1308     1.0  0.86601  0.00087  0.67999  1.0000
  C   C1309     1.0  0.51954  0.43623  0.72039  1.0000
  C   C1310     1.0  0.54949  0.30143  0.91706  1.0000
  H   H1050     1.0  0.75712  0.24271  0.66558  1.0000
  C   C1311     1.0  0.88298  0.00080  0.85095  1.0000
  H   H1051     1.0  0.74101  0.46696  0.80772  1.0000
  C   C1312     1.0  0.59072  0.24209  0.83173  1.0000
  C   C1313     1.0  0.60859  0.26952  0.84505  1.0000
  C   C1314     1.0  0.61494  0.26396  0.87238  1.0000
  C   C1315     1.0  0.60421  0.23025  0.88669  1.0000
  C   C1316     1.0  0.58673  0.20241  0.87325  1.0000
  C   C1317     1.0  0.57982  0.20858  0.84610  1.0000
  H   H1052     1.0  0.61713  0.29524  0.83429  1.0000
  H   H1053     1.0  0.62824  0.28599  0.88249  1.0000
  H   H1054     1.0  0.57802  0.17658  0.88391  1.0000
  H   H1055     1.0  0.56585  0.18720  0.83613  1.0000
  C   C1318     1.0  0.97564  0.25973  0.73844  1.0000
  S   S186      1.0  0.53933  0.05843  0.96217  1.0000
  H   H1056     1.0  0.66691  0.24485  0.95250  1.0000
  C   C1319     1.0  0.53732  0.01835  0.83462  1.0000
  C   C1320     1.0  0.74650  0.99366  0.91464  1.0000
  C   C1321     1.0  0.77255  0.98571  0.72023  1.0000
  H   H1057     1.0  0.64336  0.44471  0.91943  1.0000
  H   H1058     1.0  0.89700  0.00492  0.71109  1.0000
  S   S187      1.0  0.88327  0.45801  0.67244  1.0000
  H   H1059     1.0  0.52610  0.41563  0.76060  1.0000
  C   C1322     1.0  0.52524  0.46028  0.98573  1.0000
  C   C1323     1.0  0.51488  0.43686  0.74795  1.0000
  S   S188      1.0  0.87475  0.45111  0.80371  1.0000
  C   C1324     1.0  0.53980  0.03774  0.85933  1.0000
  S   S189      1.0  0.90329  0.47150  0.92855  1.0000
  C   C1325     1.0  0.77180  0.32509  0.73393  1.0000
  C   C1326     1.0  0.76639  0.36693  0.73374  1.0000
  C   C1327     1.0  0.73817  0.38133  0.73255  1.0000
  C   C1328     1.0  0.71497  0.35414  0.73195  1.0000
  H   H1060     1.0  0.66520  0.40260  0.67562  1.0000
  H   H1061     1.0  0.97149  0.35249  0.67977  1.0000
  C   C1329     1.0  0.57542  0.01002  0.71918  1.0000
  H   H1062     1.0  0.69434  0.18410  0.71452  1.0000
  H   H1063     1.0  0.51801  0.27787  0.80491  1.0000
  C   C1330     1.0  0.97501  0.42911  0.94861  1.0000
  H   H1064     1.0  0.87300  0.11639  0.72661  1.0000
  C   C1331     1.0  0.74056  0.43931  0.81950  1.0000
  C   C1332     1.0  0.92155  0.07362  0.75925  1.0000
  H   H1065     1.0  0.57546  0.12114  0.67438  1.0000
  H   H1066     1.0  0.63261  0.36275  0.83710  1.0000
  C   C1333     1.0  0.53018  0.38120  0.92380  1.0000
  C   C1334     1.0  0.55888  0.37429  0.91734  1.0000
  H   H1067     1.0  0.96719  0.97526  0.75851  1.0000
  C   C1335     1.0  0.74849  0.43976  0.84651  1.0000
  H   H1068     1.0  0.73918  0.41165  0.67369  1.0000
  C   C1336     1.0  0.67815  0.22611  0.68532  1.0000
  C   C1337     1.0  0.52088  0.30862  0.92300  1.0000
  H   H1069     1.0  0.74489  0.19515  0.70177  1.0000
  C   C1338     1.0  0.69972  0.20525  0.69870  1.0000
  C   C1339     1.0  0.98250  0.46366  0.96333  1.0000
  C   C1340     1.0  0.89776  0.42571  0.85271  1.0000
  H   H1070     1.0  0.98589  0.13631  0.82538  1.0000
  H   H1071     1.0  0.69468  0.34093  0.67495  1.0000
  H   H1072     1.0  0.73462  0.29047  0.98617  1.0000
  C   C1341     1.0  0.78105  0.10958  0.97735  1.0000
  C   C1342     1.0  0.89813  0.05826  0.68547  1.0000
  S   S190      1.0  0.91816  0.99172  0.92563  1.0000
  C   C1343     1.0  0.80946  0.01009  0.89190  1.0000
  H   H1073     1.0  0.65678  0.39364  0.97912  1.0000
  H   H1074     1.0  0.93739  0.05861  0.88198  1.0000
  C   C1344     1.0  0.98683  0.22945  0.72153  1.0000
  C   C1345     1.0  0.92719  0.16942  0.69741  1.0000
  H   H1075     1.0  0.94686  0.00037  0.80104  1.0000
  H   H1076     1.0  0.80329  0.42487  0.86967  1.0000
  C   C1346     1.0  0.81683  0.03182  0.91502  1.0000
  C   C1347     1.0  0.82686  0.07183  0.91313  1.0000
  C   C1348     1.0  0.82932  0.09066  0.88828  1.0000
  C   C1349     1.0  0.82182  0.06939  0.86519  1.0000
  C   C1350     1.0  0.81192  0.02925  0.86695  1.0000
  H   H1077     1.0  0.51155  0.17092  0.72562  1.0000
  H   H1078     1.0  0.83916  0.41459  0.90486  1.0000
  C   C1351     1.0  0.89434  0.46589  0.89400  1.0000
  C   C1352     1.0  0.95889  0.08520  0.68554  1.0000
  C   C1353     1.0  0.96041  0.07133  0.65909  1.0000
  C   C1354     1.0  0.53951  0.01474  0.88277  1.0000
  C   C1355     1.0  0.54486  0.14984  0.69960  1.0000
  C   C1356     1.0  0.72297  0.08412  0.97564  1.0000
  C   C1357     1.0  0.57986  0.00811  0.69153  1.0000
  C   C1358     1.0  0.75875  0.13810  0.97626  1.0000
  H   H1079     1.0  0.79088  0.04565  0.97854  1.0000
  C   C1359     1.0  0.94341  0.01723  0.78273  1.0000
  H   H1080     1.0  0.53796  0.03620  0.81644  1.0000
  C   C1360     1.0  0.96679  0.14674  0.78726  1.0000
  H   H1081     1.0  0.81473  0.01800  0.93454  1.0000
  H   H1082     1.0  0.83264  0.08834  0.93100  1.0000
  H   H1083     1.0  0.83699  0.12174  0.88698  1.0000
  H   H1084     1.0  0.82379  0.08395  0.84589  1.0000
  H   H1085     1.0  0.80638  0.01332  0.84879  1.0000
  C   C1361     1.0  0.71750  0.99406  0.92092  1.0000
  H   H1086     1.0  0.54228  0.07056  0.86032  1.0000
  H   H1087     1.0  0.52473  0.34225  0.77982  1.0000
  H   H1088     1.0  0.60530  0.98070  0.66031  1.0000
  H   H1089     1.0  0.54183  0.02974  0.90196  1.0000
  C   C1362     1.0  0.87421  0.18132  0.72163  1.0000
  C   C1363     1.0  0.66355  0.42243  0.88425  1.0000
  H   H1090     1.0  0.98339  0.10795  0.71905  1.0000
  C   C1364     1.0  0.96622  0.15410  0.88046  1.0000
  C   C1365     1.0  0.51984  0.14539  0.71436  1.0000
  C   C1366     1.0  0.59401  0.42693  0.95114  1.0000
  H   H1091     1.0  0.96704  0.18923  0.95760  1.0000
  C   C1367     1.0  0.50149  0.99148  0.75836  1.0000
  C   C1368     1.0  0.51681  0.07466  0.70088  1.0000
  H   H1092     1.0  0.73811  0.33900  0.86035  1.0000
  H   H1093     1.0  0.86909  0.02138  0.84032  1.0000
  P   P46       1.0  0.92563  0.08473  0.70369  1.0000
  C   C1369     1.0  0.58892  0.28472  0.98645  1.0000
  C   C1370     1.0  0.93278  0.05943  0.73503  1.0000
  H   H1094     1.0  0.97675  0.38215  0.79719  1.0000
  C   C1371     1.0  0.95469  0.00295  0.75875  1.0000
  H   H1095     1.0  0.62293  0.29190  0.95857  1.0000
  C   C1372     1.0  0.98399  0.09747  0.69857  1.0000
  P   P47       1.0  0.96574  0.20041  0.86098  1.0000
  C   C1373     1.0  0.95821  0.18876  0.82636  1.0000
  S   S191      1.0  0.81698  0.12767  0.97843  1.0000
  C   C1374     1.0  0.97774  0.41370  0.80347  1.0000
  H   H1096     1.0  0.50623  0.28323  0.92521  1.0000
  C   C1375     1.0  0.88210  0.45498  0.83868  1.0000
  H   H1097     1.0  0.75901  0.02058  0.91894  1.0000
  H   H1098     1.0  0.55818  0.02780  0.72743  1.0000
  C   C1376     1.0  0.93937  0.21271  0.81124  1.0000
  C   C1377     1.0  0.93451  0.20379  0.78435  1.0000
  C   C1378     1.0  0.94847  0.17115  0.77233  1.0000
  H   H1099     1.0  0.77299  0.00507  0.73772  1.0000
  C   C1379     1.0  0.51680  0.01689  0.97235  1.0000
  C   C1380     1.0  0.93908  0.23464  0.87403  1.0000
  C   C1381     1.0  0.93935  0.27590  0.86654  1.0000
  C   C1382     1.0  0.91926  0.30285  0.87701  1.0000
  C   C1383     1.0  0.89886  0.28889  0.89515  1.0000
  C   C1384     1.0  0.89846  0.24791  0.90274  1.0000
  C   C1385     1.0  0.91844  0.22081  0.89221  1.0000
  C   C1386     1.0  0.66067  0.39951  0.86098  1.0000
  H   H1100     1.0  0.93234  0.42173  0.80241  1.0000
  Fe  Fe94      1.0  0.64545  0.10355  0.97548  1.0000
  C   C1387     1.0  0.52986  0.26891  0.66431  1.0000
  H   H1101     1.0  0.71315  0.14806  0.97492  1.0000
  H   H1102     1.0  0.94764  0.16572  0.68787  1.0000
  C   C1388     1.0  0.88954  0.00848  0.87796  1.0000
  C   C1389     1.0  0.92684  0.05249  0.78297  1.0000
  S   S192      1.0  0.68694  0.06637  0.97506  1.0000
  H   H1103     1.0  0.92864  0.23860  0.81981  1.0000
  H   H1104     1.0  0.92077  0.22320  0.77250  1.0000
  H   H1105     1.0  0.94574  0.16555  0.75126  1.0000
  C   C1390     1.0  0.51129  0.34847  0.92659  1.0000
  H   H1106     1.0  0.98998  0.38088  0.92316  1.0000
  H   H1107     1.0  0.91953  0.33461  0.87111  1.0000
  H   H1108     1.0  0.80345  0.47105  0.82326  1.0000
  C   C1391     1.0  0.73857  0.36712  0.84905  1.0000
  H   H1109     1.0  0.91777  0.18926  0.89848  1.0000
  C   C1392     1.0  0.61192  0.38353  0.87295  1.0000
  C   C1393     1.0  0.72814  0.21148  0.69151  1.0000
  H   H1110     1.0  0.97847  0.28574  0.77765  1.0000
  H   H1111     1.0  0.70812  0.02101  0.92976  1.0000
  H   H1112     1.0  0.59085  0.32753  0.91117  1.0000
  C   C1394     1.0  0.63492  0.38000  0.85539  1.0000
  H   H1113     1.0  0.51566  0.32233  0.68500  1.0000
  H   H1114     1.0  0.91765  0.06290  0.80156  1.0000
  H   H1115     1.0  0.89360  0.10598  0.65593  1.0000
  H   H1116     1.0  0.61647  0.44071  0.69322  1.0000
  H   H1117     1.0  0.92701  0.23428  0.69085  1.0000
  C   C1395     1.0  0.68926  0.35554  0.65623  1.0000
  H   H1118     1.0  0.72558  0.33845  0.81222  1.0000
  C   C1396     1.0  0.94989  0.12022  0.87264  1.0000
  C   C1397     1.0  0.91558  0.20848  0.69907  1.0000
  H   H1119     1.0  0.69819  0.36868  0.95084  1.0000
  C   C1398     1.0  0.80425  0.44612  0.88613  1.0000
  C   C1399     1.0  0.73154  0.36673  0.82196  1.0000
  Fe  Fe95      1.0  0.85929  0.09320  0.98282  1.0000
  H   H1120     1.0  0.91649  0.40881  0.89052  1.0000
  C   C1400     1.0  0.94979  0.08480  0.88812  1.0000
  H   H1121     1.0  0.49870  0.35389  0.73774  1.0000
  C   C1401     1.0  0.69235  0.34065  0.94100  1.0000
  C   C1402     1.0  0.69684  0.33750  0.91350  1.0000
  C   C1403     1.0  0.69021  0.30136  0.90015  1.0000
  C   C1404     1.0  0.67974  0.26802  0.91440  1.0000
  C   C1405     1.0  0.67530  0.27101  0.94186  1.0000
  H   H1122     1.0  0.95512  0.28722  0.85258  1.0000
  C   C1406     1.0  0.95267  0.43601  0.80654  1.0000
  H   H1123     1.0  0.59197  0.36879  0.86783  1.0000
  H   H1124     1.0  0.50605  0.04550  0.70230  1.0000
  C   C1407     1.0  0.98179  0.15228  0.90433  1.0000
  H   H1125     1.0  0.88271  0.23714  0.91691  1.0000
  C   C1408     1.0  0.76877  0.32497  0.66032  1.0000
  C   C1409     1.0  0.97420  0.37052  0.66179  1.0000
  C   C1410     1.0  0.52348  0.22895  0.65694  1.0000
  C   C1411     1.0  0.75554  0.42712  0.66223  1.0000
  C   C1412     1.0  0.74696  0.97902  0.70670  1.0000
  H   H1126     1.0  0.93698  0.12113  0.85477  1.0000
  C   C1413     1.0  0.90400  0.43134  0.88007  1.0000
  C   C1414     1.0  0.72993  0.12559  0.97563  1.0000
  H   H1127     1.0  0.70544  0.36310  0.90256  1.0000
  H   H1128     1.0  0.69314  0.29901  0.87878  1.0000
  H   H1129     1.0  0.67442  0.23991  0.90414  1.0000
  P   P48       1.0  0.55681  0.03534  0.66881  1.0000
  C   C1415     1.0  0.56181  0.46153  0.87423  1.0000
  S   S193      1.0  0.59970  0.22322  0.66955  1.0000
  C   C1416     1.0  0.88936  0.21457  0.71153  1.0000
  P   P49       1.0  0.58355  0.41659  0.91701  1.0000
  C   C1417     1.0  0.61446  0.40694  0.89631  1.0000
  C   C1418     1.0  0.55582  0.11686  0.68528  1.0000
  C   C1419     1.0  0.91230  0.13587  0.70783  1.0000
  H   H1130     1.0  0.72638  0.40257  0.78638  1.0000
  H   H1131     1.0  0.58021  0.36829  0.96657  1.0000
  H   H1132     1.0  0.75156  0.40354  0.88250  1.0000
  C   C1420     1.0  0.73501  0.23893  0.67116  1.0000
  C   C1421     1.0  0.74528  0.05553  0.97650  1.0000
  C   C1422     1.0  0.60192  0.98358  0.68157  1.0000
  H   H1133     1.0  0.93555  0.40448  0.66829  1.0000
  H   H1134     1.0  0.95760  0.01175  0.71649  1.0000
  H   H1135     1.0  0.90534  0.39895  0.84242  1.0000
  H   H1136     1.0  0.90869  0.10074  0.76009  1.0000
  H   H1137     1.0  0.52249  0.41179  0.92737  1.0000
  H   H1138     1.0  0.55600  0.17884  0.69953  1.0000
  H   H1139     1.0  0.61477  0.06745  0.66330  1.0000
  H   H1140     1.0  0.98856  0.26068  0.89860  1.0000
  C   C1423     1.0  0.96526  0.08326  0.91186  1.0000
  H   H1141     1.0  0.50687  0.01057  0.77517  1.0000
  H   H1142     1.0  0.76382  0.17021  0.97578  1.0000
  C   C1424     1.0  0.79602  0.34173  0.66303  1.0000
  C   C1425     1.0  0.64062  0.42611  0.90188  1.0000
  C   C1426     1.0  0.82472  0.44022  0.90596  1.0000
  C   C1427     1.0  0.88793  0.02020  0.69397  1.0000
  C   C1428     1.0  0.50582  0.10782  0.71498  1.0000
  C   C1429     1.0  0.73219  0.40290  0.80731  1.0000
  H   H1143     1.0  0.88074  0.24509  0.71321  1.0000
  C   C1430     1.0  0.60267  0.46671  0.69606  1.0000
  C   C1431     1.0  0.61289  0.47315  0.98467  1.0000
  H   H1144     1.0  0.88070  0.03474  0.88793  1.0000
  H   H1145     1.0  0.55076  0.28136  0.66000  1.0000
  C   C1432     1.0  0.97149  0.15534  0.81417  1.0000
  H   H1146     1.0  0.55699  0.27043  0.91466  1.0000
  H   H1147     1.0  0.88341  0.30989  0.90336  1.0000
  H   H1148     1.0  0.65611  0.22059  0.69055  1.0000
  H   H1149     1.0  0.97806  0.12190  0.77776  1.0000
  C   C1433     1.0  0.59298  0.98813  0.73657  1.0000
  S   S194      1.0  0.57423  0.16417  0.98212  1.0000
  C   C1434     1.0  0.50994  0.29195  0.67842  1.0000
  Fe  Fe96      1.0  0.57926  0.09639  0.97401  1.0000
  S   S195      1.0  0.64365  0.17064  0.98277  1.0000
  H   H1150     1.0  0.95294  0.41925  0.94791  1.0000
  C   C1435     1.0  0.50586  0.28346  0.78688  1.0000
  C   C1436     1.0  0.54173  0.07902  0.68561  1.0000
  C   C1437     1.0  0.90800  0.98267  0.89182  1.0000
  H   H1151     1.0  0.75648  0.31859  0.67809  1.0000
  H   H1152     1.0  0.78478  0.43101  0.69528  1.0000
  H   H1153     1.0  0.96464  0.05597  0.92408  1.0000
  C   C1438     1.0  0.98106  0.11709  0.92004  1.0000
  C   C1439     1.0  0.68492  0.25394  0.66518  1.0000
  H   H1154     1.0  0.85364  0.18610  0.73091  1.0000
  C   C1440     1.0  0.94927  0.02378  0.73500  1.0000
  C   C1441     1.0  0.58943  0.39766  0.97119  1.0000
  H   H1155     1.0  0.82296  0.46379  0.66887  1.0000
  C   C1442     1.0  0.67260  0.39075  0.65667  1.0000
  S   S196      1.0  0.86390  0.02527  0.98220  1.0000
  C   C1443     1.0  0.60615  0.46460  0.95811  1.0000
  H   H1156     1.0  0.97910  0.22731  0.70137  1.0000
  C   C1444     1.0  0.80279  0.45637  0.65952  1.0000
  C   C1445     1.0  0.56538  0.45955  0.90204  1.0000
  H   H1157     1.0  0.58925  0.98937  0.75785  1.0000
  C   C1446     1.0  0.98190  0.20294  0.97143  1.0000
  H   H1158     1.0  0.80470  0.34746  0.68271  1.0000
  H   H1159     1.0  0.59551  0.45361  0.73758  1.0000
  C   C1447     1.0  0.68085  0.30764  0.95532  1.0000
  H   H1160     1.0  0.72752  0.99313  0.71371  1.0000
  C   C1448     1.0  0.82737  0.46818  0.92676  1.0000
  H   H1161     1.0  0.56937  0.43734  0.86150  1.0000
  C   C1449     1.0  0.77410  0.06807  0.97758  1.0000
  H   H1162     1.0  0.74021  0.02342  0.97648  1.0000
  C   C1450     1.0  0.61708  0.29351  0.97937  1.0000
  C   C1451     1.0  0.88603  0.07662  0.66285  1.0000
  H   H1163     1.0  0.50850  0.46459  0.68307  1.0000
  C   C1452     1.0  0.85416  0.01923  0.65747  1.0000
  C   C1453     1.0  0.98647  0.26252  0.76437  1.0000
  H   H1164     1.0  0.84341  0.46354  0.94196  1.0000
  H   H1165     1.0  0.99242  0.11618  0.93878  1.0000
  C   C1454     1.0  0.53433  0.97596  0.83332  1.0000
  C   C1455     1.0  0.95381  0.39992  0.65539  1.0000
  C   C1456     1.0  0.49465  0.32639  0.74901  1.0000
  C   C1457     1.0  0.49703  0.21200  0.66335  1.0000
  C   C1458     1.0  0.51147  0.42205  0.98817  1.0000
  Fe  Fe97      1.0  0.89423  0.92806  0.27129  1.0000
  S   S197      1.0  0.88550  0.86118  0.27690  1.0000
  H   H1166     1.0  0.53708  0.72632  0.01777  1.0000
  Fe  Fe98      1.0  0.90134  0.91771  0.20985  1.0000
  S   S198      1.0  0.89279  0.84999  0.21190  1.0000
  C   C1459     1.0  0.91765  0.65683  0.09833  1.0000
  Fe  Fe99      1.0  0.85731  0.86722  0.24051  1.0000
  S   S199      1.0  0.81458  0.83299  0.23900  1.0000
  Fe  Fe100     1.0  0.92154  0.84904  0.24799  1.0000
  S   S200      1.0  0.95811  0.80540  0.26005  1.0000
  S   S201      1.0  0.86426  0.93484  0.23622  1.0000
  S   S202      1.0  0.93188  0.91590  0.24463  1.0000
  Fe  Fe101     1.0  0.57720  0.85015  0.23302  1.0000
  S   S203      1.0  0.57398  0.78113  0.23424  1.0000
  S   S204      1.0  0.53700  0.88706  0.22123  1.0000
  Fe  Fe102     1.0  0.64298  0.84689  0.23810  1.0000
  S   S205      1.0  0.64297  0.77877  0.23927  1.0000
  S   S206      1.0  0.68315  0.88721  0.24036  1.0000
  Fe  Fe103     1.0  0.61101  0.78085  0.20547  1.0000
  S   S207      1.0  0.61941  0.73677  0.17012  1.0000
  Fe  Fe104     1.0  0.60605  0.78423  0.26801  1.0000
  S   S208      1.0  0.60897  0.74056  0.30437  1.0000
  S   S209      1.0  0.61305  0.84926  0.20284  1.0000
  S   S210      1.0  0.60731  0.85313  0.26831  1.0000
  Fe  Fe105     1.0  0.88495  0.54156  0.01898  1.0000
  S   S211      1.0  0.87427  0.60738  0.00972  1.0000
  H   H1167     1.0  0.86425  0.50153  0.23536  1.0000
  C   C1460     1.0  0.63845  0.75787  0.01427  1.0000
  Fe  Fe106     1.0  0.59496  0.64648  0.01579  1.0000
  S   S212      1.0  0.59761  0.57789  0.01559  1.0000
  S   S213      1.0  0.57982  0.68503  0.05175  1.0000
  H   H1168     1.0  0.76223  0.78771  0.23787  1.0000
  H   H1169     1.0  0.72965  0.51025  0.99726  1.0000
  C   C1461     1.0  0.97777  0.76591  0.07491  1.0000
  H   H1170     1.0  0.69019  0.60370  0.07031  1.0000
  H   H1171     1.0  0.92661  0.51215  0.17753  1.0000
  C   C1462     1.0  0.98611  0.68281  0.00575  1.0000
  C   C1463     1.0  0.69881  0.95559  0.29434  1.0000
  H   H1172     1.0  0.53240  0.63577  0.06509  1.0000
  C   C1464     1.0  0.64366  0.95469  0.17337  1.0000
  H   H1173     1.0  0.82980  0.96597  0.01316  1.0000
  H   H1174     1.0  0.71117  0.80731  0.23829  1.0000
  H   H1175     1.0  0.95509  0.61808  0.22995  1.0000
  C   C1465     1.0  0.97902  0.76443  0.24701  1.0000
  H   H1176     1.0  0.92994  0.68428  0.16255  1.0000
  C   C1466     1.0  0.88954  0.49142  0.08982  1.0000
  C   C1467     1.0  0.51477  0.92836  0.23184  1.0000
  C   C1468     1.0  0.51813  0.94762  0.25652  1.0000
  C   C1469     1.0  0.89692  0.66980  0.20759  1.0000
  H   H1177     1.0  0.53453  0.93726  0.27004  1.0000
  C   C1470     1.0  0.50480  0.95933  0.00126  1.0000
  C   C1471     1.0  0.60863  0.72517  0.13659  1.0000
  C   C1472     1.0  0.58386  0.74090  0.12490  1.0000
  C   C1473     1.0  0.57567  0.72879  0.09886  1.0000
  C   C1474     1.0  0.59221  0.70122  0.08389  1.0000
  C   C1475     1.0  0.61737  0.68657  0.09523  1.0000
  C   C1476     1.0  0.62529  0.69804  0.12142  1.0000
  H   H1178     1.0  0.57074  0.76179  0.13610  1.0000
  H   H1179     1.0  0.55622  0.74065  0.09033  1.0000
  H   H1180     1.0  0.63050  0.66591  0.08390  1.0000
  H   H1181     1.0  0.64458  0.68589  0.13004  1.0000
  H   H1182     1.0  0.56730  0.55674  0.06647  1.0000
  H   H1183     1.0  0.75784  0.55750  0.28306  1.0000
  H   H1184     1.0  0.82168  0.54699  0.16561  1.0000
  C   C1477     1.0  0.65559  0.56133  0.06491  1.0000
  H   H1185     1.0  0.88078  0.66931  0.19214  1.0000
  H   H1186     1.0  0.65915  0.74884  0.02171  1.0000
  C   C1478     1.0  0.92402  0.68145  0.12027  1.0000
  H   H1187     1.0  0.90909  0.56612  0.13000  1.0000
  H   H1188     1.0  0.63082  0.49973  0.20622  1.0000
  H   H1189     1.0  0.95571  0.59395  0.04507  1.0000
  C   C1479     1.0  0.91300  0.59845  0.12757  1.0000
  C   C1480     1.0  0.50158  0.74399  0.04206  1.0000
  H   H1190     1.0  0.92722  0.76546  0.30907  1.0000
  C   C1481     1.0  0.97431  0.74757  0.22176  1.0000
  H   H1191     1.0  0.82686  0.84375  0.29623  1.0000
  C   C1482     1.0  0.77826  0.84924  0.23951  1.0000
  C   C1483     1.0  0.77045  0.89034  0.24057  1.0000
  C   C1484     1.0  0.74134  0.90141  0.24089  1.0000
  C   C1485     1.0  0.71962  0.87164  0.24003  1.0000
  C   C1486     1.0  0.72748  0.83062  0.23895  1.0000
  C   C1487     1.0  0.75654  0.81958  0.23873  1.0000
  H   H1192     1.0  0.78684  0.91350  0.24100  1.0000
  H   H1193     1.0  0.73560  0.93324  0.24182  1.0000
  H   H1194     1.0  0.95768  0.75982  0.20920  1.0000
  H   H1195     1.0  0.86287  0.59104  0.15566  1.0000
  C   C1488     1.0  0.52225  0.75051  0.02245  1.0000
  H   H1196     1.0  0.92850  0.71357  0.11741  1.0000
  H   H1197     1.0  0.57444  0.79112  0.03664  1.0000
  C   C1489     1.0  0.92452  0.66474  0.14593  1.0000
  C   C1490     1.0  0.67126  0.59029  0.07911  1.0000
  C   C1491     1.0  0.66259  0.60176  0.10466  1.0000
  C   C1492     1.0  0.61738  0.77067  0.03199  1.0000
  H   H1198     1.0  0.78243  0.93706  0.16545  1.0000
  C   C1493     1.0  0.63111  0.54400  0.07611  1.0000
  C   C1494     1.0  0.81173  0.90132  0.31089  1.0000
  H   H1199     1.0  0.56171  0.68333  0.29739  1.0000
  C   C1495     1.0  0.62179  0.55623  0.10147  1.0000
  C   C1496     1.0  0.98289  0.91842  0.03671  1.0000
  C   C1497     1.0  0.98012  0.92841  0.06366  1.0000
  H   H1200     1.0  0.97979  0.61930  0.18528  1.0000
  H   H1201     1.0  0.51140  0.56936  0.17572  1.0000
  H   H1202     1.0  0.90555  0.54515  0.22579  1.0000
  H   H1203     1.0  0.78931  0.93333  0.98950  1.0000
  C   C1498     1.0  0.91698  0.70191  0.24675  1.0000
  H   H1204     1.0  0.63157  0.59410  0.13567  1.0000
  C   C1499     1.0  0.84335  0.60732  0.31739  1.0000
  C   C1500     1.0  0.54330  0.50580  0.05160  1.0000
  H   H1205     1.0  0.94764  0.53267  0.07300  1.0000
  C   C1501     1.0  0.57854  0.53562  0.27201  1.0000
  C   C1502     1.0  0.56635  0.56151  0.25287  1.0000
  C   C1503     1.0  0.56160  0.54688  0.22700  1.0000
  P   P50       1.0  0.56112  0.61451  0.26056  1.0000
  C   C1504     1.0  0.50865  0.91936  0.13438  1.0000
  H   H1206     1.0  0.98708  0.90964  0.10403  1.0000
  H   H1207     1.0  0.90410  0.61589  0.28106  1.0000
  C   C1505     1.0  0.59576  0.63744  0.25633  1.0000
  C   C1506     1.0  0.60522  0.64856  0.23076  1.0000
  C   C1507     1.0  0.63225  0.66573  0.22732  1.0000
  C   C1508     1.0  0.65016  0.67133  0.24925  1.0000
  C   C1509     1.0  0.64119  0.65925  0.27461  1.0000
  C   C1510     1.0  0.61416  0.64209  0.27816  1.0000
  H   H1208     1.0  0.58355  0.54678  0.29178  1.0000
  H   H1209     1.0  0.73971  0.94726  0.00390  1.0000
  H   H1210     1.0  0.77943  0.53270  0.98864  1.0000
  C   C1511     1.0  0.53512  0.63882  0.23947  1.0000
  H   H1211     1.0  0.59165  0.64455  0.21350  1.0000
  H   H1212     1.0  0.63915  0.67544  0.20769  1.0000
  H   H1213     1.0  0.67078  0.68568  0.24665  1.0000
  H   H1214     1.0  0.65482  0.66446  0.29170  1.0000
  H   H1215     1.0  0.60756  0.63324  0.29801  1.0000
  H   H1216     1.0  0.95423  0.67343  0.26311  1.0000
  C   C1512     1.0  0.95864  0.53211  0.27222  1.0000
  H   H1217     1.0  0.99151  0.63488  0.29483  1.0000
  C   C1513     1.0  0.59039  0.78124  0.02250  1.0000
  H   H1218     1.0  0.73427  0.94939  0.14691  1.0000
  C   C1514     1.0  0.63793  0.58487  0.11581  1.0000
  C   C1515     1.0  0.87684  0.49607  0.11511  1.0000
  H   H1219     1.0  0.80814  0.91289  0.29099  1.0000
  C   C1516     1.0  0.62130  0.94943  0.15507  1.0000
  C   C1517     1.0  0.97715  0.58656  0.18392  1.0000
  C   C1518     1.0  0.53828  0.68008  0.23274  1.0000
  H   H1220     1.0  0.92757  0.54065  0.30278  1.0000
  S   S214      1.0  0.88081  0.52679  0.06391  1.0000
  C   C1519     1.0  0.60799  0.49895  0.14157  1.0000
  C   C1520     1.0  0.96429  0.84825  0.13438  1.0000
  C   C1521     1.0  0.95137  0.85443  0.15917  1.0000
  C   C1522     1.0  0.56977  0.50515  0.09326  1.0000
  C   C1523     1.0  0.80808  0.97299  0.01879  1.0000
  H   H1221     1.0  0.67832  0.95083  0.28482  1.0000
  C   C1524     1.0  0.52842  0.90238  0.15190  1.0000
  C   C1525     1.0  0.51129  0.62327  0.06194  1.0000
  C   C1526     1.0  0.56786  0.56748  0.13282  1.0000
  C   C1527     1.0  0.95784  0.59064  0.30199  1.0000
  C   C1528     1.0  0.98209  0.60618  0.28904  1.0000
  H   H1222     1.0  0.67485  0.62408  0.11573  1.0000
  H   H1223     1.0  0.86156  0.52019  0.11815  1.0000
  H   H1224     1.0  0.96505  0.79043  0.06681  1.0000
  H   H1225     1.0  0.90766  0.59622  0.08494  1.0000
  H   H1226     1.0  0.66257  0.55221  0.04522  1.0000
  H   H1227     1.0  0.50678  0.58662  0.23764  1.0000
  H   H1228     1.0  0.51004  0.94047  0.01824  1.0000
  H   H1229     1.0  0.58349  0.62033  0.11135  1.0000
  H   H1230     1.0  0.91714  0.72678  0.26097  1.0000
  C   C1529     1.0  0.94629  0.55336  0.29336  1.0000
  C   C1530     1.0  0.97061  0.72568  0.06859  1.0000
  H   H1231     1.0  0.95247  0.85550  0.11647  1.0000
  H   H1232     1.0  0.93014  0.86725  0.16023  1.0000
  H   H1233     1.0  0.84311  0.51133  0.27670  1.0000
  C   C1531     1.0  0.52359  0.78783  0.00876  1.0000
  C   C1532     1.0  0.78530  0.95424  0.00571  1.0000
  H   H1234     1.0  0.51950  0.60626  0.02121  1.0000
  H   H1235     1.0  0.78483  0.97323  0.27114  1.0000
  H   H1236     1.0  0.85554  0.94101  0.09539  1.0000
  H   H1237     1.0  0.55354  0.56682  0.21165  1.0000
  C   C1533     1.0  0.62723  0.48885  0.18608  1.0000
  C   C1534     1.0  0.93863  0.64090  0.22872  1.0000
  H   H1238     1.0  0.85223  0.60908  0.27526  1.0000
  H   H1239     1.0  0.52721  0.56130  0.29583  1.0000
  H   H1240     1.0  0.54568  0.52121  0.15565  1.0000
  H   H1241     1.0  0.95602  0.84955  0.20186  1.0000
  C   C1535     1.0  0.86119  0.61002  0.29515  1.0000
  C   C1536     1.0  0.91820  0.62327  0.14983  1.0000
  P   P51       1.0  0.59165  0.53182  0.11716  1.0000
  C   C1537     1.0  0.94723  0.52659  0.17987  1.0000
  H   H1242     1.0  0.91193  0.69366  0.31031  1.0000
  C   C1538     1.0  0.98269  0.54783  0.25946  1.0000
  C   C1539     1.0  0.56752  0.50630  0.22078  1.0000
  C   C1540     1.0  0.52858  0.62168  0.15527  1.0000
  C   C1541     1.0  0.54902  0.63588  0.13729  1.0000
  C   C1542     1.0  0.56839  0.60884  0.12582  1.0000
  C   C1543     1.0  0.52745  0.58036  0.16188  1.0000
  H   H1243     1.0  0.62169  0.77143  0.05322  1.0000
  H   H1244     1.0  0.55673  0.69707  0.23937  1.0000
  C   C1544     1.0  0.89633  0.70069  0.22675  1.0000
  H   H1245     1.0  0.98066  0.66229  0.07443  1.0000
  C   C1545     1.0  0.98861  0.90073  0.08330  1.0000
  H   H1246     1.0  0.60422  0.91015  0.12418  1.0000
  C   C1546     1.0  0.51730  0.70003  0.21793  1.0000
  C   C1547     1.0  0.99223  0.83329  0.13295  1.0000
  H   H1247     1.0  0.51353  0.64278  0.16389  1.0000
  H   H1248     1.0  0.54982  0.66791  0.13212  1.0000
  H   H1249     1.0  0.98665  0.59035  0.00553  1.0000
  H   H1250     1.0  0.50050  0.71501  0.05233  1.0000
  H   H1251     1.0  0.56316  0.49464  0.20104  1.0000
  C   C1548     1.0  0.58448  0.49508  0.26569  1.0000
  C   C1549     1.0  0.55389  0.92281  0.15739  1.0000
  H   H1252     1.0  0.80577  0.56003  0.26217  1.0000
  H   H1253     1.0  0.59518  0.85722  0.98973  1.0000
  C   C1550     1.0  0.54715  0.62094  0.29378  1.0000
  C   C1551     1.0  0.88301  0.94568  0.12982  1.0000
  C   C1552     1.0  0.96589  0.84455  0.18262  1.0000
  C   C1553     1.0  0.51428  0.95694  0.12239  1.0000
  C   C1554     1.0  0.66532  0.92570  0.17522  1.0000
  C   C1555     1.0  0.66478  0.89115  0.15900  1.0000
  C   C1556     1.0  0.64277  0.88584  0.14057  1.0000
  C   C1557     1.0  0.62119  0.91495  0.13847  1.0000
  H   H1254     1.0  0.60514  0.54273  0.17382  1.0000
  H   H1255     1.0  0.62209  0.50237  0.98986  1.0000
  C   C1558     1.0  0.76793  0.50647  0.30837  1.0000
  H   H1256     1.0  0.59329  0.47481  0.28061  1.0000
  H   H1257     1.0  0.50943  0.74892  0.27424  1.0000
  H   H1258     1.0  0.91671  0.66981  0.07848  1.0000
  C   C1559     1.0  0.93792  0.67182  0.24790  1.0000
  C   C1560     1.0  0.55996  0.96036  0.14523  1.0000
  H   H1259     1.0  0.52390  0.87358  0.16167  1.0000
  H   H1260     1.0  0.88012  0.72414  0.22587  1.0000
  H   H1261     1.0  0.53685  0.52149  0.03353  1.0000
  C   C1561     1.0  0.55033  0.65844  0.30683  1.0000
  C   C1562     1.0  0.89063  0.61386  0.29853  1.0000
  H   H1262     1.0  0.56875  0.90930  0.17137  1.0000
  H   H1263     1.0  0.82216  0.50181  0.20534  1.0000
  H   H1264     1.0  0.51987  0.73195  0.21287  1.0000
  S   S215      1.0  0.91861  0.95456  0.17415  1.0000
  H   H1265     1.0  0.68106  0.86804  0.16124  1.0000
  H   H1266     1.0  0.64210  0.85859  0.12838  1.0000
  H   H1267     1.0  0.95303  0.71956  0.05514  1.0000
  H   H1268     1.0  0.98635  0.70101  0.19358  1.0000
  C   C1563     1.0  0.82192  0.50962  0.28506  1.0000
  C   C1564     1.0  0.96673  0.56588  0.04046  1.0000
  H   H1269     1.0  0.49544  0.52181  0.09355  1.0000
  C   C1565     1.0  0.61248  0.51293  0.16770  1.0000
  C   C1566     1.0  0.56076  0.52553  0.07014  1.0000
  C   C1567     1.0  0.71353  0.92240  0.30489  1.0000
  C   C1568     1.0  0.54699  0.55326  0.15064  1.0000
  C   C1569     1.0  0.83997  0.54690  0.17879  1.0000
  C   C1570     1.0  0.84017  0.52157  0.20121  1.0000
  C   C1571     1.0  0.86380  0.52138  0.21814  1.0000
  C   C1572     1.0  0.88733  0.54597  0.21253  1.0000
  C   C1573     1.0  0.88767  0.57047  0.18959  1.0000
  C   C1574     1.0  0.86355  0.57158  0.17306  1.0000
  P   P52       1.0  0.91875  0.60109  0.18278  1.0000
  C   C1575     1.0  0.91848  0.64023  0.20806  1.0000
  C   C1576     1.0  0.94988  0.56903  0.18295  1.0000
  C   C1577     1.0  0.91246  0.61531  0.10197  1.0000
  C   C1578     1.0  0.53118  0.58983  0.30601  1.0000
  C   C1579     1.0  0.50422  0.81870  0.01532  1.0000
  C   C1580     1.0  0.51029  0.61804  0.23181  1.0000
  C   C1581     1.0  0.87499  0.95410  0.10323  1.0000
  H   H1270     1.0  0.86984  0.92627  0.14217  1.0000
  C   C1582     1.0  0.90797  0.96249  0.14038  1.0000
  H   H1271     1.0  0.99222  0.53136  0.24302  1.0000
  H   H1272     1.0  0.68212  0.92931  0.18987  1.0000
  C   C1583     1.0  0.80100  0.53727  0.27718  1.0000
  H   H1273     1.0  0.50471  0.84783  0.00533  1.0000
  C   C1584     1.0  0.97143  0.50200  0.17927  1.0000
  H   H1274     1.0  0.61982  0.52085  0.06498  1.0000
  C   C1585     1.0  0.96205  0.53128  0.05611  1.0000
  C   C1586     1.0  0.77402  0.53580  0.28892  1.0000
  H   H1275     1.0  0.94948  0.50335  0.26579  1.0000
  C   C1587     1.0  0.50399  0.60664  0.03723  1.0000
  H   H1276     1.0  0.82054  0.60414  0.31481  1.0000
  H   H1277     1.0  0.49669  0.63836  0.10135  1.0000
  C   C1588     1.0  0.99060  0.71399  0.21299  1.0000
  H   H1278     1.0  0.97919  0.65833  0.01858  1.0000
  C   C1589     1.0  0.75261  0.96430  0.13806  1.0000
  C   C1590     1.0  0.58411  0.77847  0.99515  1.0000
  H   H1279     1.0  0.56025  0.97051  0.20210  1.0000
  C   C1591     1.0  0.77976  0.95725  0.14849  1.0000
  C   C1592     1.0  0.75739  0.96208  0.01385  1.0000
  C   C1593     1.0  0.82246  0.86192  0.31378  1.0000
  C   C1594     1.0  0.98438  0.56372  0.01801  1.0000
  C   C1595     1.0  0.97544  0.49465  0.04962  1.0000
  H   H1280     1.0  0.70442  0.89209  0.30331  1.0000
  S   S216      1.0  0.67486  0.54803  0.98942  1.0000
  H   H1281     1.0  0.97626  0.93986  0.02149  1.0000
  C   C1596     1.0  0.93288  0.70154  0.31767  1.0000
  H   H1282     1.0  0.97127  0.95757  0.06938  1.0000
  C   C1597     1.0  0.94133  0.74239  0.31710  1.0000
  H   H1283     1.0  0.74712  0.50615  0.31770  1.0000
  S   S217      1.0  0.92263  0.54130  0.99075  1.0000
  H   H1284     1.0  0.51673  0.81521  0.25130  1.0000
  C   C1598     1.0  0.57894  0.48044  0.24010  1.0000
  S   S218      1.0  0.63316  0.65428  0.98889  1.0000
  C   C1599     1.0  0.98626  0.69343  0.07933  1.0000
  C   C1600     1.0  0.78860  0.47773  0.31566  1.0000
  H   H1285     1.0  0.82464  0.96944  0.14450  1.0000
  C   C1601     1.0  0.81573  0.47975  0.30406  1.0000
  C   C1602     1.0  0.73352  0.53998  0.98873  1.0000
  C   C1603     1.0  0.49580  0.80124  0.25170  1.0000
  C   C1604     1.0  0.75280  0.96694  0.31730  1.0000
  C   C1605     1.0  0.74034  0.92797  0.31647  1.0000
  C   C1606     1.0  0.49303  0.94233  0.21472  1.0000
  H   H1286     1.0  0.87355  0.47376  0.15574  1.0000
  H   H1287     1.0  0.49880  0.97019  0.10894  1.0000
  Fe  Fe107     1.0  0.88810  0.52004  0.45045  1.0000
  S   S219      1.0  0.88439  0.58858  0.44937  1.0000
  C   C1607     1.0  0.53567  0.84997  0.44870  1.0000
  Fe  Fe108     1.0  0.91399  0.58962  0.48504  1.0000
  S   S220      1.0  0.95480  0.62817  0.49289  1.0000
  Fe  Fe109     1.0  0.84900  0.57948  0.47972  1.0000
  S   S221      1.0  0.80721  0.61501  0.47659  1.0000
  S   S222      1.0  0.85112  0.51145  0.47855  1.0000
  Fe  Fe110     1.0  0.59285  0.64689  0.45865  1.0000
  S   S223      1.0  0.60146  0.57908  0.45633  1.0000
  S   S224      1.0  0.57873  0.69242  0.42591  1.0000
  Fe  Fe111     1.0  0.57005  0.57098  0.49027  1.0000
  S   S225      1.0  0.53294  0.52787  0.50214  1.0000
  S   S226      1.0  0.55969  0.63768  0.49061  1.0000
  S   S227      1.0  0.62709  0.66038  0.48936  1.0000
  C   C1608     1.0  0.73900  0.87044  0.64616  1.0000
  C   C1609     1.0  0.77151  0.93773  0.61831  1.0000
  C   C1610     1.0  0.77121  0.59812  0.48042  1.0000
  C   C1611     1.0  0.74908  0.62685  0.47874  1.0000
  C   C1612     1.0  0.72024  0.61506  0.48143  1.0000
  H   H1288     1.0  0.75425  0.65854  0.47530  1.0000
  H   H1289     1.0  0.70356  0.63760  0.48005  1.0000
  C   C1613     1.0  0.60067  0.72848  0.33844  1.0000
  C   C1614     1.0  0.61259  0.69328  0.35005  1.0000
  C   C1615     1.0  0.60631  0.68178  0.37663  1.0000
  C   C1616     1.0  0.58773  0.70518  0.39212  1.0000
  C   C1617     1.0  0.57564  0.74023  0.38049  1.0000
  C   C1618     1.0  0.58223  0.75207  0.35401  1.0000
  H   H1290     1.0  0.51811  0.83874  0.37349  1.0000
  H   H1291     1.0  0.61585  0.65478  0.38510  1.0000
  H   H1292     1.0  0.56118  0.75852  0.39215  1.0000
  H   H1293     1.0  0.54011  0.85294  0.46980  1.0000
  C   C1619     1.0  0.79339  0.51866  0.41767  1.0000
  H   H1294     1.0  0.62694  0.67476  0.33840  1.0000
  C   C1620     1.0  0.97425  0.67427  0.48622  1.0000
  C   C1621     1.0  0.88824  0.50467  0.36618  1.0000
  C   C1622     1.0  0.88471  0.94405  0.38044  1.0000
  C   C1623     1.0  0.88700  0.94305  0.35233  1.0000
  H   H1295     1.0  0.79050  0.49888  0.53564  1.0000
  C   C1624     1.0  0.56098  0.55175  0.59622  1.0000
  H   H1296     1.0  0.88032  0.91615  0.39117  1.0000
  H   H1297     1.0  0.88437  0.91461  0.34172  1.0000
  Fe  Fe112     1.0  0.88255  0.51680  0.51248  1.0000
  S   S228      1.0  0.87831  0.58510  0.51541  1.0000
  C   C1625     1.0  0.56111  0.53150  0.62087  1.0000
  S   S229      1.0  0.91981  0.52112  0.48424  1.0000
  Fe  Fe113     1.0  0.59432  0.64581  0.52114  1.0000
  S   S230      1.0  0.60392  0.57895  0.52173  1.0000
  S   S231      1.0  0.57721  0.67803  0.55858  1.0000
  Fe  Fe114     1.0  0.63467  0.59229  0.48815  1.0000
  S   S232      1.0  0.67705  0.55732  0.48912  1.0000
  H   H1298     1.0  0.95592  0.50513  0.39160  1.0000
  H   H1299     1.0  0.67281  0.79876  0.64629  1.0000
  H   H1300     1.0  0.97997  0.91066  0.59948  1.0000
  C   C1626     1.0  0.96470  0.70394  0.46827  1.0000
  H   H1301     1.0  0.80630  0.60710  0.60304  1.0000
  H   H1302     1.0  0.83800  0.51760  0.40780  1.0000
  C   C1627     1.0  0.50692  0.75078  0.50554  1.0000
  H   H1303     1.0  0.56183  0.64718  0.64262  1.0000
  C   C1628     1.0  0.71309  0.57420  0.48578  1.0000
  C   C1629     1.0  0.73523  0.54540  0.48744  1.0000
  C   C1630     1.0  0.76407  0.55720  0.48481  1.0000
  H   H1304     1.0  0.73000  0.51370  0.49069  1.0000
  H   H1305     1.0  0.78071  0.53463  0.48604  1.0000
  C   C1631     1.0  0.61222  0.73252  0.63719  1.0000
  C   C1632     1.0  0.58293  0.72954  0.63250  1.0000
  C   C1633     1.0  0.57272  0.71341  0.60819  1.0000
  C   C1634     1.0  0.59158  0.69913  0.58848  1.0000
  C   C1635     1.0  0.62087  0.70224  0.59310  1.0000
  C   C1636     1.0  0.63106  0.71913  0.61720  1.0000
  H   H1306     1.0  0.79637  0.53774  0.43512  1.0000
  H   H1307     1.0  0.55000  0.71129  0.60485  1.0000
  H   H1308     1.0  0.63568  0.69162  0.57815  1.0000
  H   H1309     1.0  0.65376  0.72134  0.62052  1.0000
  C   C1637     1.0  0.52392  0.63264  0.34471  1.0000
  H   H1310     1.0  0.53047  0.77200  0.56800  1.0000
  C   C1638     1.0  0.88121  0.49977  0.59552  1.0000
  H   H1311     1.0  0.50795  0.57139  0.34112  1.0000
  C   C1639     1.0  0.88550  0.93247  0.63230  1.0000
  H   H1312     1.0  0.88189  0.52466  0.63539  1.0000
  H   H1313     1.0  0.65190  0.51517  0.56183  1.0000
  H   H1314     1.0  0.88113  0.52927  0.58589  1.0000
  C   C1640     1.0  0.88435  0.61282  0.34650  1.0000
  H   H1315     1.0  0.55030  0.47499  0.64108  1.0000
  H   H1316     1.0  0.95034  0.53465  0.34690  1.0000
  C   C1641     1.0  0.52301  0.84207  0.39449  1.0000
  C   C1642     1.0  0.62752  0.78703  0.41840  1.0000
  C   C1643     1.0  0.61767  0.82728  0.41645  1.0000
  H   H1317     1.0  0.95764  0.54969  0.43135  1.0000
  P   P53       1.0  0.59447  0.84873  0.44156  1.0000
  C   C1644     1.0  0.55796  0.84762  0.43011  1.0000
  C   C1645     1.0  0.59592  0.81945  0.47210  1.0000
  C   C1646     1.0  0.58262  0.78112  0.47329  1.0000
  C   C1647     1.0  0.58341  0.75820  0.49676  1.0000
  C   C1648     1.0  0.59691  0.77364  0.51941  1.0000
  C   C1649     1.0  0.60983  0.81200  0.51856  1.0000
  C   C1650     1.0  0.60944  0.83485  0.49500  1.0000
  C   C1651     1.0  0.54481  0.49020  0.57425  1.0000
  C   C1652     1.0  0.67325  0.50521  0.56683  1.0000
  H   H1318     1.0  0.51247  0.90087  0.65232  1.0000
  C   C1653     1.0  0.60589  0.90033  0.44842  1.0000
  H   H1319     1.0  0.75141  0.90158  0.32410  1.0000
  C   C1654     1.0  0.55174  0.54720  0.39612  1.0000
  H   H1320     1.0  0.52449  0.63331  0.42339  1.0000
  C   C1655     1.0  0.58606  0.93072  0.45484  1.0000
  C   C1656     1.0  0.72914  0.85317  0.62226  1.0000
  H   H1321     1.0  0.62220  0.76800  0.43528  1.0000
  H   H1322     1.0  0.57195  0.76867  0.45593  1.0000
  H   H1323     1.0  0.57365  0.72828  0.49734  1.0000
  H   H1324     1.0  0.59748  0.75574  0.53757  1.0000
  H   H1325     1.0  0.62033  0.82385  0.53616  1.0000
  H   H1326     1.0  0.61969  0.86436  0.49487  1.0000
  H   H1327     1.0  0.94066  0.71436  0.53377  1.0000
  H   H1328     1.0  0.88436  0.52832  0.32617  1.0000
  C   C1657     1.0  0.95622  0.56300  0.41165  1.0000
  H   H1329     1.0  0.81564  0.47913  0.62131  1.0000
  H   H1330     1.0  0.56345  0.92437  0.45469  1.0000
  H   H1331     1.0  0.57282  0.77917  0.34558  1.0000
  H   H1332     1.0  0.55569  0.93756  0.50390  1.0000
  C   C1658     1.0  0.97851  0.68318  0.33674  1.0000
  H   H1333     1.0  0.53230  0.71816  0.53400  1.0000
  H   H1334     1.0  0.53120  0.91705  0.59897  1.0000
  C   C1659     1.0  0.98681  0.72414  0.33624  1.0000
  H   H1335     1.0  0.56697  0.58365  0.59484  1.0000
  H   H1336     1.0  0.94482  0.69933  0.45781  1.0000
  C   C1660     1.0  0.60316  0.58791  0.64660  1.0000
  C   C1661     1.0  0.92305  0.84730  0.60636  1.0000
  H   H1337     1.0  0.65084  0.73882  0.39930  1.0000
  H   H1338     1.0  0.64553  0.85080  0.35542  1.0000
  C   C1662     1.0  0.92767  0.73719  0.52401  1.0000
  H   H1339     1.0  0.69759  0.81436  0.60385  1.0000
  H   H1340     1.0  0.83604  0.81555  0.34124  1.0000
  P   P54       1.0  0.57051  0.55929  0.65064  1.0000
  C   C1663     1.0  0.76605  0.50614  0.41022  1.0000
  H   H1341     1.0  0.83122  0.47657  0.36710  1.0000
  C   C1664     1.0  0.90248  0.61483  0.32426  1.0000
  H   H1342     1.0  0.97468  0.78544  0.32564  1.0000
  C   C1665     1.0  0.95070  0.62227  0.38344  1.0000
  C   C1666     1.0  0.94973  0.59725  0.36067  1.0000
  H   H1343     1.0  0.82618  0.92068  0.55137  1.0000
  H   H1344     1.0  0.57350  0.81966  0.63826  1.0000
  H   H1345     1.0  0.87274  0.90965  0.64230  1.0000
  C   C1667     1.0  0.62472  0.85041  0.39378  1.0000
  H   H1346     1.0  0.89279  0.61382  0.36657  1.0000
  C   C1668     1.0  0.76214  0.48204  0.38746  1.0000
  H   H1347     1.0  0.94664  0.78713  0.54502  1.0000
  C   C1669     1.0  0.95205  0.55489  0.36382  1.0000
  C   C1670     1.0  0.50099  0.84455  0.41313  1.0000
  C   C1671     1.0  0.55065  0.58663  0.40648  1.0000
  C   C1672     1.0  0.80504  0.92473  0.33346  1.0000
  C   C1673     1.0  0.82736  0.84590  0.33914  1.0000
  H   H1348     1.0  0.99089  0.49126  0.44965  1.0000
  C   C1674     1.0  0.50175  0.81399  0.64671  1.0000
  H   H1349     1.0  0.82320  0.61643  0.55647  1.0000
  C   C1675     1.0  0.98161  0.88002  0.46907  1.0000
  H   H1350     1.0  0.88556  0.53397  0.37564  1.0000
  C   C1676     1.0  0.87730  0.94721  0.60691  1.0000
  H   H1351     1.0  0.86357  0.79240  0.64472  1.0000
  P   P55       1.0  0.77022  0.90274  0.64610  1.0000
  C   C1677     1.0  0.52053  0.74579  0.53006  1.0000
  H   H1352     1.0  0.96628  0.90452  0.55230  1.0000
  C   C1678     1.0  0.79750  0.95610  0.61136  1.0000
  H   H1353     1.0  0.50846  0.72724  0.49046  1.0000
  C   C1679     1.0  0.72911  0.48109  0.57909  1.0000
  H   H1354     1.0  0.50869  0.59242  0.58515  1.0000
  C   C1680     1.0  0.74675  0.94850  0.60432  1.0000
  C   C1681     1.0  0.55317  0.53102  0.57303  1.0000
  C   C1682     1.0  0.53304  0.89997  0.53198  1.0000
  H   H1355     1.0  0.56979  0.60517  0.40733  1.0000
  C   C1683     1.0  0.89139  0.75436  0.49172  1.0000
  C   C1684     1.0  0.90768  0.72512  0.50495  1.0000
  C   C1685     1.0  0.68329  0.50818  0.59299  1.0000
  C   C1686     1.0  0.93110  0.77845  0.53016  1.0000
  C   C1687     1.0  0.91445  0.80805  0.51730  1.0000
  C   C1688     1.0  0.89486  0.79571  0.49771  1.0000
  P   P56       1.0  0.91922  0.86142  0.52513  1.0000
  C   C1689     1.0  0.88592  0.88767  0.51938  1.0000
  C   C1690     1.0  0.92998  0.86546  0.55976  1.0000
  C   C1691     1.0  0.91503  0.84398  0.57958  1.0000
  H   H1356     1.0  0.80343  0.92435  0.37675  1.0000
  C   C1692     1.0  0.65028  0.79311  0.37522  1.0000
  H   H1357     1.0  0.84108  0.60669  0.36029  1.0000
  C   C1693     1.0  0.95382  0.88879  0.56712  1.0000
  C   C1694     1.0  0.86647  0.89456  0.54016  1.0000
  C   C1695     1.0  0.84069  0.91437  0.53514  1.0000
  C   C1696     1.0  0.83410  0.92748  0.50938  1.0000
  C   C1697     1.0  0.85334  0.92095  0.48862  1.0000
  C   C1698     1.0  0.87915  0.90129  0.49356  1.0000
  C   C1699     1.0  0.94538  0.88470  0.50347  1.0000
  C   C1700     1.0  0.94873  0.92726  0.50352  1.0000
  C   C1701     1.0  0.96881  0.94584  0.48685  1.0000
  C   C1702     1.0  0.50736  0.84843  0.44019  1.0000
  H   H1358     1.0  0.98068  0.55304  0.47645  1.0000
  C   C1703     1.0  0.96185  0.86117  0.48596  1.0000
  H   H1359     1.0  0.87610  0.74491  0.47674  1.0000
  H   H1360     1.0  0.90519  0.69308  0.50015  1.0000
  C   C1704     1.0  0.88155  0.49702  0.62366  1.0000
  H   H1361     1.0  0.61714  0.88136  0.39169  1.0000
  H   H1362     1.0  0.88216  0.81778  0.48705  1.0000
  H   H1363     1.0  0.89703  0.82494  0.57429  1.0000
  C   C1705     1.0  0.56141  0.95895  0.54396  1.0000
  C   C1706     1.0  0.51992  0.59557  0.33156  1.0000
  H   H1364     1.0  0.87126  0.88579  0.56035  1.0000
  C   C1707     1.0  0.51325  0.83480  0.60140  1.0000
  H   H1365     1.0  0.54147  0.69302  0.34231  1.0000
  H   H1366     1.0  0.84860  0.93199  0.46872  1.0000
  H   H1367     1.0  0.89383  0.89706  0.47712  1.0000
  H   H1368     1.0  0.93577  0.94607  0.51647  1.0000
  H   H1369     1.0  0.65081  0.88676  0.44426  1.0000
  C   C1708     1.0  0.55176  0.49080  0.62216  1.0000
  H   H1370     1.0  0.74068  0.47407  0.38158  1.0000
  H   H1371     1.0  0.95948  0.82839  0.48508  1.0000
  C   C1709     1.0  0.51197  0.47396  0.46345  1.0000
  H   H1372     1.0  0.61634  0.55896  0.60971  1.0000
  P   P57       1.0  0.94062  0.61868  0.32854  1.0000
  H   H1373     1.0  0.97265  0.76288  0.45049  1.0000
  H   H1374     1.0  0.81499  0.56234  0.52314  1.0000
  C   C1710     1.0  0.64082  0.83328  0.37320  1.0000
  C   C1711     1.0  0.81682  0.50748  0.40222  1.0000
  H   H1375     1.0  0.82439  0.85638  0.38141  1.0000
  C   C1712     1.0  0.64429  0.94897  0.45576  1.0000
  C   C1713     1.0  0.82078  0.86888  0.36171  1.0000
  C   C1714     1.0  0.55445  0.95305  0.57074  1.0000
  C   C1715     1.0  0.51009  0.93350  0.65019  1.0000
  H   H1376     1.0  0.99086  0.70755  0.41141  1.0000
  H   H1377     1.0  0.52467  0.88053  0.51649  1.0000
  C   C1716     1.0  0.94639  0.87141  0.61352  1.0000
  H   H1378     1.0  0.50186  0.61733  0.51425  1.0000
  H   H1379     1.0  0.74000  0.85925  0.60363  1.0000
  C   C1717     1.0  0.95142  0.67157  0.32748  1.0000
  C   C1718     1.0  0.71126  0.49685  0.59904  1.0000
  C   C1719     1.0  0.50087  0.54002  0.40283  1.0000
  H   H1380     1.0  0.55840  0.83842  0.59271  1.0000
  C   C1720     1.0  0.70524  0.82758  0.62231  1.0000
  H   H1381     1.0  0.55349  0.54680  0.55405  1.0000
  H   H1382     1.0  0.84993  0.82890  0.60324  1.0000
  H   H1383     1.0  0.52771  0.49336  0.38615  1.0000
  C   C1721     1.0  0.84580  0.81336  0.64479  1.0000
  C   C1722     1.0  0.64391  0.77021  0.39793  1.0000
  C   C1723     1.0  0.63509  0.90979  0.44886  1.0000
  H   H1384     1.0  0.91102  0.83164  0.62169  1.0000
  H   H1385     1.0  0.56798  0.84111  0.38806  1.0000
  C   C1724     1.0  0.65394  0.63261  0.64160  1.0000
  H   H1386     1.0  0.78123  0.54397  0.61603  1.0000
  C   C1725     1.0  0.51931  0.77649  0.54935  1.0000
  H   H1387     1.0  0.66967  0.52030  0.60846  1.0000
  H   H1388     1.0  0.52148  0.69247  0.65235  1.0000
  C   C1726     1.0  0.96820  0.75371  0.32646  1.0000
  H   H1389     1.0  0.80910  0.87559  0.60320  1.0000
  C   C1727     1.0  0.79994  0.86801  0.64535  1.0000
  C   C1728     1.0  0.78500  0.51593  0.57709  1.0000
  H   H1390     1.0  0.71906  0.50134  0.61913  1.0000
  C   C1729     1.0  0.49980  0.57925  0.41396  1.0000
  C   C1730     1.0  0.55101  0.82135  0.63341  1.0000
  C   C1731     1.0  0.79419  0.52184  0.55074  1.0000
  C   C1732     1.0  0.80803  0.55788  0.54349  1.0000
  C   C1733     1.0  0.81256  0.58848  0.56233  1.0000
  C   C1734     1.0  0.80302  0.58318  0.58850  1.0000
  C   C1735     1.0  0.78901  0.54720  0.59583  1.0000
  H   H1391     1.0  0.51528  0.63727  0.36445  1.0000
  C   C1736     1.0  0.91047  0.94681  0.64443  1.0000
  H   H1392     1.0  0.67312  0.65072  0.63938  1.0000
  C   C1737     1.0  0.54236  0.83198  0.60766  1.0000
  H   H1393     1.0  0.81659  0.94918  0.62251  1.0000
  C   C1738     1.0  0.69118  0.49087  0.54674  1.0000
  H   H1394     1.0  0.95220  0.87465  0.63434  1.0000
  H   H1395     1.0  0.53888  0.47443  0.55607  1.0000
  H   H1396     1.0  0.81443  0.94364  0.50560  1.0000
  C   C1739     1.0  0.85492  0.60882  0.34304  1.0000
  C   C1740     1.0  0.53881  0.66414  0.33223  1.0000
  C   C1741     1.0  0.80923  0.90786  0.35893  1.0000
  C   C1742     1.0  0.59538  0.96973  0.46206  1.0000
  H   H1397     1.0  0.66005  0.59987  0.60492  1.0000
  C   C1743     1.0  0.52488  0.60249  0.41561  1.0000
  C   C1744     1.0  0.55140  0.84364  0.40290  1.0000
  H   H1398     1.0  0.68372  0.49006  0.52626  1.0000
  C   C1745     1.0  0.52686  0.52388  0.39432  1.0000
  C   C1746     1.0  0.95424  0.60518  0.40878  1.0000
  C   C1747     1.0  0.83815  0.83397  0.62149  1.0000
  C   C1748     1.0  0.96189  0.89192  0.59388  1.0000
  H   H1399     1.0  0.74784  0.51578  0.42193  1.0000
  C   C1749     1.0  0.98521  0.92223  0.46963  1.0000
  H   H1400     1.0  0.52792  0.48638  0.45014  1.0000
  C   C1750     1.0  0.50386  0.81226  0.54436  1.0000
  C   C1751     1.0  0.88780  0.50140  0.33810  1.0000
  H   H1401     1.0  0.66207  0.77944  0.35895  1.0000
  C   C1752     1.0  0.53668  0.92075  0.57817  1.0000
  H   H1402     1.0  0.66683  0.95627  0.45616  1.0000
  C   C1753     1.0  0.52589  0.89377  0.55887  1.0000
  C   C1754     1.0  0.95528  0.53791  0.38921  1.0000
  H   H1403     1.0  0.94771  0.65486  0.38184  1.0000
  H   H1404     1.0  0.95446  0.62444  0.42637  1.0000
  H   H1405     1.0  0.57187  0.53486  0.38939  1.0000
  C   C1755     1.0  0.55080  0.93232  0.52466  1.0000
  C   C1756     1.0  0.81509  0.86084  0.62164  1.0000
  C   C1757     1.0  0.62139  0.58128  0.62481  1.0000
  C   C1758     1.0  0.64652  0.60396  0.62220  1.0000
  C   C1759     1.0  0.51008  0.48866  0.48955  1.0000
  H   H1406     1.0  0.56817  0.73905  0.64778  1.0000
  H   H1407     1.0  0.49428  0.55765  0.54335  1.0000
  C   C1760     1.0  0.98064  0.74009  0.46413  1.0000
  C   C1761     1.0  0.71907  0.47929  0.55274  1.0000
  C   C1762     1.0  0.49299  0.82515  0.62106  1.0000
  C   C1763     1.0  0.54274  0.63441  0.65136  1.0000
  H   H1408     1.0  0.72622  0.93621  0.61001  1.0000
  C   C1764     1.0  0.53073  0.81254  0.65297  1.0000
  H   H1409     1.0  0.85835  0.93525  0.59754  1.0000
  C   C1765     1.0  0.69130  0.81863  0.64623  1.0000
  C   C1766     1.0  0.81294  0.48372  0.37937  1.0000
  P   P58       1.0  0.50238  0.85266  0.56881  1.0000
  H   H1410     1.0  0.50100  0.58665  0.46955  1.0000
  H   H1411     1.0  0.99205  0.80779  0.52222  1.0000
  Fe  Fe115     1.0  0.89249  0.90823  0.77287  1.0000
  S   S233      1.0  0.88124  0.84233  0.77914  1.0000
  C   C1767     1.0  0.98068  0.72325  0.96599  1.0000
  Fe  Fe116     1.0  0.90353  0.89484  0.71244  1.0000
  S   S234      1.0  0.89263  0.82779  0.71526  1.0000
  S   S235      1.0  0.92272  0.92868  0.67616  1.0000
  Fe  Fe117     1.0  0.85571  0.84796  0.74136  1.0000
  S   S236      1.0  0.81174  0.81710  0.73924  1.0000
  Fe  Fe118     1.0  0.91914  0.82720  0.75286  1.0000
  S   S237      1.0  0.94847  0.77520  0.76786  1.0000
  S   S238      1.0  0.86508  0.91458  0.73600  1.0000
  S   S239      1.0  0.93187  0.89340  0.74909  1.0000
  Fe  Fe119     1.0  0.57598  0.85554  0.73101  1.0000
  S   S240      1.0  0.57034  0.78712  0.72862  1.0000
  S   S241      1.0  0.53634  0.89335  0.71851  1.0000
  Fe  Fe120     1.0  0.64063  0.84495  0.74344  1.0000
  S   S242      1.0  0.63788  0.77673  0.74243  1.0000
  S   S243      1.0  0.68264  0.88032  0.74945  1.0000
  Fe  Fe121     1.0  0.61128  0.78536  0.70524  1.0000
  S   S244      1.0  0.62661  0.75121  0.66779  1.0000
  Fe  Fe122     1.0  0.59729  0.78408  0.76612  1.0000
  S   S245      1.0  0.58123  0.73994  0.79885  1.0000
  S   S246      1.0  0.61570  0.85359  0.70542  1.0000
  S   S247      1.0  0.60120  0.85256  0.76944  1.0000
  Fe  Fe123     1.0  0.89135  0.52160  0.95879  1.0000
  S   S248      1.0  0.88135  0.58576  0.94703  1.0000
  S   S249      1.0  0.80263  0.60833  0.96521  1.0000
  H   H1412     1.0  0.75763  0.77652  0.73492  1.0000
  C   C1768     1.0  0.84626  0.88795  0.95890  1.0000
  H   H1413     1.0  0.70744  0.79954  0.73885  1.0000
  H   H1414     1.0  0.51317  0.67684  0.84145  1.0000
  C   C1769     1.0  0.92205  0.60675  0.88529  1.0000
  Fe  Fe124     1.0  0.60302  0.65056  0.95367  1.0000
  S   S250      1.0  0.60550  0.58212  0.95005  1.0000
  S   S251      1.0  0.61255  0.69798  0.92074  1.0000
  H   H1415     1.0  0.73682  0.92136  0.75336  1.0000
  C   C1770     1.0  0.57301  0.50742  0.72503  1.0000
  C   C1771     1.0  0.94515  0.54714  0.86675  1.0000
  C   C1772     1.0  0.54838  0.49504  0.86249  1.0000
  H   H1416     1.0  0.78710  0.89838  0.74916  1.0000
  C   C1773     1.0  0.75322  0.80827  0.73888  1.0000
  C   C1774     1.0  0.72464  0.82125  0.74114  1.0000
  C   C1775     1.0  0.53089  0.86626  0.95861  1.0000
  C   C1776     1.0  0.51877  0.87851  0.82383  1.0000
  H   H1417     1.0  0.64344  0.84470  0.87767  1.0000
  H   H1418     1.0  0.97409  0.70301  0.78952  1.0000
  C   C1777     1.0  0.51359  0.93420  0.72931  1.0000
  H   H1419     1.0  0.87017  0.52119  0.89046  1.0000
  C   C1778     1.0  0.58033  0.91073  0.96983  1.0000
  H   H1420     1.0  0.55305  0.55931  0.70737  1.0000
  H   H1421     1.0  0.62839  0.94670  0.73996  1.0000
  C   C1779     1.0  0.59134  0.72791  0.83239  1.0000
  C   C1780     1.0  0.57914  0.69354  0.84489  1.0000
  C   C1781     1.0  0.58566  0.68336  0.87163  1.0000
  C   C1782     1.0  0.60448  0.70762  0.88641  1.0000
  C   C1783     1.0  0.61676  0.74190  0.87388  1.0000
  C   C1784     1.0  0.61034  0.75193  0.84710  1.0000
  H   H1422     1.0  0.56468  0.67444  0.83368  1.0000
  H   H1423     1.0  0.57594  0.65700  0.88086  1.0000
  H   H1424     1.0  0.63129  0.76097  0.88504  1.0000
  H   H1425     1.0  0.61993  0.77839  0.83789  1.0000
  C   C1785     1.0  0.51791  0.73761  0.95372  1.0000
  C   C1786     1.0  0.60156  0.85470  0.89391  1.0000
  C   C1787     1.0  0.55434  0.49102  0.91783  1.0000
  C   C1788     1.0  0.70643  0.52631  0.85829  1.0000
  C   C1789     1.0  0.68128  0.54314  0.86836  1.0000
  H   H1426     1.0  0.55990  0.96039  0.94934  1.0000
  H   H1427     1.0  0.80807  0.85241  0.96404  1.0000
  C   C1790     1.0  0.78572  0.47955  0.88747  1.0000
  H   H1428     1.0  0.86009  0.51218  0.84220  1.0000
  H   H1429     1.0  0.84601  0.91910  0.87057  1.0000
  C   C1791     1.0  0.96832  0.59989  0.73811  1.0000
  H   H1430     1.0  0.82780  0.51426  0.79034  1.0000
  H   H1431     1.0  0.60734  0.84439  0.91369  1.0000
  C   C1792     1.0  0.52181  0.82862  0.78817  1.0000
  H   H1432     1.0  0.63061  0.86943  0.83247  1.0000
  C   C1793     1.0  0.77608  0.83579  0.74178  1.0000
  C   C1794     1.0  0.76989  0.87672  0.74692  1.0000
  C   C1795     1.0  0.74129  0.88968  0.74929  1.0000
  C   C1796     1.0  0.71840  0.86213  0.74639  1.0000
  C   C1797     1.0  0.99011  0.74973  0.73110  1.0000
  H   H1433     1.0  0.76841  0.91364  0.80357  1.0000
  C   C1798     1.0  0.98463  0.70897  0.77075  1.0000
  C   C1799     1.0  0.61499  0.96408  0.72651  1.0000
  H   H1434     1.0  0.58183  0.89307  0.82315  1.0000
  C   C1800     1.0  0.53325  0.95271  0.85683  1.0000
  C   C1801     1.0  0.49662  0.89796  0.81011  1.0000
  C   C1802     1.0  0.70056  0.95995  0.91579  1.0000
  C   C1803     1.0  0.77118  0.93412  0.67564  1.0000
  C   C1804     1.0  0.69506  0.52341  0.91298  1.0000
  H   H1435     1.0  0.66617  0.55741  0.85498  1.0000
  H   H1436     1.0  0.51589  0.92111  0.93997  1.0000
  H   H1437     1.0  0.92040  0.54706  0.90291  1.0000
  C   C1805     1.0  0.76738  0.59092  0.97260  1.0000
  C   C1806     1.0  0.71029  0.56558  0.98293  1.0000
  C   C1807     1.0  0.78962  0.50874  0.90762  1.0000
  C   C1808     1.0  0.70145  0.83477  0.67018  1.0000
  H   H1438     1.0  0.89096  0.86894  0.88717  1.0000
  H   H1439     1.0  0.90915  0.62071  0.90065  1.0000
  C   C1809     1.0  0.49859  0.65282  0.83561  1.0000
  C   C1810     1.0  0.54087  0.59269  0.65727  1.0000
  C   C1811     1.0  0.79696  0.94175  0.68896  1.0000
  C   C1812     1.0  0.81809  0.87721  0.95324  1.0000
  C   C1813     1.0  0.53346  0.90663  0.95012  1.0000
  C   C1814     1.0  0.83328  0.89844  0.83188  1.0000
  C   C1815     1.0  0.81012  0.50274  0.92738  1.0000
  C   C1816     1.0  0.58705  0.88207  0.84293  1.0000
  H   H1440     1.0  0.84285  0.84447  0.89971  1.0000
  H   H1441     1.0  0.92469  0.60852  0.74982  1.0000
  C   C1817     1.0  0.92827  0.56519  0.88644  1.0000
  C   C1818     1.0  0.97598  0.74257  0.75526  1.0000
  C   C1819     1.0  0.62201  0.85520  0.87367  1.0000
  H   H1442     1.0  0.61001  0.48770  0.94310  1.0000
  H   H1443     1.0  0.93377  0.92865  0.88879  1.0000
  C   C1820     1.0  0.53828  0.52678  0.87837  1.0000
  C   C1821     1.0  0.54126  0.52471  0.90602  1.0000
  C   C1822     1.0  0.85925  0.91977  0.94495  1.0000
  C   C1823     1.0  0.55322  0.77562  0.92881  1.0000
  C   C1824     1.0  0.75880  0.95906  0.90291  1.0000
  H   H1444     1.0  0.92149  0.91472  0.84134  1.0000
  S   S252      1.0  0.52587  0.54448  0.97605  1.0000
  C   C1825     1.0  0.54552  0.75482  0.90562  1.0000
  C   C1826     1.0  0.91240  0.94069  0.85144  1.0000
  H   H1445     1.0  0.69083  0.82731  0.68878  1.0000
  C   C1827     1.0  0.71581  0.60377  0.97163  1.0000
  C   C1828     1.0  0.98015  0.49605  0.81851  1.0000
  H   H1446     1.0  0.60159  0.76376  0.95638  1.0000
  H   H1447     1.0  0.69828  0.62377  0.96681  1.0000
  H   H1448     1.0  0.79520  0.85021  0.68665  1.0000
  H   H1449     1.0  0.95001  0.51496  0.86820  1.0000
  H   H1450     1.0  0.51832  0.70904  0.88845  1.0000
  C   C1829     1.0  0.63620  0.63880  0.66355  1.0000
  C   C1830     1.0  0.94990  0.58418  0.78200  1.0000
  H   H1451     1.0  0.96950  0.72970  0.94764  1.0000
  C   C1831     1.0  0.81159  0.89702  0.81285  1.0000
  C   C1832     1.0  0.53180  0.95930  0.65910  1.0000
  H   H1452     1.0  0.73335  0.87126  0.68915  1.0000
  H   H1453     1.0  0.56988  0.79825  0.92779  1.0000
  P   P59       1.0  0.54984  0.79501  0.98280  1.0000
  Fe  Fe125     1.0  0.63408  0.58615  0.98626  1.0000
  C   C1833     1.0  0.78022  0.93254  0.84327  1.0000
  C   C1834     1.0  0.71260  0.92529  0.90430  1.0000
  C   C1835     1.0  0.87227  0.48937  0.85269  1.0000
  C   C1836     1.0  0.57766  0.52548  0.67823  1.0000
  C   C1837     1.0  0.91933  0.94872  0.87836  1.0000
  H   H1454     1.0  0.85904  0.97089  0.68613  1.0000
  H   H1455     1.0  0.89723  0.77491  0.82830  1.0000
  C   C1838     1.0  0.80726  0.84630  0.66842  1.0000
  C   C1839     1.0  0.59618  0.49242  0.67467  1.0000
  C   C1840     1.0  0.59098  0.47411  0.72119  1.0000
  P   P60       1.0  0.53055  0.89775  0.85571  1.0000
  H   H1456     1.0  0.74801  0.64575  0.95756  1.0000
  C   C1841     1.0  0.76981  0.56092  0.83622  1.0000
  H   H1457     1.0  0.51807  0.81569  0.87409  1.0000
  S   S253      1.0  0.88560  0.95970  0.80320  1.0000
  P   P61       1.0  0.75880  0.48700  0.86230  1.0000
  H   H1458     1.0  0.60553  0.48648  0.65535  1.0000
  H   H1459     1.0  0.96596  0.48016  0.97370  1.0000
  P   P62       1.0  0.79626  0.95847  0.89437  1.0000
  C   C1842     1.0  0.61099  0.61642  0.66614  1.0000
  H   H1460     1.0  0.54592  0.49652  0.84102  1.0000
  H   H1461     1.0  0.53749  0.80458  0.67298  1.0000
  C   C1843     1.0  0.55820  0.92881  0.95556  1.0000
  C   C1844     1.0  0.60553  0.76597  0.97749  1.0000
  H   H1462     1.0  0.85466  0.96539  0.91483  1.0000
  C   C1845     1.0  0.49489  0.64385  0.80862  1.0000
  H   H1463     1.0  0.98264  0.78276  0.91381  1.0000
  H   H1464     1.0  0.81656  0.92787  0.68228  1.0000
  H   H1465     1.0  0.52815  0.55296  0.86927  1.0000
  C   C1846     1.0  0.83018  0.81925  0.66815  1.0000
  C   C1847     1.0  0.78507  0.91413  0.81853  1.0000
  C   C1848     1.0  0.61948  0.96189  0.69903  1.0000
  H   H1466     1.0  0.64164  0.66176  0.67826  1.0000
  H   H1467     1.0  0.59740  0.62187  0.68322  1.0000
  H   H1468     1.0  0.53155  0.80164  0.77973  1.0000
  C   C1849     1.0  0.50403  0.83625  0.88460  1.0000
  C   C1850     1.0  0.79740  0.50282  0.82159  1.0000
  H   H1469     1.0  0.55816  0.86689  0.90449  1.0000
  H   H1470     1.0  0.53368  0.54936  0.91844  1.0000
  C   C1851     1.0  0.74159  0.92479  0.89788  1.0000
  C   C1852     1.0  0.77613  0.51924  0.83805  1.0000
  H   H1471     1.0  0.92866  0.66293  0.86415  1.0000
  H   H1472     1.0  0.88112  0.92825  0.94931  1.0000
  C   C1853     1.0  0.51019  0.71692  0.93040  1.0000
  H   H1473     1.0  0.64873  0.74545  0.97318  1.0000
  H   H1474     1.0  0.53711  0.95500  0.89981  1.0000
  H   H1475     1.0  0.98809  0.85783  0.91653  1.0000
  C   C1854     1.0  0.95636  0.57099  0.84602  1.0000
  C   C1855     1.0  0.93307  0.63059  0.86468  1.0000
  C   C1856     1.0  0.95046  0.61293  0.84530  1.0000
  H   H1476     1.0  0.65653  0.55580  0.90361  1.0000
  H   H1477     1.0  0.85415  0.88645  0.82718  1.0000
  C   C1857     1.0  0.57780  0.87040  0.97856  1.0000
  C   C1858     1.0  0.80280  0.89857  0.93380  1.0000
  C   C1859     1.0  0.89430  0.96691  0.83749  1.0000
  H   H1478     1.0  0.55631  0.76145  0.88701  1.0000
  C   C1860     1.0  0.61478  0.86903  0.84822  1.0000
  C   C1861     1.0  0.94566  0.59875  0.75611  1.0000
  C   C1862     1.0  0.53069  0.84291  0.81306  1.0000
  H   H1479     1.0  0.49316  0.69474  0.93082  1.0000
  H   H1480     1.0  0.98250  0.95624  0.69269  1.0000
  H   H1481     1.0  0.93183  0.58209  0.79533  1.0000
  Fe  Fe126     1.0  0.56893  0.57900  0.97959  1.0000
  H   H1482     1.0  0.59930  0.92824  0.97443  1.0000
  H   H1483     1.0  0.54696  0.82607  0.82365  1.0000
  H   H1484     1.0  0.91775  0.83422  0.85115  1.0000
  H   H1485     1.0  0.96514  0.61121  0.71804  1.0000
  H   H1486     1.0  0.95981  0.63215  0.83006  1.0000
  H   H1487     1.0  0.63633  0.94276  0.69131  1.0000
  H   H1488     1.0  0.72634  0.94912  0.67392  1.0000
  C   C1863     1.0  0.52417  0.72522  0.90644  1.0000
  C   C1864     1.0  0.97707  0.57142  0.79024  1.0000
  H   H1489     1.0  0.51141  0.84967  0.95449  1.0000
  H   H1490     1.0  0.69073  0.52259  0.93422  1.0000
  Fe  Fe127     1.0  0.91072  0.60603  0.98040  1.0000
  H   H1491     1.0  0.78105  0.88968  0.92986  1.0000
  S   S254      1.0  0.94161  0.65989  0.97086  1.0000
  C   C1865     1.0  0.55306  0.84776  0.97287  1.0000
  C   C1866     1.0  0.78360  0.58530  0.81727  1.0000
  H   H1492     1.0  0.75055  0.89770  0.88892  1.0000
  H   H1493     1.0  0.50672  0.66072  0.79365  1.0000
  H   H1494     1.0  0.85806  0.87170  0.97413  1.0000
  C   C1867     1.0  0.81135  0.52733  0.80289  1.0000
  C   C1868     1.0  0.51523  0.57682  0.66734  1.0000
  C   C1869     1.0  0.82852  0.91683  0.85661  1.0000
  C   C1870     1.0  0.80428  0.56848  0.80054  1.0000
  H   H1495     1.0  0.81555  0.88336  0.79352  1.0000
  H   H1496     1.0  0.75445  0.57476  0.84948  1.0000
  H   H1497     1.0  0.56377  0.51292  0.74448  1.0000
  C   C1871     1.0  0.56615  0.88046  0.86291  1.0000
  S   S255      1.0  0.56469  0.64767  0.98071  1.0000
  H   H1498     1.0  0.53905  0.95349  0.76258  1.0000
  Fe  Fe128     1.0  0.84599  0.58179  0.97738  1.0000
  H   H1499     1.0  0.83567  0.80269  0.68612  1.0000
  C   C1872     1.0  0.67574  0.54205  0.89573  1.0000
  C   C1873     1.0  0.97132  0.69041  0.98197  1.0000
  C   C1874     1.0  0.87811  0.49469  0.88011  1.0000
  H   H1500     1.0  0.77840  0.61732  0.81566  1.0000
  C   C1875     1.0  0.72542  0.86015  0.67023  1.0000
  C   C1876     1.0  0.50537  0.87829  0.87978  1.0000
  C   C1877     1.0  0.56657  0.53329  0.70373  1.0000
  C   C1878     1.0  0.51992  0.95913  0.75120  1.0000
  C   C1879     1.0  0.50975  0.49503  0.97878  1.0000
  C   C1880     1.0  0.80173  0.93310  0.86279  1.0000
  H   H1501     1.0  0.81271  0.52511  0.94308  1.0000
  H   H1502     1.0  0.77683  0.53614  0.90825  1.0000
  C   C1881     1.0  0.53983  0.76687  0.95318  1.0000
  H   H1503     1.0  0.82135  0.78560  0.87653  1.0000
  C   C1882     1.0  0.72014  0.50637  0.90299  1.0000
  C   C1883     1.0  0.57368  0.86731  0.88858  1.0000
  C   C1884     1.0  0.76186  0.55262  0.98381  1.0000
  C   C1885     1.0  0.77260  0.79599  0.80808  1.0000
  C   C1886     1.0  0.75016  0.76847  0.81147  1.0000
  C   C1887     1.0  0.75534  0.73000  0.82236  1.0000
  C   C1888     1.0  0.78303  0.71883  0.82961  1.0000
  C   C1889     1.0  0.80573  0.74630  0.82612  1.0000
  C   C1890     1.0  0.80027  0.78502  0.81537  1.0000
  P   P63       1.0  0.84187  0.73197  0.83415  1.0000
  C   C1891     1.0  0.84160  0.68712  0.85532  1.0000
  C   C1892     1.0  0.86154  0.72076  0.80404  1.0000
  C   C1893     1.0  0.88724  0.69908  0.80564  1.0000
  C   C1894     1.0  0.90324  0.69160  0.78266  1.0000
  C   C1895     1.0  0.89381  0.70585  0.75795  1.0000
  C   C1896     1.0  0.86821  0.72724  0.75616  1.0000
  C   C1897     1.0  0.85207  0.73459  0.77905  1.0000
  C   C1898     1.0  0.84124  0.64809  0.84377  1.0000
  C   C1899     1.0  0.84012  0.61325  0.85985  1.0000
  C   C1900     1.0  0.83888  0.61702  0.88754  1.0000
  C   C1901     1.0  0.83915  0.65561  0.89922  1.0000
  C   C1902     1.0  0.84062  0.69054  0.88325  1.0000
  C   C1903     1.0  0.85794  0.77484  0.85123  1.0000
  C   C1904     1.0  0.84264  0.79542  0.87115  1.0000
  C   C1905     1.0  0.85467  0.82889  0.88426  1.0000
  C   C1906     1.0  0.88181  0.84268  0.87720  1.0000
  C   C1907     1.0  0.89694  0.82301  0.85701  1.0000
  C   C1908     1.0  0.88514  0.78917  0.84409  1.0000
  H   H1504     1.0  0.76861  0.82556  0.79926  1.0000
  H   H1505     1.0  0.72880  0.77691  0.80539  1.0000
  H   H1506     1.0  0.73786  0.70875  0.82498  1.0000
  H   H1507     1.0  0.78657  0.68885  0.83787  1.0000
  H   H1508     1.0  0.81753  0.80638  0.81198  1.0000
  H   H1509     1.0  0.89521  0.68872  0.82471  1.0000
  H   H1510     1.0  0.92343  0.67594  0.78404  1.0000
  H   H1511     1.0  0.90676  0.70132  0.74033  1.0000
  H   H1512     1.0  0.86105  0.73893  0.73709  1.0000
  H   H1513     1.0  0.83254  0.75161  0.77698  1.0000
  H   H1514     1.0  0.84157  0.64447  0.82232  1.0000
  H   H1515     1.0  0.83995  0.58322  0.85087  1.0000
  H   H1516     1.0  0.83754  0.59008  0.90003  1.0000
  H   H1517     1.0  0.83796  0.65832  0.92078  1.0000
  H   H1518     1.0  0.84070  0.71992  0.89289  1.0000
  C   C1909     1.0  0.79756  0.96734  0.71125  1.0000
  C   C1910     1.0  0.72643  0.50875  0.87561  1.0000
  H   H1519     1.0  0.51308  0.54454  0.67131  1.0000
  H   H1520     1.0  0.98508  0.59290  0.90057  1.0000
  C   C1911     1.0  0.74411  0.61617  0.96636  1.0000
  C   C1912     1.0  0.63258  0.75591  0.98700  1.0000
  H   H1521     1.0  0.81504  0.58732  0.78591  1.0000
  H   H1522     1.0  0.71036  0.52729  0.83702  1.0000
  H   H1523     1.0  0.75985  0.94681  0.84691  1.0000
  H   H1524     1.0  0.49448  0.83901  0.75436  1.0000
  H   H1525     1.0  0.73445  0.49153  0.91680  1.0000
  H   H1526     1.0  0.50653  0.73081  0.97191  1.0000
  H   H1527     1.0  0.53333  0.96159  0.81395  1.0000
  C   C1913     1.0  0.74632  0.95374  0.68429  1.0000
  C   C1914     1.0  0.81563  0.93089  0.91983  1.0000
  H   H1528     1.0  0.69941  0.89887  0.90026  1.0000
  H   H1529     1.0  0.93415  0.49416  0.81546  1.0000
  H   H1530     1.0  0.55582  0.48993  0.93929  1.0000
  H   H1531     1.0  0.55064  0.94575  0.66776  1.0000
  C   C1915     1.0  0.84408  0.94099  0.92544  1.0000
  H   H1532     1.0  0.98390  0.77532  0.71886  1.0000
  C   C1916     1.0  0.50073  0.84939  0.77402  1.0000
  P   P64       1.0  0.98210  0.55043  0.82313  1.0000
  H   H1533     1.0  0.97559  0.88242  0.70013  1.0000
  C   C1917     1.0  0.49474  0.64446  0.66763  1.0000
  H   H1534     1.0  0.67808  0.96057  0.92072  1.0000
  H   H1535     1.0  0.81738  0.97273  0.72175  1.0000
  H   H1536     1.0  0.99102  0.53350  0.92987  1.0000
  C   C1918     1.0  0.51980  0.66020  0.65667  1.0000
  C   C1919     1.0  0.53662  0.97239  0.88151  1.0000
  C   C1920     1.0  0.95379  0.47705  0.81402  1.0000
  S   S256      1.0  0.85469  0.51650  0.98795  1.0000
