data_image0
_chemical_formula_structural       H3CFeS2FeS2FeSFeS3CHSC7H4CHCHCHPC7H4CSC6H6C3H3C5H5PH3C2FeC2H2CH2C4H3C6HC2HC9H2CH2CH8CH4C2HC2H2CHC3HCSFeCHSHCHCHCHC3H3C8H2CH2CHC5HC4H2CPC3HCH2C4HC6PH2C3HCH2FeC2HC3H3CHCHC3HCHC2H3CHCHPH2CHC2HCHCHC2HC3FeS2Fe2S2CHCHSC6H4C5HC3HCH2FeH2C6HCHC3SC4SC2HSH4CH3PC2H3C4H5C3HC2H2SCHCH2C2H3C3H2PFeCHC3H2C2HCH7CS2FeS2HCHFeHFeC2SHC8H6C6PC4HSC12H7C2H12CHC2HC2FeHCHSHCHCFeCHC2HC3H2C3FeH2SHC5HC8SC2HCHCSCSH3CHC2H6C2HCHC2HCHC2H3C4HCSC4H2SC2HCHCH2S2HFe2HPHSC3H2CH2C2HCHCH2CH3SFeHC2HCHS2H2SHCH5C2H2C2H4CH3SC6H3C4HCHC3HC3HCHC2HCH2CHCH2C3HCPC2H3PC2FeCHC7FeHC5H2CSH2CHCSFeS2FeS2FeS3HCFeS2C6H4CFeCFeC6H4CPCSCHFeH2C2HCHCH2SC7PC3HPHC12H22CH3C2FeC2H2C2H4CH2C2HFeH2C4HFeHCHCHC2SC2FeCH3CHCSHSHC4SHC2HC3HCH2C4PC3SC5HC7HCH3CHCHCH3CPCHSCH2C5H2C4HCH2CH2CH2CFeS2FeS2FeSFeS3HCH2PC7H2CHC4HCHC6H3C6H4C5HCH2C2H2C2H2CHCH2C2H2CH3CH2CHCHC2H2C2HC3HCHC2H2CHC11HCHSC2HCH2CHCHCH2CHCH4SC3HC2HC3H2PC3HCHC2H4CHCSCHCH2CH2C2H4C2HC3HC5PCHCH2PH4C2PHC2H2CHC2HC2HC5HCH3SFeS2FeHCFeSCS3FeSHFeSFeSFeHFeSHCSC6H4SH2CHC5H3CHC5HC7FeHFeC4H3C2SHC4SCSCH8CSCH3CH3C4SCHCHPHC2H2FeC4HCHC2SH2C2H2C2HCH5CHCHC3HC5H2C3HC3H4C7HCHPC2H4CH2C2HC2HCH3S2H3C3HCHCPC2HCH3SH3C10H4C2HCHCSH10C6H3C2H4C6SCPH2CH2SCHCHCHC2H2CH2SFeSFeH2FeS2H4SC4HSC2HFeSC4HCSH2C2HC3HCHPCHC6H2CHC8H2C4SHC2HCH4CHC3HCH2CHFeC2HC2H3CH3CH2CHC2H3C2HC2SC4FeC3SHCPH2CH2PCH2C2H2CHCHCHCHCH2C2SH2CH2PCSCH2CSC3HCHCFeCH2C7H3C2H2C2HCH2C3HCHCHC2SH2C6H2FeS2FeS2FeSFeS3CHCS2C6H4C3HC2H4C5HC2H2FeC2HC2HC4PC16HCH16FeH2CH2PHC3HCH2C4HC2H2CH2C2H2CH3CHSHC2H2FeC2H2C3HC2H2C2H3C2HSC3HC3H2CH2CH3CH3SCSCSC2HCH2FeCSCHC2H3C3HC2HC3H2C5HPCHC2H
_chemical_formula_sum              "H768 C960 Fe64 S128 P32"
_cell_length_a       30.6632
_cell_length_b       30.7127
_cell_length_c       66.4876
_cell_angle_alpha    92.0518
_cell_angle_beta     88.1837
_cell_angle_gamma    86.2345

_space_group_name_H-M_alt    "P 1"
_space_group_IT_number       1

loop_
  _space_group_symop_operation_xyz
  'x, y, z'

loop_
  _atom_site_type_symbol
  _atom_site_label
  _atom_site_symmetry_multiplicity
  _atom_site_fract_x
  _atom_site_fract_y
  _atom_site_fract_z
  _atom_site_occupancy
  H   H1        1.0  0.44347  0.30061  0.22127  1.0000
  H   H2        1.0  0.47821  0.20894  0.08300  1.0000
  H   H3        1.0  0.48737  0.20291  0.18336  1.0000
  C   C1        1.0  0.09727  0.30445  0.10221  1.0000
  Fe  Fe1       1.0  0.17790  0.15572  0.14075  1.0000
  S   S1        1.0  0.23357  0.19587  0.14884  1.0000
  S   S2        1.0  0.19097  0.09816  0.11887  1.0000
  Fe  Fe2       1.0  0.10798  0.21893  0.16190  1.0000
  S   S3        1.0  0.15923  0.26459  0.17131  1.0000
  S   S4        1.0  0.03735  0.24284  0.17143  1.0000
  Fe  Fe3       1.0  0.19009  0.25335  0.14043  1.0000
  S   S5        1.0  0.21382  0.30304  0.11880  1.0000
  Fe  Fe4       1.0  0.19867  0.20364  0.17905  1.0000
  S   S6        1.0  0.23939  0.20553  0.20668  1.0000
  S   S7        1.0  0.13614  0.21267  0.13015  1.0000
  S   S8        1.0  0.14590  0.15845  0.17187  1.0000
  C   C2        1.0  0.09766  0.04419  0.27000  1.0000
  H   H4        1.0  0.46395  0.41541  0.16071  1.0000
  S   S9        1.0  0.21447  0.06702  0.27361  1.0000
  C   C3        1.0  0.38058  0.08385  0.19856  1.0000
  C   C4        1.0  0.23276  0.16563  0.22462  1.0000
  C   C5        1.0  0.25131  0.17138  0.24337  1.0000
  C   C6        1.0  0.24547  0.14136  0.25841  1.0000
  C   C7        1.0  0.22250  0.10442  0.25462  1.0000
  C   C8        1.0  0.20520  0.09763  0.23557  1.0000
  C   C9        1.0  0.20964  0.12863  0.22068  1.0000
  H   H5        1.0  0.26924  0.19979  0.24643  1.0000
  H   H6        1.0  0.25795  0.14731  0.27308  1.0000
  H   H7        1.0  0.18768  0.06883  0.23245  1.0000
  H   H8        1.0  0.19560  0.12369  0.20616  1.0000
  C   C10       1.0  0.35150  0.05141  0.20241  1.0000
  H   H9        1.0  0.39583  0.27541  0.06735  1.0000
  C   C11       1.0  0.41699  0.45351  0.00366  1.0000
  H   H10       1.0  0.47480  0.07195  0.09511  1.0000
  C   C12       1.0  0.30361  0.26969  0.26828  1.0000
  H   H11       1.0  0.48486  0.30688  0.05467  1.0000
  P   P1        1.0  0.44621  0.15697  0.11541  1.0000
  C   C13       1.0  0.10093  0.36017  0.28987  1.0000
  C   C14       1.0  0.31386  0.40393  0.13302  1.0000
  C   C15       1.0  0.29515  0.38095  0.14867  1.0000
  C   C16       1.0  0.26534  0.34902  0.14454  1.0000
  C   C17       1.0  0.25333  0.34056  0.12473  1.0000
  C   C18       1.0  0.27250  0.36313  0.10907  1.0000
  C   C19       1.0  0.30295  0.39437  0.11316  1.0000
  H   H12       1.0  0.30351  0.38814  0.16407  1.0000
  H   H13       1.0  0.25078  0.33184  0.15670  1.0000
  H   H14       1.0  0.26338  0.35676  0.09371  1.0000
  H   H15       1.0  0.31707  0.41191  0.10100  1.0000
  C   C20       1.0  0.09264  0.32321  0.12166  1.0000
  S   S10       1.0  0.42438  0.42612  0.08890  1.0000
  C   C21       1.0  0.43474  0.38740  0.18701  1.0000
  C   C22       1.0  0.44605  0.16836  0.97042  1.0000
  C   C23       1.0  0.23717  0.04231  0.14309  1.0000
  C   C24       1.0  0.23388  0.05948  0.12397  1.0000
  C   C25       1.0  0.26297  0.04306  0.10835  1.0000
  C   C26       1.0  0.47484  0.39744  0.99531  1.0000
  H   H16       1.0  0.44709  0.15653  0.01886  1.0000
  H   H17       1.0  0.21442  0.05428  0.15510  1.0000
  H   H18       1.0  0.26031  0.05599  0.09349  1.0000
  H   H19       1.0  0.11838  0.34205  0.12760  1.0000
  H   H20       1.0  0.12667  0.30891  0.09321  1.0000
  H   H21       1.0  0.34106  0.28621  0.12714  1.0000
  C   C27       1.0  0.06507  0.27858  0.09473  1.0000
  C   C28       1.0  0.44462  0.42169  0.17455  1.0000
  C   C29       1.0  0.42607  0.15979  0.24737  1.0000
  H   H22       1.0  0.29853  0.23385  0.29549  1.0000
  H   H23       1.0  0.39464  0.21551  0.04183  1.0000
  H   H24       1.0  0.01409  0.15225  0.16433  1.0000
  C   C30       1.0  0.45538  0.14906  0.26256  1.0000
  C   C31       1.0  0.46045  0.24419  0.97672  1.0000
  C   C32       1.0  0.12972  0.24105  0.28429  1.0000
  C   C33       1.0  0.45120  0.31606  0.11078  1.0000
  C   C34       1.0  0.04442  0.12032  0.20987  1.0000
  H   H25       1.0  0.38891  0.47367  0.99925  1.0000
  H   H26       1.0  0.29846  0.25018  0.00805  1.0000
  H   H27       1.0  0.45111  0.31384  0.09450  1.0000
  H   H28       1.0  0.12290  0.14363  0.24281  1.0000
  H   H29       1.0  0.43773  0.16586  0.23229  1.0000
  P   P2        1.0  0.37018  0.00246  0.21484  1.0000
  H   H30       1.0  0.39058  0.01279  0.15863  1.0000
  H   H31       1.0  0.07423  0.12492  0.13532  1.0000
  H   H32       1.0  0.46625  0.99967  0.00500  1.0000
  C   C35       1.0  0.48385  0.09802  0.08564  1.0000
  C   C36       1.0  0.03328  0.01888  0.29744  1.0000
  Fe  Fe5       1.0  0.42562  0.48843  0.07258  1.0000
  C   C37       1.0  0.09082  0.14322  0.23647  1.0000
  C   C38       1.0  0.43551  0.20859  0.98081  1.0000
  H   H33       1.0  0.31026  0.07732  0.27782  1.0000
  H   H34       1.0  0.31338  0.15753  0.00017  1.0000
  C   C39       1.0  0.10057  0.27050  0.21837  1.0000
  H   H35       1.0  0.03957  0.19551  0.02796  1.0000
  H   H36       1.0  0.04052  0.10324  0.19555  1.0000
  C   C40       1.0  0.39388  0.14951  0.28661  1.0000
  C   C41       1.0  0.29370  0.09610  0.18740  1.0000
  C   C42       1.0  0.32280  0.12819  0.18368  1.0000
  C   C43       1.0  0.36622  0.12216  0.18931  1.0000
  H   H37       1.0  0.26008  0.10092  0.18296  1.0000
  H   H38       1.0  0.31143  0.15768  0.17642  1.0000
  H   H39       1.0  0.38877  0.14698  0.18628  1.0000
  C   C44       1.0  0.37019  0.06948  0.14244  1.0000
  C   C45       1.0  0.40119  0.04046  0.15061  1.0000
  C   C46       1.0  0.46141  0.00321  0.21510  1.0000
  C   C47       1.0  0.42828  0.46446  0.17944  1.0000
  C   C48       1.0  0.42811  0.11028  0.12826  1.0000
  C   C49       1.0  0.38343  0.10416  0.13124  1.0000
  H   H40       1.0  0.23608  0.27427  0.98760  1.0000
  C   C50       1.0  0.13058  0.29803  0.24936  1.0000
  C   C51       1.0  0.12881  0.34013  0.24169  1.0000
  H   H41       1.0  0.04296  0.19311  0.06491  1.0000
  C   C52       1.0  0.02134  0.03727  0.27917  1.0000
  C   C53       1.0  0.37238  0.08083  0.02530  1.0000
  C   C54       1.0  0.05567  0.31631  0.13363  1.0000
  C   C55       1.0  0.39960  0.19312  0.10992  1.0000
  C   C56       1.0  0.37334  0.18213  0.09380  1.0000
  C   C57       1.0  0.33587  0.20840  0.08982  1.0000
  C   C58       1.0  0.32437  0.24584  0.10185  1.0000
  C   C59       1.0  0.35043  0.25718  0.11782  1.0000
  C   C60       1.0  0.38809  0.23106  0.12182  1.0000
  H   H42       1.0  0.33570  0.06503  0.14468  1.0000
  H   H43       1.0  0.29791  0.30577  0.24112  1.0000
  C   C61       1.0  0.36498  0.15797  0.27123  1.0000
  H   H44       1.0  0.35849  0.12593  0.12511  1.0000
  H   H45       1.0  0.09011  0.24344  0.20918  1.0000
  C   C62       1.0  0.47421  0.14195  0.09163  1.0000
  H   H46       1.0  0.39057  0.25392  0.23691  1.0000
  H   H47       1.0  0.33180  0.22383  0.21659  1.0000
  H   H48       1.0  0.43925  0.08414  0.03350  1.0000
  H   H49       1.0  0.38122  0.15261  0.08461  1.0000
  H   H50       1.0  0.31515  0.19930  0.07766  1.0000
  H   H51       1.0  0.29493  0.26583  0.09893  1.0000
  H   H52       1.0  0.31772  0.99740  0.09975  1.0000
  H   H53       1.0  0.08589  0.31785  0.19609  1.0000
  C   C63       1.0  0.33772  0.04629  0.25028  1.0000
  H   H54       1.0  0.47403  0.09692  0.22417  1.0000
  H   H55       1.0  0.07013  0.26352  0.07985  1.0000
  H   H56       1.0  0.39002  0.35468  0.11375  1.0000
  H   H57       1.0  0.38688  0.36941  0.02110  1.0000
  C   C64       1.0  0.08552  0.11994  0.21838  1.0000
  C   C65       1.0  0.05508  0.16692  0.24608  1.0000
  H   H58       1.0  0.45256  0.27602  0.98381  1.0000
  C   C66       1.0  0.41790  0.29442  0.19136  1.0000
  C   C67       1.0  0.39228  0.43981  0.20940  1.0000
  H   H59       1.0  0.04419  0.06370  0.25140  1.0000
  H   H60       1.0  0.40793  0.24062  0.13414  1.0000
  C   C68       1.0  0.30769  0.05816  0.19701  1.0000
  H   H61       1.0  0.49639  0.08290  0.18825  1.0000
  C   C69       1.0  0.39404  0.28270  0.05155  1.0000
  C   C70       1.0  0.41185  0.10085  0.02642  1.0000
  C   C71       1.0  0.36868  0.01476  0.24165  1.0000
  H   H62       1.0  0.46991  0.02361  0.15390  1.0000
  C   C72       1.0  0.35422  0.25120  0.18916  1.0000
  S   S11       1.0  0.46481  0.48001  0.12669  1.0000
  Fe  Fe6       1.0  0.49093  0.44166  0.09917  1.0000
  C   C73       1.0  0.05079  0.13017  0.12364  1.0000
  H   H63       1.0  0.38390  0.31015  0.99529  1.0000
  S   S12       1.0  0.35006  0.44478  0.13887  1.0000
  H   H64       1.0  0.39979  0.37160  0.21444  1.0000
  C   C74       1.0  0.43892  0.14567  0.28239  1.0000
  H   H65       1.0  0.41435  0.07949  0.20258  1.0000
  C   C75       1.0  0.38473  0.27683  0.18007  1.0000
  H   H66       1.0  0.32779  0.23906  0.18051  1.0000
  C   C76       1.0  0.46698  0.43014  0.02923  1.0000
  H   H67       1.0  0.42634  0.14079  0.97260  1.0000
  C   C77       1.0  0.10979  0.02572  0.28805  1.0000
  C   C78       1.0  0.48221  0.18118  0.13290  1.0000
  C   C79       1.0  0.39038  0.25806  0.01645  1.0000
  H   H68       1.0  0.38110  0.28394  0.16441  1.0000
  H   H69       1.0  0.36942  0.04890  0.03151  1.0000
  H   H70       1.0  0.39135  0.36242  0.15071  1.0000
  C   C80       1.0  0.38859  0.33569  0.02552  1.0000
  C   C81       1.0  0.12950  0.16234  0.28672  1.0000
  C   C82       1.0  0.41967  0.28583  0.21196  1.0000
  C   C83       1.0  0.02340  0.29049  0.12622  1.0000
  C   C84       1.0  0.03723  0.09466  0.11231  1.0000
  C   C85       1.0  0.43089  0.45654  0.02350  1.0000
  C   C86       1.0  0.44572  0.04662  0.14795  1.0000
  C   C87       1.0  0.28053  0.29210  0.25359  1.0000
  H   H71       1.0  0.31482  0.06427  0.24106  1.0000
  H   H72       1.0  0.05991  0.18607  0.25972  1.0000
  C   C88       1.0  0.35645  0.24269  0.20958  1.0000
  H   H73       1.0  0.46077  0.13985  0.29468  1.0000
  H   H74       1.0  0.43533  0.18143  0.15794  1.0000
  C   C89       1.0  0.41805  0.34405  0.14256  1.0000
  H   H75       1.0  0.11343  0.10228  0.21075  1.0000
  C   C90       1.0  0.39342  0.24875  0.03695  1.0000
  C   C91       1.0  0.00553  0.17989  0.10419  1.0000
  C   C92       1.0  0.38933  0.25979  0.22096  1.0000
  C   C93       1.0  0.05347  0.04981  0.26552  1.0000
  C   C94       1.0  0.45354  0.32568  0.15288  1.0000
  H   H76       1.0  0.11993  0.23024  0.24247  1.0000
  C   C95       1.0  0.41608  0.14168  0.01812  1.0000
  C   C96       1.0  0.33701  0.10162  0.01592  1.0000
  C   C97       1.0  0.34102  0.14249  0.00763  1.0000
  C   C98       1.0  0.38065  0.16285  0.00866  1.0000
  H   H77       1.0  0.30663  0.08564  0.01485  1.0000
  H   H78       1.0  0.12270  0.05383  0.25948  1.0000
  C   C99       1.0  0.26831  0.00790  0.14636  1.0000
  P   P3        1.0  0.38734  0.21486  0.99736  1.0000
  C   C100      1.0  0.11702  0.26320  0.23739  1.0000
  C   C101      1.0  0.38096  0.16300  0.25162  1.0000
  C   C102      1.0  0.43888  0.42398  0.98957  1.0000
  H   H79       1.0  0.28412  0.03439  0.20024  1.0000
  C   C103      1.0  0.07787  0.01295  0.30166  1.0000
  H   H80       1.0  0.35819  0.16935  0.23977  1.0000
  H   H81       1.0  0.14065  0.36723  0.25033  1.0000
  C   C104      1.0  0.09833  0.31252  0.21096  1.0000
  C   C105      1.0  0.36300  0.03035  0.28354  1.0000
  C   C106      1.0  0.48628  0.29700  0.12095  1.0000
  C   C107      1.0  0.40851  0.39695  0.20456  1.0000
  H   H82       1.0  0.39256  0.35256  0.05707  1.0000
  C   C108      1.0  0.48566  0.17484  0.07867  1.0000
  C   C109      1.0  0.41705  0.33947  0.12161  1.0000
  C   C110      1.0  0.33492  0.05386  0.27115  1.0000
  C   C111      1.0  0.01676  0.21276  0.05837  1.0000
  C   C112      1.0  0.38728  0.30191  0.01092  1.0000
  C   C113      1.0  0.46844  0.18750  0.15321  1.0000
  P   P4        1.0  0.45427  0.33175  0.18003  1.0000
  H   H83       1.0  0.21771  0.31456  0.24343  1.0000
  H   H84       1.0  0.48195  0.06575  0.27669  1.0000
  C   C114      1.0  0.11262  0.34731  0.22256  1.0000
  C   C115      1.0  0.21176  0.27926  0.27097  1.0000
  C   C116      1.0  0.34114  0.23031  0.98232  1.0000
  H   H85       1.0  0.14353  0.12995  0.28244  1.0000
  C   C117      1.0  0.26631  0.26095  0.98024  1.0000
  H   H86       1.0  0.33020  0.16075  0.27457  1.0000
  H   H87       1.0  0.47769  0.28470  0.01869  1.0000
  Fe  Fe7       1.0  0.39819  0.46765  0.11543  1.0000
  C   C118      1.0  0.45916  0.08143  0.13684  1.0000
  C   C119      1.0  0.29532  0.00974  0.11184  1.0000
  H   H88       1.0  0.11164  0.37972  0.21660  1.0000
  C   C120      1.0  0.39190  0.32615  0.04582  1.0000
  C   C121      1.0  0.48769  0.30204  0.14190  1.0000
  C   C122      1.0  0.03449  0.17255  0.11980  1.0000
  H   H89       1.0  0.04465  0.19947  0.12904  1.0000
  H   H90       1.0  0.07924  0.35468  0.27765  1.0000
  H   H91       1.0  0.05017  0.06190  0.11526  1.0000
  C   C123      1.0  0.14686  0.19892  0.27843  1.0000
  H   H92       1.0  0.00592  0.13554  0.27713  1.0000
  C   C124      1.0  0.02780  0.27136  0.10670  1.0000
  H   H93       1.0  0.47793  0.43234  0.04452  1.0000
  C   C125      1.0  0.40202  0.47351  0.19680  1.0000
  C   C126      1.0  0.01355  0.16679  0.23785  1.0000
  C   C127      1.0  0.39370  0.99875  0.27512  1.0000
  H   H94       1.0  0.42775  0.42157  0.97432  1.0000
  C   C128      1.0  0.13984  0.33379  0.29142  1.0000
  H   H95       1.0  0.45664  0.02460  0.22836  1.0000
  C   C129      1.0  0.09483  0.16753  0.30090  1.0000
  C   C130      1.0  0.48906  0.40081  0.01510  1.0000
  H   H96       1.0  0.26936  0.99393  0.16100  1.0000
  H   H97       1.0  0.33898  0.26631  0.26744  1.0000
  H   H98       1.0  0.21828  0.24112  0.29751  1.0000
  C   C131      1.0  0.23480  0.29698  0.25494  1.0000
  H   H99       1.0  0.05269  0.32964  0.14896  1.0000
  C   C132      1.0  0.28091  0.25132  0.28405  1.0000
  H   H100      1.0  0.38131  0.14565  0.30184  1.0000
  P   P5        1.0  0.15286  0.28822  0.27375  1.0000
  H   H101      1.0  0.49381  0.08568  0.13483  1.0000
  H   H102      1.0  0.14410  0.02115  0.29152  1.0000
  C   C133      1.0  0.29761  0.99154  0.13080  1.0000
  H   H103      1.0  0.17378  0.19450  0.26753  1.0000
  C   C134      1.0  0.00853  0.14373  0.21950  1.0000
  C   C135      1.0  0.23524  0.25568  0.28525  1.0000
  H   H104      1.0  0.36022  0.03596  0.29972  1.0000
  C   C136      1.0  0.30170  0.24725  0.99177  1.0000
  H   H105      1.0  0.37153  0.44686  0.22276  1.0000
  C   C137      1.0  0.09383  0.24595  0.29805  1.0000
  H   H106      1.0  0.00210  0.35446  0.26389  1.0000
  C   C138      1.0  0.01502  0.21410  0.03741  1.0000
  C   C139      1.0  0.39622  0.99054  0.25427  1.0000
  H   H107      1.0  0.00465  0.37279  0.22784  1.0000
  C   C140      1.0  0.99659  0.32972  0.25240  1.0000
  C   C141      1.0  0.99798  0.34010  0.23211  1.0000
  C   C142      1.0  0.00713  0.10150  0.09720  1.0000
  Fe  Fe8       1.0  0.22014  0.16393  0.33678  1.0000
  S   S13       1.0  0.25119  0.12376  0.36089  1.0000
  S   S14       1.0  0.19076  0.23391  0.33656  1.0000
  Fe  Fe9       1.0  0.20882  0.07103  0.34974  1.0000
  Fe  Fe10      1.0  0.30020  0.09771  0.33648  1.0000
  S   S15       1.0  0.37259  0.07481  0.33785  1.0000
  S   S16       1.0  0.17523  0.11280  0.32721  1.0000
  C   C143      1.0  0.03787  0.04341  0.37891  1.0000
  H   H108      1.0  0.10377  0.35157  0.53292  1.0000
  C   C144      1.0  0.16571  0.44965  0.63003  1.0000
  H   H109      1.0  0.02817  0.24484  0.41449  1.0000
  S   S17       1.0  0.07406  0.33688  0.40580  1.0000
  C   C145      1.0  0.10473  0.30649  0.38650  1.0000
  C   C146      1.0  0.09496  0.31074  0.36624  1.0000
  C   C147      1.0  0.12139  0.28795  0.35114  1.0000
  C   C148      1.0  0.15721  0.26003  0.35614  1.0000
  C   C149      1.0  0.16658  0.25519  0.37642  1.0000
  C   C150      1.0  0.14049  0.27849  0.39154  1.0000
  H   H110      1.0  0.06768  0.33237  0.36218  1.0000
  H   H111      1.0  0.11403  0.29205  0.33554  1.0000
  H   H112      1.0  0.19433  0.23409  0.38045  1.0000
  H   H113      1.0  0.14828  0.27508  0.40718  1.0000
  C   C151      1.0  0.42089  0.10356  0.33855  1.0000
  C   C152      1.0  0.05275  0.27584  0.61404  1.0000
  C   C153      1.0  0.08529  0.13848  0.40183  1.0000
  C   C154      1.0  0.41999  0.14913  0.34023  1.0000
  C   C155      1.0  0.24317  0.26385  0.62130  1.0000
  H   H114      1.0  0.38894  0.16810  0.34119  1.0000
  C   C156      1.0  0.01471  0.02465  0.44794  1.0000
  C   C157      1.0  0.18977  0.21549  0.63341  1.0000
  C   C158      1.0  0.11575  0.16764  0.37156  1.0000
  H   H115      1.0  0.01937  0.99371  0.45524  1.0000
  C   C159      1.0  0.04766  0.48212  0.53755  1.0000
  H   H116      1.0  0.15246  0.12654  0.39137  1.0000
  H   H117      1.0  0.01756  0.37600  0.48676  1.0000
  Fe  Fe11      1.0  0.00874  0.37109  0.39895  1.0000
  H   H118      1.0  0.21771  0.32616  0.61156  1.0000
  H   H119      1.0  0.02957  0.46684  0.54933  1.0000
  C   C160      1.0  0.08343  0.37360  0.56302  1.0000
  C   C161      1.0  0.10890  0.34774  0.54884  1.0000
  C   C162      1.0  0.14005  0.31640  0.55525  1.0000
  C   C163      1.0  0.14544  0.31067  0.57585  1.0000
  C   C164      1.0  0.11995  0.33681  0.59015  1.0000
  C   C165      1.0  0.08892  0.36824  0.58357  1.0000
  H   H120      1.0  0.02681  0.30436  0.44020  1.0000
  C   C166      1.0  0.00842  0.01093  0.37672  1.0000
  H   H121      1.0  0.12275  0.23972  0.63343  1.0000
  C   C167      1.0  0.03937  0.05954  0.45338  1.0000
  C   C168      1.0  0.12087  0.14284  0.38859  1.0000
  C   C169      1.0  0.23327  0.22393  0.62916  1.0000
  S   S18       1.0  0.16824  0.03740  0.37303  1.0000
  C   C170      1.0  0.05244  0.48471  0.60087  1.0000
  C   C171      1.0  0.01394  0.27349  0.44396  1.0000
  C   C172      1.0  0.04201  0.47403  0.62065  1.0000
  C   C173      1.0  0.01073  0.26350  0.61898  1.0000
  S   S19       1.0  0.27286  0.14252  0.31334  1.0000
  C   C174      1.0  0.15377  0.37295  0.32277  1.0000
  C   C175      1.0  0.11523  0.39920  0.32103  1.0000
  H   H122      1.0  0.19498  0.31923  0.31033  1.0000
  S   S20       1.0  0.00533  0.43352  0.62604  1.0000
  H   H123      1.0  0.06332  0.05570  0.46494  1.0000
  H   H124      1.0  0.45847  0.20544  0.34250  1.0000
  H   H125      1.0  0.08810  0.99882  0.31561  1.0000
  H   H126      1.0  0.27693  0.27056  0.61815  1.0000
  C   C176      1.0  0.06996  0.31121  0.62440  1.0000
  H   H127      1.0  0.15946  0.29601  0.54423  1.0000
  H   H128      1.0  0.16883  0.28538  0.58044  1.0000
  H   H129      1.0  0.06816  0.38784  0.59441  1.0000
  P   P6        1.0  0.99819  0.15518  0.41551  1.0000
  C   C177      1.0  0.08412  0.45224  0.42958  1.0000
  C   C178      1.0  0.99784  0.19946  0.43412  1.0000
  H   H130      1.0  0.04765  0.44369  0.47794  1.0000
  H   H131      1.0  0.10536  0.42387  0.33267  1.0000
  H   H132      1.0  0.07568  0.08947  0.36368  1.0000
  C   C179      1.0  0.03376  0.09904  0.44366  1.0000
  C   C180      1.0  0.07535  0.18912  0.36798  1.0000
  C   C181      1.0  0.00347  0.10400  0.42831  1.0000
  C   C182      1.0  0.45945  0.17019  0.34102  1.0000
  H   H133      1.0  0.08251  0.13911  0.30774  1.0000
  H   H134      1.0  0.09040  0.11872  0.41474  1.0000
  H   H135      1.0  0.05037  0.21365  0.31769  1.0000
  H   H136      1.0  0.04733  0.07316  0.33054  1.0000
  H   H137      1.0  0.15022  0.41391  0.60336  1.0000
  C   C183      1.0  0.07435  0.43326  0.44781  1.0000
  C   C184      1.0  0.20957  0.29525  0.61758  1.0000
  C   C185      1.0  0.13835  0.37706  0.63008  1.0000
  H   H138      1.0  0.10962  0.47343  0.55178  1.0000
  C   C186      1.0  0.05140  0.06574  0.36217  1.0000
  C   C187      1.0  0.05530  0.45897  0.46396  1.0000
  H   H139      1.0  0.07215  0.20980  0.35519  1.0000
  H   H140      1.0  0.05838  0.39685  0.55808  1.0000
  S   S21       1.0  0.25952  0.04212  0.32716  1.0000
  C   C188      1.0  0.99689  0.26777  0.46333  1.0000
  H   H141      1.0  0.14346  0.17086  0.36137  1.0000
  C   C189      1.0  0.03582  0.05556  0.34322  1.0000
  H   H142      1.0  0.05156  0.05012  0.39343  1.0000
  H   H143      1.0  0.05358  0.12560  0.44794  1.0000
  C   C190      1.0  0.16601  0.34032  0.30809  1.0000
  C   C191      1.0  0.09267  0.48564  0.53884  1.0000
  H   H144      1.0  0.07151  0.25827  0.60189  1.0000
  H   H145      1.0  0.46249  0.04428  0.33592  1.0000
  H   H146      1.0  0.09797  0.43198  0.41694  1.0000
  C   C192      1.0  0.04417  0.15906  0.39813  1.0000
  C   C193      1.0  0.16572  0.28683  0.62157  1.0000
  C   C194      1.0  0.46158  0.07946  0.33739  1.0000
  H   H147      1.0  0.99929  0.12967  0.31388  1.0000
  H   H148      1.0  0.08080  0.39836  0.44920  1.0000
  P   P7        1.0  0.12315  0.32822  0.61677  1.0000
  Fe  Fe12      1.0  0.22960  0.08880  0.30547  1.0000
  C   C195      1.0  0.07687  0.20935  0.30650  1.0000
  H   H149      1.0  0.17350  0.37685  0.33589  1.0000
  C   C196      1.0  0.00792  0.02143  0.34068  1.0000
  C   C197      1.0  0.15111  0.41335  0.61958  1.0000
  C   C198      1.0  0.03971  0.18514  0.38126  1.0000
  H   H150      1.0  0.17518  0.47772  0.62187  1.0000
  H   H151      1.0  0.03807  0.46782  0.58844  1.0000
  C   C199      1.0  0.15606  0.24685  0.62973  1.0000
  C   C200      1.0  0.01460  0.23947  0.42938  1.0000
  H   H152      1.0  0.99895  0.99290  0.38967  1.0000
  C   C201      1.0  0.08886  0.39288  0.30456  1.0000
  H   H153      1.0  0.99720  0.23669  0.61075  1.0000
  H   H154      1.0  0.25934  0.19961  0.63206  1.0000
  H   H155      1.0  0.07951  0.27794  0.30275  1.0000
  H   H156      1.0  0.00902  0.20312  0.37853  1.0000
  H   H157      1.0  0.05860  0.41285  0.30347  1.0000
  H   H158      1.0  0.99690  0.29412  0.47458  1.0000
  H   H159      1.0  0.18210  0.18464  0.63964  1.0000
  C   C202      1.0  0.16732  0.45030  0.65100  1.0000
  S   S22       1.0  0.34460  0.45136  0.92191  1.0000
  S   S23       1.0  0.42799  0.35989  0.89384  1.0000
  Fe  Fe13      1.0  0.43608  0.30409  0.91516  1.0000
  S   S24       1.0  0.40482  0.23812  0.91349  1.0000
  S   S25       1.0  0.40612  0.34540  0.94134  1.0000
  H   H160      1.0  0.36837  0.43986  0.87895  1.0000
  C   C203      1.0  0.34132  0.46426  0.88082  1.0000
  H   H161      1.0  0.24290  0.26908  0.95026  1.0000
  Fe  Fe14      1.0  0.40328  0.40173  0.92060  1.0000
  H   H162      1.0  0.41110  0.25889  0.81261  1.0000
  Fe  Fe15      1.0  0.47445  0.36238  0.94703  1.0000
  C   C204      1.0  0.48106  0.16383  0.95636  1.0000
  C   C205      1.0  0.27010  0.25800  0.95921  1.0000
  S   S26       1.0  0.47000  0.03625  0.90134  1.0000
  H   H163      1.0  0.17797  0.47888  0.65904  1.0000
  C   C206      1.0  0.42542  0.18243  0.91169  1.0000
  C   C207      1.0  0.46749  0.16960  0.90400  1.0000
  C   C208      1.0  0.15516  0.41422  0.66155  1.0000
  C   C209      1.0  0.45242  0.09225  0.90623  1.0000
  C   C210      1.0  0.41089  0.10513  0.91454  1.0000
  C   C211      1.0  0.39747  0.14989  0.91712  1.0000
  C   C212      1.0  0.04418  0.33433  0.63956  1.0000
  C   C213      1.0  0.30919  0.24112  0.94971  1.0000
  H   H164      1.0  0.38874  0.08059  0.91855  1.0000
  H   H165      1.0  0.36480  0.15932  0.92301  1.0000
  H   H166      1.0  0.33638  0.47402  0.84897  1.0000
  H   H167      1.0  0.37448  0.21476  0.95339  1.0000
  H   H168      1.0  0.48149  0.36204  0.83709  1.0000
  H   H169      1.0  0.15674  0.41468  0.67781  1.0000
  C   C214      1.0  0.37437  0.13799  0.86472  1.0000
  C   C215      1.0  0.33860  0.13313  0.87778  1.0000
  C   C216      1.0  0.30964  0.16905  0.88305  1.0000
  C   C217      1.0  0.31655  0.20996  0.87537  1.0000
  C   C218      1.0  0.35300  0.21536  0.86257  1.0000
  C   C219      1.0  0.38114  0.17874  0.85687  1.0000
  P   P8        1.0  0.36105  0.26724  0.85145  1.0000
  C   C220      1.0  0.32813  0.31165  0.86412  1.0000
  C   C221      1.0  0.41685  0.28251  0.85276  1.0000
  C   C222      1.0  0.42931  0.31985  0.84303  1.0000
  C   C223      1.0  0.48074  0.12480  0.90118  1.0000
  H   H170      1.0  0.31261  0.23925  0.93341  1.0000
  S   S27       1.0  0.46942  0.42263  0.92899  1.0000
  C   C224      1.0  0.44758  0.25901  0.86411  1.0000
  C   C225      1.0  0.30496  0.34330  0.85311  1.0000
  C   C226      1.0  0.28057  0.37810  0.86314  1.0000
  C   C227      1.0  0.27970  0.38196  0.88415  1.0000
  C   C228      1.0  0.30377  0.35148  0.89516  1.0000
  C   C229      1.0  0.32790  0.31651  0.88519  1.0000
  C   C230      1.0  0.34528  0.26031  0.82569  1.0000
  C   C231      1.0  0.30116  0.25584  0.82154  1.0000
  C   C232      1.0  0.28842  0.24975  0.80167  1.0000
  C   C233      1.0  0.31973  0.24750  0.78586  1.0000
  C   C234      1.0  0.36384  0.25101  0.78992  1.0000
  C   C235      1.0  0.37669  0.25712  0.80977  1.0000
  H   H171      1.0  0.39718  0.11021  0.86094  1.0000
  H   H172      1.0  0.33380  0.10163  0.88406  1.0000
  H   H173      1.0  0.28206  0.16522  0.89326  1.0000
  H   H174      1.0  0.29338  0.23711  0.87947  1.0000
  H   H175      1.0  0.40872  0.18178  0.84655  1.0000
  H   H176      1.0  0.40571  0.33941  0.83484  1.0000
  H   H177      1.0  0.14417  0.48829  0.77205  1.0000
  C   C236      1.0  0.47214  0.33270  0.84420  1.0000
  C   C237      1.0  0.34452  0.22722  0.96119  1.0000
  H   H178      1.0  0.43857  0.23144  0.87257  1.0000
  H   H179      1.0  0.30619  0.34176  0.83683  1.0000
  H   H180      1.0  0.26317  0.40286  0.85467  1.0000
  H   H181      1.0  0.26163  0.40950  0.89189  1.0000
  H   H182      1.0  0.30465  0.35565  0.91140  1.0000
  H   H183      1.0  0.34694  0.29364  0.89391  1.0000
  H   H184      1.0  0.27664  0.25712  0.83369  1.0000
  H   H185      1.0  0.25427  0.24659  0.79857  1.0000
  H   H186      1.0  0.30984  0.24270  0.77048  1.0000
  H   H187      1.0  0.38818  0.24876  0.77768  1.0000
  H   H188      1.0  0.05546  0.36299  0.64714  1.0000
  H   H189      1.0  0.48945  0.19413  0.89980  1.0000
  C   C238      1.0  0.00210  0.32201  0.64439  1.0000
  H   H190      1.0  0.13269  0.34946  0.65946  1.0000
  C   C239      1.0  0.32390  0.47587  0.90012  1.0000
  C   C240      1.0  0.14123  0.37752  0.65113  1.0000
  H   H191      1.0  0.49233  0.48315  0.89978  1.0000
  C   C241      1.0  0.49036  0.27188  0.86521  1.0000
  C   C242      1.0  0.32320  0.48377  0.86384  1.0000
  Fe  Fe16      1.0  0.49501  0.37803  0.90325  1.0000
  H   H192      1.0  0.48810  0.13310  0.94796  1.0000
  C   C243      1.0  0.49555  0.23945  0.96270  1.0000
  H   H193      1.0  0.05284  0.48838  0.65201  1.0000
  S   S28       1.0  0.39655  0.90196  0.08319  1.0000
  H   H194      1.0  0.33303  0.96940  0.17788  1.0000
  C   C244      1.0  0.43900  0.97934  0.00680  1.0000
  H   H195      1.0  0.37704  0.82103  0.05978  1.0000
  C   C245      1.0  0.34187  0.65364  0.11521  1.0000
  Fe  Fe17      1.0  0.46188  0.53895  0.10722  1.0000
  C   C246      1.0  0.42543  0.98628  0.20567  1.0000
  H   H196      1.0  0.45562  0.62896  0.08026  1.0000
  C   C247      1.0  0.29299  0.61585  0.03725  1.0000
  C   C248      1.0  0.36414  0.60345  0.05153  1.0000
  H   H197      1.0  0.32724  0.94024  0.24089  1.0000
  C   C249      1.0  0.15994  0.68402  0.11446  1.0000
  C   C250      1.0  0.26713  0.81378  0.05747  1.0000
  C   C251      1.0  0.28196  0.64874  0.05200  1.0000
  H   H198      1.0  0.28518  0.91004  0.17053  1.0000
  H   H199      1.0  0.16957  0.61660  0.10421  1.0000
  C   C252      1.0  0.45542  0.69960  0.08031  1.0000
  C   C253      1.0  0.48101  0.83766  0.01183  1.0000
  C   C254      1.0  0.47674  0.73506  0.11116  1.0000
  Fe  Fe18      1.0  0.39499  0.93362  0.11420  1.0000
  H   H200      1.0  0.46846  0.74492  0.99237  1.0000
  H   H201      1.0  0.48110  0.92796  0.16714  1.0000
  S   S29       1.0  0.48174  0.60415  0.12041  1.0000
  H   H202      1.0  0.37856  0.61703  0.13683  1.0000
  C   C255      1.0  0.39010  0.94156  0.02831  1.0000
  C   C256      1.0  0.46126  0.65839  0.08893  1.0000
  C   C257      1.0  0.48117  0.67869  0.98088  1.0000
  C   C258      1.0  0.26354  0.77380  0.06668  1.0000
  C   C259      1.0  0.38560  0.68607  0.14068  1.0000
  H   H203      1.0  0.39590  0.58566  0.05146  1.0000
  C   C260      1.0  0.37280  0.66720  0.00423  1.0000
  C   C261      1.0  0.35925  0.69838  0.01933  1.0000
  C   C262      1.0  0.33086  0.73387  0.01489  1.0000
  C   C263      1.0  0.31624  0.73850  0.99533  1.0000
  C   C264      1.0  0.33033  0.70764  0.97997  1.0000
  C   C265      1.0  0.35908  0.67220  0.98456  1.0000
  C   C266      1.0  0.42571  0.96736  0.02609  1.0000
  C   C267      1.0  0.48701  0.62340  0.00591  1.0000
  S   S30       1.0  0.44807  0.88709  0.12514  1.0000
  C   C268      1.0  0.38108  0.93984  0.99202  1.0000
  C   C269      1.0  0.37457  0.72748  0.13355  1.0000
  H   H204      1.0  0.38788  0.75599  0.14045  1.0000
  C   C270      1.0  0.21953  0.72945  0.10682  1.0000
  H   H205      1.0  0.23376  0.76075  0.10830  1.0000
  C   C271      1.0  0.47555  0.94867  0.18068  1.0000
  S   S31       1.0  0.44020  0.98493  0.10574  1.0000
  C   C272      1.0  0.42700  0.83513  0.97878  1.0000
  S   S32       1.0  0.45284  0.98690  0.04720  1.0000
  H   H206      1.0  0.29338  0.62873  0.97082  1.0000
  H   H207      1.0  0.48008  0.64706  0.03688  1.0000
  H   H208      1.0  0.16049  0.75204  0.12353  1.0000
  C   C273      1.0  0.35320  0.63622  0.06627  1.0000
  H   H209      1.0  0.37591  0.82132  0.00008  1.0000
  C   C274      1.0  0.18326  0.64827  0.10470  1.0000
  C   C275      1.0  0.41705  0.96522  0.98977  1.0000
  H   H210      1.0  0.39412  0.63920  0.00775  1.0000
  H   H211      1.0  0.37069  0.69502  0.03449  1.0000
  H   H212      1.0  0.32015  0.75788  0.02659  1.0000
  H   H213      1.0  0.29436  0.76644  0.99233  1.0000
  H   H214      1.0  0.37118  0.75046  0.07573  1.0000
  H   H215      1.0  0.42433  0.82240  0.02942  1.0000
  C   C276      1.0  0.33391  0.59287  0.03716  1.0000
  C   C277      1.0  0.34531  0.80784  0.06160  1.0000
  H   H216      1.0  0.12802  0.68015  0.12139  1.0000
  C   C278      1.0  0.31853  0.93413  0.22546  1.0000
  H   H217      1.0  0.44493  0.70162  0.06500  1.0000
  C   C279      1.0  0.34754  0.73203  0.11710  1.0000
  C   C280      1.0  0.47478  0.65527  0.10875  1.0000
  H   H218      1.0  0.41472  0.97997  0.28487  1.0000
  C   C281      1.0  0.48297  0.69379  0.11971  1.0000
  H   H219      1.0  0.24269  0.62470  0.08892  1.0000
  C   C282      1.0  0.47411  0.71105  0.99618  1.0000
  C   C283      1.0  0.24247  0.69408  0.09637  1.0000
  H   H220      1.0  0.37715  0.64388  0.07719  1.0000
  H   H221      1.0  0.26972  0.60782  0.02600  1.0000
  H   H222      1.0  0.25752  0.86598  0.19826  1.0000
  C   C284      1.0  0.36915  0.64921  0.13155  1.0000
  C   C285      1.0  0.48880  0.63472  0.98561  1.0000
  C   C286      1.0  0.46295  0.73817  0.09138  1.0000
  C   C287      1.0  0.36753  0.92828  0.01134  1.0000
  H   H223      1.0  0.33938  0.76447  0.11193  1.0000
  C   C288      1.0  0.22459  0.65312  0.09587  1.0000
  S   S33       1.0  0.45548  0.78905  0.07956  1.0000
  C   C289      1.0  0.41018  0.82714  0.99797  1.0000
  C   C290      1.0  0.33409  0.95932  0.20985  1.0000
  C   C291      1.0  0.43301  0.95863  0.18842  1.0000
  C   C292      1.0  0.32159  0.95034  0.19011  1.0000
  H   H224      1.0  0.31082  0.86231  0.04827  1.0000
  H   H225      1.0  0.32940  0.62464  0.10837  1.0000
  S   S34       1.0  0.40246  0.49331  0.04089  1.0000
  C   C293      1.0  0.27882  0.89194  0.20152  1.0000
  C   C294      1.0  0.33184  0.69498  0.10749  1.0000
  H   H226      1.0  0.33952  0.90898  0.01315  1.0000
  C   C295      1.0  0.47446  0.69979  0.01637  1.0000
  H   H227      1.0  0.40781  0.68235  0.15295  1.0000
  C   C296      1.0  0.29425  0.91674  0.18594  1.0000
  H   H228      1.0  0.25013  0.66625  0.05193  1.0000
  H   H229      1.0  0.23169  0.76080  0.06815  1.0000
  S   S35       1.0  0.35184  0.92279  0.97109  1.0000
  S   S36       1.0  0.39300  0.52960  0.09822  1.0000
  H   H230      1.0  0.40649  0.94499  0.18056  1.0000
  Fe  Fe19      1.0  0.45355  0.85881  0.09334  1.0000
  Fe  Fe20      1.0  0.44684  0.94919  0.07564  1.0000
  H   H231      1.0  0.34229  0.56669  0.02604  1.0000
  P   P9        1.0  0.29689  0.70003  0.08622  1.0000
  H   H232      1.0  0.27876  0.88159  0.23339  1.0000
  S   S37       1.0  0.33655  0.94857  0.13564  1.0000
  C   C297      1.0  0.30798  0.83103  0.05512  1.0000
  C   C298      1.0  0.34185  0.76792  0.07079  1.0000
  C   C299      1.0  0.31166  0.65839  0.06692  1.0000
  H   H233      1.0  0.48299  0.76437  0.11980  1.0000
  H   H234      1.0  0.49022  0.58951  0.00999  1.0000
  C   C300      1.0  0.29089  0.90069  0.22128  1.0000
  H   H235      1.0  0.38876  0.50659  0.20029  1.0000
  H   H236      1.0  0.23822  0.83161  0.05226  1.0000
  C   C301      1.0  0.43727  0.82816  0.01448  1.0000
  C   C302      1.0  0.17818  0.72453  0.11561  1.0000
  H   H237      1.0  0.37916  0.93282  0.04313  1.0000
  C   C303      1.0  0.30082  0.75122  0.07394  1.0000
  H   H238      1.0  0.41898  0.96470  0.24806  1.0000
  C   C304      1.0  0.48063  0.65592  0.02122  1.0000
  H   H239      1.0  0.46936  0.72496  0.02827  1.0000
  H   H240      1.0  0.43669  0.52919  0.97852  1.0000
  C   C305      1.0  0.47069  0.84469  0.97607  1.0000
  H   H241      1.0  0.37065  0.64828  0.97295  1.0000
  H   H242      1.0  0.42727  0.97489  0.97499  1.0000
  H   H243      1.0  0.43502  0.49053  0.16948  1.0000
  S   S38       1.0  0.49436  0.50126  0.08043  1.0000
  Fe  Fe21      1.0  0.49370  0.93741  0.11492  1.0000
  H   H244      1.0  0.49381  0.69170  0.13499  1.0000
  C   C306      1.0  0.12583  0.76757  0.56913  1.0000
  C   C307      1.0  0.02455  0.84234  0.62333  1.0000
  H   H245      1.0  0.14030  0.79817  0.61394  1.0000
  C   C308      1.0  0.04602  0.50400  0.46204  1.0000
  H   H246      1.0  0.07174  0.60376  0.50364  1.0000
  S   S39       1.0  0.13901  0.57844  0.60787  1.0000
  S   S40       1.0  0.18694  0.68630  0.62717  1.0000
  H   H247      1.0  0.09812  0.86576  0.54386  1.0000
  H   H248      1.0  0.05714  0.93017  0.30795  1.0000
  S   S41       1.0  0.06757  0.86441  0.35885  1.0000
  H   H249      1.0  0.00060  0.64678  0.53124  1.0000
  C   C309      1.0  0.14354  0.72880  0.57720  1.0000
  H   H250      1.0  0.09011  0.52499  0.58188  1.0000
  H   H251      1.0  0.46714  0.72693  0.57481  1.0000
  H   H252      1.0  0.11273  0.53243  0.49420  1.0000
  H   H253      1.0  0.00907  0.87505  0.62390  1.0000
  H   H254      1.0  0.07452  0.92262  0.39391  1.0000
  C   C310      1.0  0.02168  0.81551  0.60605  1.0000
  C   C311      1.0  0.10589  0.88463  0.59443  1.0000
  H   H255      1.0  0.03575  0.71767  0.47089  1.0000
  H   H256      1.0  0.07822  0.68162  0.49761  1.0000
  C   C312      1.0  0.00110  0.61508  0.46529  1.0000
  C   C313      1.0  0.11952  0.92926  0.34681  1.0000
  H   H257      1.0  0.23185  0.76555  0.50801  1.0000
  H   H258      1.0  0.22971  0.90356  0.52153  1.0000
  H   H259      1.0  0.12140  0.91208  0.33230  1.0000
  H   H260      1.0  0.02932  0.96404  0.58235  1.0000
  C   C314      1.0  0.06185  0.91667  0.56129  1.0000
  H   H261      1.0  0.06851  0.93574  0.61170  1.0000
  H   H262      1.0  0.47153  0.69667  0.60882  1.0000
  H   H263      1.0  0.25171  0.83947  0.49883  1.0000
  S   S42       1.0  0.01235  0.82112  0.41045  1.0000
  C   C315      1.0  0.17462  0.80267  0.61144  1.0000
  C   C316      1.0  0.22082  0.87130  0.52550  1.0000
  C   C317      1.0  0.14215  0.96744  0.34964  1.0000
  C   C318      1.0  0.12286  0.68982  0.57464  1.0000
  C   C319      1.0  0.06617  0.75811  0.62170  1.0000
  C   C320      1.0  0.04183  0.77315  0.60553  1.0000
  H   H264      1.0  0.08249  0.72575  0.62082  1.0000
  H   H265      1.0  0.03831  0.75163  0.59263  1.0000
  H   H266      1.0  0.24934  0.82535  0.57487  1.0000
  C   C321      1.0  0.05339  0.93656  0.58035  1.0000
  C   C322      1.0  0.10074  0.53933  0.61320  1.0000
  C   C323      1.0  0.02689  0.64343  0.62615  1.0000
  C   C324      1.0  0.06790  0.72683  0.55488  1.0000
  H   H267      1.0  0.04830  0.55710  0.44132  1.0000
  C   C325      1.0  0.99986  0.63053  0.61083  1.0000
  H   H268      1.0  0.18772  0.89411  0.55321  1.0000
  C   C326      1.0  0.07552  0.92064  0.59688  1.0000
  C   C327      1.0  0.02584  0.59394  0.47994  1.0000
  C   C328      1.0  0.02583  0.49701  0.52074  1.0000
  H   H269      1.0  0.99960  0.83427  0.46852  1.0000
  C   C329      1.0  0.11595  0.50394  0.52321  1.0000
  C   C330      1.0  0.03274  0.68335  0.47361  1.0000
  C   C331      1.0  0.18487  0.82421  0.54852  1.0000
  H   H270      1.0  0.03820  0.72639  0.54651  1.0000
  C   C332      1.0  0.08955  0.52931  0.63299  1.0000
  H   H271      1.0  0.29890  0.81379  0.60293  1.0000
  C   C333      1.0  0.08180  0.51714  0.59719  1.0000
  C   C334      1.0  0.05664  0.66297  0.48862  1.0000
  H   H272      1.0  0.13616  0.66036  0.58142  1.0000
  C   C335      1.0  0.07440  0.49689  0.42741  1.0000
  H   H273      1.0  0.12203  0.87307  0.60758  1.0000
  H   H274      1.0  0.07354  0.79527  0.55138  1.0000
  C   C336      1.0  0.09311  0.93502  0.38152  1.0000
  H   H275      1.0  0.04429  0.92879  0.54853  1.0000
  C   C337      1.0  0.09472  0.91304  0.36270  1.0000
  H   H276      1.0  0.18983  0.75545  0.53954  1.0000
  H   H277      1.0  0.06897  0.65860  0.56177  1.0000
  C   C338      1.0  0.00476  0.65948  0.46206  1.0000
  C   C339      1.0  0.19797  0.78800  0.53574  1.0000
  C   C340      1.0  0.02347  0.87256  0.31237  1.0000
  H   H278      1.0  0.17327  0.72841  0.58556  1.0000
  C   C341      1.0  0.08505  0.68880  0.56350  1.0000
  P   P10       1.0  0.02109  0.53609  0.48325  1.0000
  C   C342      1.0  0.05545  0.52276  0.44355  1.0000
  C   C343      1.0  0.11654  0.97251  0.38447  1.0000
  H   H279      1.0  0.15102  0.50587  0.52403  1.0000
  H   H280      1.0  0.08084  0.51131  0.41305  1.0000
  H   H281      1.0  0.01078  0.60320  0.60076  1.0000
  P   P11       1.0  0.15383  0.81755  0.57161  1.0000
  C   C344      1.0  0.19060  0.81338  0.59237  1.0000
  C   C345      1.0  0.02573  0.91771  0.31126  1.0000
  Fe  Fe22      1.0  0.01085  0.85039  0.37993  1.0000
  C   C346      1.0  0.11433  0.86404  0.57535  1.0000
  H   H282      1.0  0.05289  0.85115  0.31017  1.0000
  C   C347      1.0  0.22197  0.79356  0.51787  1.0000
  C   C348      1.0  0.23569  0.81782  0.58943  1.0000
  C   C349      1.0  0.05309  0.61850  0.49187  1.0000
  C   C350      1.0  0.08810  0.76608  0.55772  1.0000
  C   C351      1.0  0.09219  0.88069  0.55877  1.0000
  C   C352      1.0  0.23325  0.83519  0.51271  1.0000
  C   C353      1.0  0.19688  0.86585  0.54339  1.0000
  Fe  Fe23      1.0  0.16664  0.61863  0.63331  1.0000
  H   H283      1.0  0.05867  0.62645  0.62767  1.0000
  C   C354      1.0  0.26404  0.81139  0.60532  1.0000
  C   C355      1.0  0.20287  0.79692  0.62735  1.0000
  C   C356      1.0  0.24765  0.80083  0.62425  1.0000
  C   C357      1.0  0.04863  0.51705  0.50530  1.0000
  C   C358      1.0  0.09412  0.51921  0.50641  1.0000
  H   H284      1.0  0.16108  0.97969  0.33733  1.0000
  H   H285      1.0  0.11561  0.98887  0.39917  1.0000
  C   C359      1.0  0.14080  0.98915  0.36854  1.0000
  S   S43       1.0  0.32540  0.88504  0.87165  1.0000
  H   H286      1.0  0.33643  0.80535  0.94941  1.0000
  H   H287      1.0  0.10402  0.54598  0.64546  1.0000
  C   C360      1.0  0.38363  0.59358  0.93539  1.0000
  H   H288      1.0  0.43100  0.82413  0.74756  1.0000
  C   C361      1.0  0.45345  0.90626  0.79114  1.0000
  S   S44       1.0  0.38771  0.86407  0.92136  1.0000
  Fe  Fe24      1.0  0.21265  0.59436  0.84498  1.0000
  S   S45       1.0  0.16394  0.61493  0.87002  1.0000
  S   S46       1.0  0.26557  0.53820  0.84413  1.0000
  Fe  Fe25      1.0  0.17695  0.66705  0.81810  1.0000
  S   S47       1.0  0.12685  0.69386  0.84149  1.0000
  S   S48       1.0  0.18081  0.70210  0.78886  1.0000
  Fe  Fe26      1.0  0.18151  0.68346  0.86305  1.0000
  S   S49       1.0  0.20099  0.73049  0.88782  1.0000
  S   S50       1.0  0.23244  0.66221  0.83929  1.0000
  S   S51       1.0  0.16160  0.59753  0.82139  1.0000
  H   H289      1.0  0.05442  0.58957  0.79768  1.0000
  C   C362      1.0  0.23036  0.84464  0.95241  1.0000
  Fe  Fe27      1.0  0.18311  0.62890  0.67780  1.0000
  S   S52       1.0  0.17698  0.59222  0.70650  1.0000
  S   S53       1.0  0.20324  0.69737  0.67534  1.0000
  C   C363      1.0  0.17877  0.62310  0.72926  1.0000
  C   C364      1.0  0.18149  0.60158  0.74744  1.0000
  C   C365      1.0  0.18144  0.62546  0.76586  1.0000
  C   C366      1.0  0.17926  0.67107  0.76616  1.0000
  C   C367      1.0  0.17637  0.69263  0.74798  1.0000
  C   C368      1.0  0.17612  0.66872  0.72959  1.0000
  H   H290      1.0  0.18409  0.56633  0.74728  1.0000
  H   H291      1.0  0.18389  0.60852  0.77975  1.0000
  H   H292      1.0  0.17441  0.72795  0.74812  1.0000
  H   H293      1.0  0.17334  0.68569  0.71573  1.0000
  C   C369      1.0  0.44836  0.57277  0.79854  1.0000
  Fe  Fe28      1.0  0.11348  0.62358  0.84596  1.0000
  C   C370      1.0  0.44129  0.55521  0.81747  1.0000
  Fe  Fe29      1.0  0.45733  0.87731  0.91420  1.0000
  C   C371      1.0  0.23669  0.77224  0.88273  1.0000
  C   C372      1.0  0.24512  0.78567  0.86316  1.0000
  C   C373      1.0  0.27194  0.82057  0.85996  1.0000
  C   C374      1.0  0.29149  0.84153  0.87618  1.0000
  C   C375      1.0  0.28388  0.82732  0.89563  1.0000
  C   C376      1.0  0.25621  0.79327  0.89887  1.0000
  H   H294      1.0  0.22998  0.76996  0.85061  1.0000
  H   H295      1.0  0.27748  0.83152  0.84491  1.0000
  H   H296      1.0  0.29837  0.84338  0.90822  1.0000
  H   H297      1.0  0.24942  0.78352  0.91399  1.0000
  C   C377      1.0  0.46615  0.86179  0.79281  1.0000
  P   P12       1.0  0.01153  0.62348  0.76207  1.0000
  C   C378      1.0  0.05179  0.68389  0.78589  1.0000
  S   S54       1.0  0.12303  0.64029  0.65991  1.0000
  C   C379      1.0  0.28183  0.67042  0.94554  1.0000
  H   H298      1.0  0.24950  0.57025  0.95813  1.0000
  Fe  Fe30      1.0  0.14655  0.70664  0.65501  1.0000
  H   H299      1.0  0.17481  0.80598  0.95622  1.0000
  H   H300      1.0  0.19010  0.78833  0.64199  1.0000
  C   C380      1.0  0.47957  0.65587  0.76047  1.0000
  C   C381      1.0  0.36306  0.55869  0.94358  1.0000
  H   H301      1.0  0.21083  0.87523  0.95171  1.0000
  C   C382      1.0  0.07408  0.55829  0.74826  1.0000
  H   H302      1.0  0.24362  0.55159  0.88713  1.0000
  C   C383      1.0  0.48967  0.61837  0.84279  1.0000
  H   H303      1.0  0.00809  0.67686  0.85851  1.0000
  H   H304      1.0  0.07835  0.57638  0.69460  1.0000
  S   S55       1.0  0.36215  0.96902  0.91559  1.0000
  C   C384      1.0  0.43814  0.73804  0.93500  1.0000
  C   C385      1.0  0.28362  0.58678  0.77230  1.0000
  C   C386      1.0  0.28483  0.57984  0.79293  1.0000
  C   C387      1.0  0.30798  0.60702  0.80537  1.0000
  C   C388      1.0  0.32868  0.64199  0.79735  1.0000
  C   C389      1.0  0.32599  0.65035  0.77679  1.0000
  C   C390      1.0  0.30423  0.62181  0.76419  1.0000
  P   P13       1.0  0.35005  0.69791  0.76724  1.0000
  C   C391      1.0  0.32682  0.74622  0.78093  1.0000
  C   C392      1.0  0.40816  0.68993  0.77087  1.0000
  C   C393      1.0  0.42691  0.70901  0.78776  1.0000
  H   H305      1.0  0.40172  0.51193  0.83433  1.0000
  P   P14       1.0  0.48059  0.56227  0.83672  1.0000
  H   H306      1.0  0.42738  0.57574  0.76794  1.0000
  C   C394      1.0  0.43462  0.66221  0.75759  1.0000
  C   C395      1.0  0.34531  0.78623  0.77821  1.0000
  C   C396      1.0  0.32698  0.82437  0.78814  1.0000
  C   C397      1.0  0.28966  0.82282  0.80066  1.0000
  C   C398      1.0  0.27049  0.78322  0.80310  1.0000
  C   C399      1.0  0.28882  0.74509  0.79322  1.0000
  C   C400      1.0  0.33617  0.70681  0.74140  1.0000
  C   C401      1.0  0.29190  0.71050  0.73656  1.0000
  C   C402      1.0  0.27995  0.71734  0.71676  1.0000
  C   C403      1.0  0.31201  0.72075  0.70161  1.0000
  C   C404      1.0  0.35611  0.71858  0.70638  1.0000
  C   C405      1.0  0.36820  0.71251  0.72626  1.0000
  H   H307      1.0  0.26584  0.56558  0.76262  1.0000
  H   H308      1.0  0.26799  0.55335  0.79935  1.0000
  H   H309      1.0  0.30938  0.60120  0.82132  1.0000
  H   H310      1.0  0.34565  0.66325  0.80731  1.0000
  H   H311      1.0  0.30230  0.62668  0.74820  1.0000
  H   H312      1.0  0.40687  0.72870  0.79878  1.0000
  H   H313      1.0  0.38880  0.74632  0.64412  1.0000
  H   H314      1.0  0.33563  0.69381  0.91097  1.0000
  H   H315      1.0  0.26054  0.70377  0.91903  1.0000
  H   H316      1.0  0.42055  0.64536  0.74501  1.0000
  H   H317      1.0  0.37358  0.78781  0.76822  1.0000
  H   H318      1.0  0.34145  0.85522  0.78606  1.0000
  H   H319      1.0  0.27524  0.85234  0.80831  1.0000
  H   H320      1.0  0.24086  0.78202  0.81238  1.0000
  H   H321      1.0  0.27245  0.71520  0.79492  1.0000
  H   H322      1.0  0.26656  0.70778  0.74811  1.0000
  H   H323      1.0  0.24574  0.71978  0.71317  1.0000
  H   H324      1.0  0.30269  0.72527  0.68618  1.0000
  H   H325      1.0  0.38087  0.72150  0.69456  1.0000
  H   H326      1.0  0.40243  0.71258  0.72955  1.0000
  H   H327      1.0  0.35275  0.49780  0.80676  1.0000
  H   H328      1.0  0.10999  0.52969  0.80190  1.0000
  C   C406      1.0  0.05352  0.71539  0.80148  1.0000
  H   H329      1.0  0.45929  0.92986  0.80304  1.0000
  H   H330      1.0  0.29146  0.87447  0.94849  1.0000
  H   H331      1.0  0.46626  0.72082  0.64940  1.0000
  C   C407      1.0  0.48726  0.51719  0.87227  1.0000
  C   C408      1.0  0.10602  0.52446  0.75076  1.0000
  Fe  Fe31      1.0  0.43412  0.97546  0.90922  1.0000
  C   C409      1.0  0.28791  0.51540  0.86598  1.0000
  C   C410      1.0  0.45949  0.82155  0.85307  1.0000
  H   H332      1.0  0.06398  0.56552  0.73328  1.0000
  H   H333      1.0  0.08134  0.67437  0.77697  1.0000
  C   C411      1.0  0.11922  0.51428  0.77007  1.0000
  C   C412      1.0  0.40040  0.73432  0.94700  1.0000
  H   H334      1.0  0.21909  0.73635  0.95760  1.0000
  H   H335      1.0  0.09549  0.68636  0.70666  1.0000
  H   H336      1.0  0.36849  0.61127  0.92335  1.0000
  H   H337      1.0  0.40471  0.80992  0.80968  1.0000
  C   C413      1.0  0.42236  0.54736  0.96641  1.0000
  H   H338      1.0  0.46822  0.72884  0.90534  1.0000
  H   H339      1.0  0.21133  0.57774  0.92594  1.0000
  C   C414      1.0  0.40352  0.54661  0.88682  1.0000
  C   C415      1.0  0.36399  0.70561  0.91806  1.0000
  H   H340      1.0  0.05045  0.84786  0.65309  1.0000
  Fe  Fe32      1.0  0.24296  0.67175  0.64788  1.0000
  H   H341      1.0  0.43100  0.64512  0.82919  1.0000
  H   H342      1.0  0.37072  0.55721  0.89225  1.0000
  C   C416      1.0  0.27587  0.84418  0.95054  1.0000
  C   C417      1.0  0.42849  0.80629  0.86650  1.0000
  C   C418      1.0  0.46281  0.69444  0.84583  1.0000
  C   C419      1.0  0.01703  0.65213  0.73891  1.0000
  H   H343      1.0  0.48080  0.68796  0.96534  1.0000
  Fe  Fe33      1.0  0.38512  0.92592  0.94044  1.0000
  H   H344      1.0  0.03460  0.68914  0.65092  1.0000
  C   C420      1.0  0.06880  0.57199  0.78439  1.0000
  H   H345      1.0  0.08776  0.64362  0.73708  1.0000
  C   C421      1.0  0.02646  0.70296  0.70487  1.0000
  H   H346      1.0  0.48611  0.71691  0.80376  1.0000
  C   C422      1.0  0.40198  0.70907  0.90615  1.0000
  C   C423      1.0  0.47177  0.70215  0.79074  1.0000
  S   S56       1.0  0.04793  0.59196  0.84305  1.0000
  C   C424      1.0  0.43903  0.72525  0.91462  1.0000
  C   C425      1.0  0.05565  0.58267  0.76503  1.0000
  Fe  Fe34      1.0  0.37041  0.90711  0.89605  1.0000
  C   C426      1.0  0.06933  0.78491  0.63893  1.0000
  H   H347      1.0  0.44002  0.63139  0.93555  1.0000
  H   H348      1.0  0.43451  0.80631  0.88249  1.0000
  H   H349      1.0  0.34985  0.78376  0.83352  1.0000
  C   C427      1.0  0.04530  0.56874  0.69100  1.0000
  H   H350      1.0  0.43878  0.72011  0.84239  1.0000
  C   C428      1.0  0.42509  0.89138  0.75816  1.0000
  S   S57       1.0  0.22603  0.60185  0.65150  1.0000
  H   H351      1.0  0.40244  0.69988  0.89025  1.0000
  S   S58       1.0  0.09991  0.76685  0.65942  1.0000
  H   H352      1.0  0.21704  0.64475  0.90661  1.0000
  C   C429      1.0  0.28123  0.76531  0.95322  1.0000
  C   C430      1.0  0.41883  0.55935  0.86806  1.0000
  C   C431      1.0  0.43705  0.84701  0.75979  1.0000
  C   C432      1.0  0.38702  0.53596  0.78558  1.0000
  S   S59       1.0  0.44069  0.91675  0.88749  1.0000
  H   H353      1.0  0.33261  0.54877  0.93763  1.0000
  C   C433      1.0  0.45882  0.65194  0.83815  1.0000
  C   C434      1.0  0.46050  0.54388  0.86047  1.0000
  H   H354      1.0  0.46653  0.75187  0.94136  1.0000
  C   C435      1.0  0.38925  0.79221  0.85939  1.0000
  C   C436      1.0  0.38090  0.79358  0.83886  1.0000
  C   C437      1.0  0.10034  0.53782  0.78687  1.0000
  H   H355      1.0  0.40963  0.90287  0.74471  1.0000
  C   C438      1.0  0.38220  0.53586  0.95919  1.0000
  H   H356      1.0  0.36480  0.78138  0.86988  1.0000
  H   H357      1.0  0.39787  0.58072  0.85935  1.0000
  C   C439      1.0  0.37966  0.51848  0.80439  1.0000
  C   C440      1.0  0.41201  0.80870  0.82541  1.0000
  C   C441      1.0  0.42421  0.60468  0.94230  1.0000
  C   C442      1.0  0.45206  0.65393  0.65328  1.0000
  P   P15       1.0  0.49222  0.84246  0.81519  1.0000
  C   C443      1.0  0.01315  0.67845  0.63933  1.0000
  C   C444      1.0  0.45674  0.83211  0.77719  1.0000
  C   C445      1.0  0.45164  0.82280  0.83241  1.0000
  S   S60       1.0  0.45623  0.93590  0.93547  1.0000
  C   C446      1.0  0.02926  0.52929  0.69670  1.0000
  C   C447      1.0  0.37424  0.63945  0.65156  1.0000
  C   C448      1.0  0.01898  0.59814  0.68040  1.0000
  C   C449      1.0  0.05866  0.65773  0.73036  1.0000
  C   C450      1.0  0.06323  0.68246  0.71325  1.0000
  H   H358      1.0  0.42646  0.59078  0.65664  1.0000
  C   C451      1.0  0.27764  0.63272  0.95667  1.0000
  C   C452      1.0  0.30128  0.80475  0.95095  1.0000
  C   C453      1.0  0.42991  0.51891  0.89824  1.0000
  C   C454      1.0  0.27092  0.52746  0.88530  1.0000
  C   C455      1.0  0.40706  0.52746  0.82020  1.0000
  C   C456      1.0  0.36297  0.71782  0.93867  1.0000
  C   C457      1.0  0.28865  0.50752  0.90225  1.0000
  H   H359      1.0  0.41771  0.50807  0.91257  1.0000
  C   C458      1.0  0.36322  0.68321  0.64771  1.0000
  H   H360      1.0  0.27465  0.51628  0.91708  1.0000
  H   H361      1.0  0.08419  0.72978  0.80440  1.0000
  H   H362      1.0  0.34895  0.61652  0.65207  1.0000
  C   C459      1.0  0.42134  0.56303  0.78265  1.0000
  H   H363      1.0  0.48936  0.83288  0.85889  1.0000
  C   C460      1.0  0.25240  0.59939  0.94959  1.0000
  H   H364      1.0  0.36604  0.52859  0.77326  1.0000
  C   C461      1.0  0.23090  0.60350  0.93148  1.0000
  H   H365      1.0  0.03165  0.62844  0.67585  1.0000
  H   H366      1.0  0.47560  0.59282  0.79593  1.0000
  H   H367      1.0  0.36635  0.50842  0.96531  1.0000
  C   C462      1.0  0.04807  0.82692  0.63979  1.0000
  P   P16       1.0  0.31394  0.71440  0.95432  1.0000
  C   C463      1.0  0.23425  0.64111  0.92053  1.0000
  H   H368      1.0  0.42352  0.95533  0.77267  1.0000
  S   S61       1.0  0.30857  0.70278  0.64277  1.0000
  C   C464      1.0  0.44089  0.69802  0.65005  1.0000
  H   H369      1.0  0.03046  0.72275  0.69180  1.0000
  H   H370      1.0  0.46502  0.79749  0.77833  1.0000
  C   C465      1.0  0.47181  0.50454  0.89101  1.0000
  C   C466      1.0  0.25926  0.67450  0.92758  1.0000
  C   C467      1.0  0.44432  0.58094  0.95756  1.0000
  C   C468      1.0  0.41834  0.62493  0.65414  1.0000
  C   C469      1.0  0.01624  0.72736  0.81356  1.0000
  H   H371      1.0  0.01804  0.75074  0.82606  1.0000
  H   H372      1.0  0.04996  0.50622  0.70467  1.0000
  C   C470      1.0  0.43303  0.92092  0.77388  1.0000
  C   C471      1.0  0.23545  0.76615  0.95557  1.0000
  C   C472      1.0  0.49377  0.91761  0.83997  1.0000
  C   C473      1.0  0.01259  0.66433  0.78217  1.0000
  H   H373      1.0  0.12105  0.50665  0.73770  1.0000
  C   C474      1.0  0.21015  0.80565  0.95498  1.0000
  H   H374      1.0  0.40027  0.74525  0.96266  1.0000
  H   H375      1.0  0.45864  0.91606  0.84179  1.0000
  C   C475      1.0  0.39685  0.71239  0.64707  1.0000
  H   H376      1.0  0.40578  0.83553  0.96605  1.0000
  H   H377      1.0  0.48284  0.85101  0.96105  1.0000
  C   C476      1.0  0.06070  0.49645  0.63667  1.0000
  H   H378      1.0  0.26972  0.79486  0.63644  1.0000
  H   H379      1.0  0.49486  0.97463  0.85989  1.0000
  C   C477      1.0  0.69151  0.33466  0.28083  1.0000
  Fe  Fe35      1.0  0.78218  0.18525  0.16569  1.0000
  S   S62       1.0  0.75512  0.24416  0.18426  1.0000
  S   S63       1.0  0.85327  0.15644  0.16492  1.0000
  Fe  Fe36      1.0  0.69165  0.16564  0.14977  1.0000
  S   S64       1.0  0.65867  0.22294  0.16723  1.0000
  S   S65       1.0  0.64921  0.13140  0.12731  1.0000
  Fe  Fe37      1.0  0.71490  0.26029  0.15744  1.0000
  S   S66       1.0  0.70055  0.33096  0.14996  1.0000
  Fe  Fe38      1.0  0.70044  0.20264  0.19267  1.0000
  S   S67       1.0  0.66500  0.21180  0.22285  1.0000
  S   S68       1.0  0.74620  0.20483  0.13794  1.0000
  S   S69       1.0  0.72942  0.14178  0.17619  1.0000
  H   H380      1.0  0.77807  0.47319  0.29216  1.0000
  C   C478      1.0  0.84306  0.15181  0.22240  1.0000
  H   H381      1.0  0.91717  0.25083  0.28126  1.0000
  H   H382      1.0  0.65492  0.38589  0.29863  1.0000
  P   P17       1.0  0.51387  0.14426  0.25750  1.0000
  C   C479      1.0  0.87825  0.30611  0.12043  1.0000
  C   C480      1.0  0.68691  0.18295  0.24290  1.0000
  C   C481      1.0  0.72245  0.15231  0.23986  1.0000
  C   C482      1.0  0.73834  0.12863  0.25609  1.0000
  C   C483      1.0  0.71853  0.13540  0.27535  1.0000
  C   C484      1.0  0.68312  0.16625  0.27835  1.0000
  C   C485      1.0  0.66748  0.19009  0.26218  1.0000
  H   H383      1.0  0.73722  0.14650  0.22495  1.0000
  H   H384      1.0  0.76570  0.10475  0.25368  1.0000
  C   C486      1.0  0.54361  0.20115  0.28682  1.0000
  H   H385      1.0  0.63993  0.21375  0.26458  1.0000
  C   C487      1.0  0.90401  0.18148  0.16646  1.0000
  C   C488      1.0  0.94331  0.15501  0.16445  1.0000
  C   C489      1.0  0.57533  0.46839  0.98466  1.0000
  C   C490      1.0  0.90631  0.22653  0.16972  1.0000
  H   H386      1.0  0.94200  0.12012  0.16197  1.0000
  C   C491      1.0  0.51687  0.12002  0.05432  1.0000
  H   H387      1.0  0.87650  0.24740  0.17127  1.0000
  C   C492      1.0  0.57901  0.36657  0.11389  1.0000
  C   C493      1.0  0.59826  0.32372  0.11292  1.0000
  C   C494      1.0  0.63446  0.31211  0.12450  1.0000
  C   C495      1.0  0.65259  0.34370  0.13671  1.0000
  C   C496      1.0  0.63323  0.38654  0.13781  1.0000
  C   C497      1.0  0.59601  0.39779  0.12672  1.0000
  H   H388      1.0  0.58571  0.29953  0.10286  1.0000
  H   H389      1.0  0.64932  0.27913  0.12340  1.0000
  H   H390      1.0  0.64726  0.41119  0.14716  1.0000
  C   C498      1.0  0.51366  0.30072  0.04489  1.0000
  C   C499      1.0  0.59988  0.02155  0.14937  1.0000
  C   C500      1.0  0.62328  0.05935  0.14767  1.0000
  C   C501      1.0  0.61896  0.08474  0.13072  1.0000
  C   C502      1.0  0.59046  0.07235  0.11567  1.0000
  C   C503      1.0  0.56713  0.03451  0.11735  1.0000
  H   H391      1.0  0.60274  0.40357  0.27206  1.0000
  H   H392      1.0  0.64531  0.06834  0.15928  1.0000
  H   H393      1.0  0.58693  0.09173  0.10247  1.0000
  H   H394      1.0  0.85471  0.09588  0.24050  1.0000
  C   C504      1.0  0.69368  0.20223  0.09035  1.0000
  C   C505      1.0  0.98663  0.21821  0.16877  1.0000
  C   C506      1.0  0.85062  0.27391  0.12605  1.0000
  C   C507      1.0  0.51634  0.06773  0.27951  1.0000
  C   C508      1.0  0.86581  0.12727  0.23645  1.0000
  H   H395      1.0  0.75180  0.24593  0.99822  1.0000
  C   C509      1.0  0.63153  0.35444  0.25084  1.0000
  H   H396      1.0  0.57637  0.30479  0.28626  1.0000
  H   H397      1.0  0.59213  0.16221  0.23358  1.0000
  C   C510      1.0  0.70737  0.26599  0.07134  1.0000
  C   C511      1.0  0.92004  0.29427  0.11211  1.0000
  H   H398      1.0  0.81832  0.28301  0.13265  1.0000
  H   H399      1.0  0.53121  0.37981  0.17073  1.0000
  C   C512      1.0  0.95020  0.26351  0.04085  1.0000
  C   C513      1.0  0.58313  0.13737  0.20357  1.0000
  H   H400      1.0  0.86723  0.34026  0.12258  1.0000
  H   H401      1.0  0.56611  0.10876  0.17504  1.0000
  C   C514      1.0  0.87444  0.03592  0.29063  1.0000
  H   H402      1.0  0.60429  0.12601  0.26836  1.0000
  C   C515      1.0  0.76460  0.27428  0.29400  1.0000
  H   H403      1.0  0.70530  0.17595  0.09968  1.0000
  H   H404      1.0  0.72712  0.38504  0.99637  1.0000
  C   C516      1.0  0.60000  0.31140  0.19565  1.0000
  C   C517      1.0  0.58554  0.34657  0.18433  1.0000
  H   H405      1.0  0.51325  0.27983  0.11251  1.0000
  H   H406      1.0  0.51718  0.38076  0.01951  1.0000
  C   C518      1.0  0.62818  0.37764  0.26936  1.0000
  H   H407      1.0  0.53801  0.18158  0.11192  1.0000
  H   H408      1.0  0.63461  0.30560  0.19829  1.0000
  H   H409      1.0  0.60901  0.36805  0.17831  1.0000
  C   C519      1.0  0.57033  0.14583  0.22379  1.0000
  H   H410      1.0  0.84132  0.17062  0.28084  1.0000
  H   H411      1.0  0.84523  0.23618  0.26024  1.0000
  C   C520      1.0  0.82256  0.23656  0.27303  1.0000
  H   H412      1.0  0.51599  0.28847  0.14932  1.0000
  C   C521      1.0  0.57201  0.00870  0.13415  1.0000
  H   H413      1.0  0.71788  0.28364  0.25943  1.0000
  C   C522      1.0  0.66568  0.37453  0.07896  1.0000
  C   C523      1.0  0.58811  0.28842  0.01939  1.0000
  H   H414      1.0  0.53335  0.11134  0.03993  1.0000
  H   H415      1.0  0.53160  0.00642  0.21457  1.0000
  C   C524      1.0  0.50518  0.08717  0.06706  1.0000
  C   C525      1.0  0.53658  0.03751  0.29209  1.0000
  H   H416      1.0  0.92116  0.12284  0.25538  1.0000
  C   C526      1.0  0.82037  0.19970  0.28463  1.0000
  C   C527      1.0  0.72237  0.23243  0.08356  1.0000
  C   C528      1.0  0.85726  0.19221  0.21706  1.0000
  H   H417      1.0  0.58341  0.46454  0.06040  1.0000
  C   C529      1.0  0.90335  0.14275  0.24485  1.0000
  H   H418      1.0  0.53982  0.17531  0.29731  1.0000
  C   C530      1.0  0.50397  0.10923  0.21847  1.0000
  C   C531      1.0  0.98006  0.25539  0.24306  1.0000
  H   H419      1.0  0.72818  0.41471  0.28688  1.0000
  H   H420      1.0  0.84371  0.20482  0.12795  1.0000
  C   C532      1.0  0.54123  0.35320  0.18016  1.0000
  H   H421      1.0  0.75623  0.22977  0.08783  1.0000
  C   C533      1.0  0.51077  0.32464  0.18734  1.0000
  C   C534      1.0  0.98393  0.26561  0.22270  1.0000
  C   C535      1.0  0.55482  0.20073  0.14170  1.0000
  C   C536      1.0  0.66405  0.32074  0.24747  1.0000
  C   C537      1.0  0.96354  0.19477  0.27647  1.0000
  C   C538      1.0  0.54587  0.46638  0.96913  1.0000
  C   C539      1.0  0.50706  0.16389  0.06010  1.0000
  C   C540      1.0  0.95183  0.26223  0.06183  1.0000
  C   C541      1.0  0.53334  0.19538  0.26650  1.0000
  C   C542      1.0  0.89457  0.20799  0.22552  1.0000
  C   C543      1.0  0.52574  0.18775  0.12725  1.0000
  H   H422      1.0  0.98742  0.04200  0.27534  1.0000
  C   C544      1.0  0.55908  0.24045  0.29388  1.0000
  H   H423      1.0  0.66645  0.30238  0.23322  1.0000
  S   S70       1.0  0.73813  0.10441  0.29530  1.0000
  C   C545      1.0  0.54018  0.10088  0.27136  1.0000
  C   C546      1.0  0.90668  0.21790  0.11524  1.0000
  H   H424      1.0  0.76550  0.31623  0.98266  1.0000
  C   C547      1.0  0.60529  0.07087  0.28720  1.0000
  H   H425      1.0  0.90454  0.23929  0.22096  1.0000
  H   H426      1.0  0.66724  0.17132  0.29302  1.0000
  C   C548      1.0  0.86480  0.22987  0.12335  1.0000
  H   H427      1.0  0.92706  0.28113  0.07094  1.0000
  C   C549      1.0  0.93472  0.25002  0.10958  1.0000
  H   H428      1.0  0.83985  0.21078  0.20591  1.0000
  C   C550      1.0  0.94734  0.24469  0.17087  1.0000
  H   H429      1.0  0.51606  0.18936  0.05020  1.0000
  H   H430      1.0  0.91697  0.18355  0.11371  1.0000
  C   C551      1.0  0.57013  0.28286  0.20290  1.0000
  H   H431      1.0  0.54594  0.02490  0.10551  1.0000
  C   C552      1.0  0.59236  0.30150  0.03965  1.0000
  H   H432      1.0  0.81484  0.13928  0.21531  1.0000
  H   H433      1.0  0.60070  0.24117  0.06918  1.0000
  H   H434      1.0  0.67536  0.38406  0.02537  1.0000
  H   H435      1.0  0.94857  0.27956  0.17337  1.0000
  S   S71       1.0  0.53597  0.37994  0.09770  1.0000
  C   C553      1.0  0.91816  0.18319  0.23941  1.0000
  C   C554      1.0  0.64986  0.20584  0.08518  1.0000
  C   C555      1.0  0.69211  0.35370  0.01982  1.0000
  H   H436      1.0  0.60888  0.36238  0.23911  1.0000
  C   C556      1.0  0.58509  0.10130  0.27478  1.0000
  C   C557      1.0  0.55616  0.11522  0.19073  1.0000
  H   H437      1.0  0.61622  0.28424  0.00910  1.0000
  C   C558      1.0  0.58086  0.03950  0.29617  1.0000
  C   C559      1.0  0.51668  0.10096  0.19819  1.0000
  C   C560      1.0  0.74304  0.31562  0.99557  1.0000
  H   H438      1.0  0.94092  0.31962  0.10765  1.0000
  H   H439      1.0  0.69983  0.24415  0.02725  1.0000
  P   P18       1.0  0.96860  0.20041  0.24950  1.0000
  C   C561      1.0  0.79527  0.27397  0.27786  1.0000
  C   C562      1.0  0.63468  0.23942  0.07302  1.0000
  C   C563      1.0  0.52578  0.28916  0.19865  1.0000
  H   H440      1.0  0.73011  0.28894  0.06606  1.0000
  C   C564      1.0  0.73534  0.27604  0.00434  1.0000
  H   H441      1.0  0.63972  0.07242  0.29026  1.0000
  C   C565      1.0  0.69371  0.31054  0.26242  1.0000
  C   C566      1.0  0.66335  0.26985  0.06599  1.0000
  H   H442      1.0  0.92446  0.28324  0.03404  1.0000
  H   H443      1.0  0.58165  0.43097  0.12743  1.0000
  H   H444      1.0  0.59276  0.43872  0.98923  1.0000
  H   H445      1.0  0.55758  0.31742  0.06794  1.0000
  C   C567      1.0  0.54111  0.20601  0.16192  1.0000
  H   H446      1.0  0.54348  0.27349  0.99616  1.0000
  C   C568      1.0  0.65786  0.36763  0.28434  1.0000
  S   S72       1.0  0.50200  0.35964  0.97799  1.0000
  C   C569      1.0  0.60692  0.43966  0.06536  1.0000
  H   H447      1.0  0.58186  0.25498  0.21124  1.0000
  C   C570      1.0  0.66218  0.41600  0.08850  1.0000
  H   H448      1.0  0.59003  0.39221  0.04306  1.0000
  H   H449      1.0  0.55667  0.29577  0.25047  1.0000
  C   C571      1.0  0.63989  0.36535  0.06244  1.0000
  H   H450      1.0  0.62777  0.18242  0.09067  1.0000
  H   H451      1.0  0.60404  0.00168  0.16236  1.0000
  C   C572      1.0  0.61056  0.39837  0.05567  1.0000
  C   C573      1.0  0.63263  0.44846  0.08180  1.0000
  H   H452      1.0  0.79764  0.30251  0.26886  1.0000
  H   H453      1.0  0.68133  0.42248  0.10157  1.0000
  H   H454      1.0  0.68779  0.34974  0.08490  1.0000
  H   H455      1.0  0.56423  0.21465  0.17310  1.0000
  C   C574      1.0  0.98176  0.23946  0.02864  1.0000
  C   C575      1.0  0.72143  0.35440  0.00330  1.0000
  H   H456      1.0  0.58843  0.20555  0.13725  1.0000
  C   C576      1.0  0.75716  0.40801  0.29535  1.0000
  C   C577      1.0  0.56402  0.27450  0.28077  1.0000
  C   C578      1.0  0.70601  0.27520  0.02085  1.0000
  H   H457      1.0  0.61427  0.14766  0.19790  1.0000
  C   C579      1.0  0.55487  0.30722  0.05234  1.0000
  C   C580      1.0  0.54682  0.28186  0.01198  1.0000
  C   C581      1.0  0.68433  0.31408  0.02878  1.0000
  C   C582      1.0  0.53005  0.13291  0.23129  1.0000
  C   C583      1.0  0.98432  0.17318  0.16563  1.0000
  P   P19       1.0  0.64492  0.31237  0.04948  1.0000
  C   C584      1.0  0.53714  0.23014  0.25355  1.0000
  H   H458      1.0  0.98072  0.24077  0.21097  1.0000
  C   C585      1.0  0.55286  0.26941  0.26063  1.0000
  H   H459      1.0  0.52838  0.22678  0.23797  1.0000
  H   H460      1.0  0.96828  0.14872  0.08127  1.0000
  P   P20       1.0  0.73018  0.32308  0.30027  1.0000
  H   H461      1.0  0.75695  0.01023  0.30056  1.0000
  H   H462      1.0  0.97734  0.14466  0.21224  1.0000
  H   H463      1.0  0.50398  0.26536  0.20365  1.0000
  H   H464      1.0  0.72176  0.02238  0.26802  1.0000
  C   C586      1.0  0.79073  0.20025  0.30104  1.0000
  C   C587      1.0  0.50963  0.28814  0.02469  1.0000
  P   P21       1.0  0.98786  0.23489  0.09786  1.0000
  H   H465      1.0  0.98049  0.24054  0.01239  1.0000
  C   C588      1.0  0.98514  0.23679  0.07077  1.0000
  C   C589      1.0  0.91425  0.01428  0.29525  1.0000
  H   H466      1.0  0.85432  0.02221  0.27921  1.0000
  H   H467      1.0  0.62894  0.48012  0.08962  1.0000
  C   C590      1.0  0.70895  0.99928  0.27828  1.0000
  H   H468      1.0  0.82945  0.09175  0.29727  1.0000
  C   C591      1.0  0.98556  0.15987  0.28584  1.0000
  C   C592      1.0  0.50398  0.99302  0.20735  1.0000
  H   H469      1.0  0.51762  0.01333  0.29913  1.0000
  C   C593      1.0  0.49785  0.19961  0.16767  1.0000
  C   C594      1.0  0.86034  0.07513  0.30083  1.0000
  H   H470      1.0  0.51229  0.05309  0.06250  1.0000
  C   C595      1.0  0.78556  0.44139  0.29822  1.0000
  C   C596      1.0  0.93567  0.22444  0.28820  1.0000
  C   C597      1.0  0.72882  0.99246  0.29663  1.0000
  C   C598      1.0  0.99133  0.14394  0.09312  1.0000
  C   C599      1.0  0.99204  0.30791  0.21726  1.0000
  H   H471      1.0  0.98897  0.28007  0.27362  1.0000
  C   C600      1.0  0.98827  0.28741  0.25787  1.0000
  H   H472      1.0  0.99589  0.28419  0.13604  1.0000
  H   H473      1.0  0.99465  0.31531  0.20146  1.0000
  H   H474      1.0  0.99637  0.07389  0.08854  1.0000
  S   S73       1.0  0.94267  0.05362  0.57829  1.0000
  Fe  Fe39      1.0  0.87447  0.41584  0.58358  1.0000
  S   S74       1.0  0.89776  0.38136  0.61076  1.0000
  S   S75       1.0  0.81436  0.46283  0.58152  1.0000
  Fe  Fe40      1.0  0.95333  0.37943  0.55803  1.0000
  H   H475      1.0  0.86272  0.38717  0.32528  1.0000
  C   C601      1.0  0.97995  0.22814  0.46812  1.0000
  Fe  Fe41      1.0  0.91455  0.32242  0.58987  1.0000
  S   S76       1.0  0.89375  0.25645  0.60096  1.0000
  C   C602      1.0  0.84834  0.11578  0.55004  1.0000
  S   S77       1.0  0.74191  0.11450  0.35398  1.0000
  S   S78       1.0  0.88619  0.35586  0.56304  1.0000
  S   S79       1.0  0.93967  0.44190  0.57624  1.0000
  Fe  Fe42      1.0  0.68498  0.07942  0.36546  1.0000
  S   S80       1.0  0.64678  0.13999  0.37781  1.0000
  H   H476      1.0  0.74585  0.34500  0.34319  1.0000
  Fe  Fe43      1.0  0.70202  0.17516  0.36456  1.0000
  S   S81       1.0  0.72853  0.22764  0.38453  1.0000
  Fe  Fe44      1.0  0.61696  0.14351  0.34736  1.0000
  S   S82       1.0  0.54872  0.17392  0.34182  1.0000
  Fe  Fe45      1.0  0.92139  0.39682  0.42008  1.0000
  H   H477      1.0  0.87202  0.09915  0.60382  1.0000
  Fe  Fe46      1.0  0.92438  0.36403  0.37647  1.0000
  S   S83       1.0  0.89426  0.32090  0.35296  1.0000
  H   H478      1.0  0.69098  0.02980  0.43083  1.0000
  C   C603      1.0  0.77847  0.32596  0.55086  1.0000
  S   S84       1.0  0.89166  0.42409  0.39221  1.0000
  C   C604      1.0  0.77372  0.25415  0.37533  1.0000
  C   C605      1.0  0.79086  0.28711  0.38723  1.0000
  C   C606      1.0  0.82790  0.30769  0.38047  1.0000
  C   C607      1.0  0.84754  0.29582  0.36163  1.0000
  C   C608      1.0  0.82980  0.26340  0.34957  1.0000
  C   C609      1.0  0.79315  0.24241  0.35647  1.0000
  H   H479      1.0  0.77574  0.29653  0.40180  1.0000
  H   H480      1.0  0.84122  0.33278  0.38984  1.0000
  H   H481      1.0  0.84444  0.25427  0.33493  1.0000
  H   H482      1.0  0.78018  0.21676  0.34738  1.0000
  S   S85       1.0  0.88243  0.39409  0.44936  1.0000
  H   H483      1.0  0.97557  0.38099  0.45552  1.0000
  H   H484      1.0  0.80936  0.24455  0.58206  1.0000
  C   C610      1.0  0.96095  0.38758  0.50670  1.0000
  H   H485      1.0  0.95297  0.18491  0.33464  1.0000
  C   C611      1.0  0.91319  0.39234  0.47127  1.0000
  C   C612      1.0  0.79331  0.46749  0.62240  1.0000
  C   C613      1.0  0.98248  0.38277  0.48776  1.0000
  C   C614      1.0  0.90557  0.28824  0.50324  1.0000
  C   C615      1.0  0.91550  0.39554  0.50792  1.0000
  H   H486      1.0  0.78128  0.14472  0.42629  1.0000
  H   H487      1.0  0.87471  0.12315  0.32357  1.0000
  H   H488      1.0  0.85644  0.40328  0.49123  1.0000
  C   C616      1.0  0.50100  0.10047  0.33836  1.0000
  H   H489      1.0  0.53209  0.08164  0.33749  1.0000
  C   C617      1.0  0.89166  0.39767  0.49022  1.0000
  C   C618      1.0  0.87396  0.16841  0.37815  1.0000
  C   C619      1.0  0.76248  0.23713  0.30555  1.0000
  C   C620      1.0  0.76742  0.23949  0.51824  1.0000
  C   C621      1.0  0.80401  0.16362  0.43453  1.0000
  H   H490      1.0  0.86567  0.05251  0.37927  1.0000
  C   C622      1.0  0.92784  0.10982  0.58466  1.0000
  C   C623      1.0  0.95333  0.14198  0.57658  1.0000
  C   C624      1.0  0.94331  0.18686  0.58121  1.0000
  C   C625      1.0  0.90751  0.20033  0.59405  1.0000
  C   C626      1.0  0.88194  0.16821  0.60207  1.0000
  C   C627      1.0  0.89194  0.12330  0.59742  1.0000
  C   C628      1.0  0.97987  0.19432  0.45352  1.0000
  Fe  Fe47      1.0  0.96408  0.40353  0.60202  1.0000
  H   H491      1.0  0.84158  0.10141  0.40821  1.0000
  Fe  Fe48      1.0  0.70419  0.11938  0.32560  1.0000
  C   C629      1.0  0.90628  0.13526  0.37331  1.0000
  C   C630      1.0  0.93662  0.26350  0.53417  1.0000
  C   C631      1.0  0.89584  0.25036  0.54053  1.0000
  C   C632      1.0  0.85976  0.25543  0.52817  1.0000
  H   H492      1.0  0.78048  0.22380  0.42170  1.0000
  H   H493      1.0  0.68232  0.23394  0.47616  1.0000
  H   H494      1.0  0.75702  0.19941  0.47024  1.0000
  C   C633      1.0  0.87957  0.19798  0.39413  1.0000
  C   C634      1.0  0.77865  0.21740  0.49976  1.0000
  S   S86       1.0  0.64997  0.07909  0.33612  1.0000
  H   H495      1.0  0.96697  0.22352  0.48316  1.0000
  C   C635      1.0  0.81067  0.18751  0.54772  1.0000
  C   C636      1.0  0.77712  0.17461  0.56060  1.0000
  C   C637      1.0  0.77967  0.13288  0.56844  1.0000
  C   C638      1.0  0.81538  0.10357  0.56324  1.0000
  S   S87       1.0  0.94889  0.33457  0.40468  1.0000
  C   C639      1.0  0.94902  0.15994  0.40121  1.0000
  S   S88       1.0  0.98302  0.43180  0.41674  1.0000
  C   C640      1.0  0.69404  0.25597  0.50655  1.0000
  H   H496      1.0  0.96408  0.26040  0.54401  1.0000
  H   H497      1.0  0.89203  0.23737  0.55535  1.0000
  H   H498      1.0  0.85423  0.17809  0.61205  1.0000
  H   H499      1.0  0.89862  0.39926  0.52246  1.0000
  H   H500      1.0  0.81111  0.20178  0.49705  1.0000
  H   H501      1.0  0.84462  0.17140  0.36950  1.0000
  H   H502      1.0  0.86830  0.99525  0.44804  1.0000
  H   H503      1.0  0.74932  0.19704  0.56480  1.0000
  C   C641      1.0  0.78463  0.48354  0.60342  1.0000
  S   S89       1.0  0.98283  0.34209  0.58340  1.0000
  C   C642      1.0  0.63611  0.28939  0.34082  1.0000
  H   H504      1.0  0.60626  0.27231  0.34049  1.0000
  H   H505      1.0  0.96907  0.10607  0.38039  1.0000
  H   H506      1.0  0.75430  0.12339  0.57879  1.0000
  C   C643      1.0  0.91672  0.19373  0.40573  1.0000
  H   H507      1.0  0.71451  0.27363  0.53609  1.0000
  H   H508      1.0  0.91258  0.24551  0.31817  1.0000
  H   H509      1.0  0.92024  0.21738  0.41793  1.0000
  C   C644      1.0  0.93038  0.05729  0.49009  1.0000
  C   C645      1.0  0.84595  0.15745  0.54218  1.0000
  C   C646      1.0  0.71497  0.33017  0.34212  1.0000
  C   C647      1.0  0.78849  0.31009  0.59164  1.0000
  S   S90       1.0  0.98664  0.39617  0.36945  1.0000
  C   C648      1.0  0.95873  0.38531  0.47007  1.0000
  H   H510      1.0  0.75239  0.01310  0.34952  1.0000
  C   C649      1.0  0.86402  0.03531  0.50628  1.0000
  H   H511      1.0  0.90918  0.30419  0.48905  1.0000
  P   P22       1.0  0.80701  0.24150  0.53771  1.0000
  H   H512      1.0  0.73933  0.23654  0.31812  1.0000
  C   C650      1.0  0.79149  0.28366  0.55669  1.0000
  C   C651      1.0  0.74809  0.21571  0.48462  1.0000
  H   H513      1.0  0.95374  0.07152  0.41197  1.0000
  H   H514      1.0  0.79415  0.30426  0.60736  1.0000
  Fe  Fe49      1.0  0.95599  0.45474  0.38760  1.0000
  C   C652      1.0  0.93243  0.22117  0.30911  1.0000
  C   C653      1.0  0.95541  0.18710  0.31840  1.0000
  C   C654      1.0  0.83340  0.39294  0.31678  1.0000
  C   C655      1.0  0.80322  0.20864  0.43196  1.0000
  H   H515      1.0  0.66117  0.27070  0.50922  1.0000
  C   C656      1.0  0.77486  0.35189  0.58576  1.0000
  H   H516      1.0  0.88272  0.23433  0.46391  1.0000
  C   C657      1.0  0.72456  0.25792  0.52170  1.0000
  C   C658      1.0  0.86460  0.27550  0.50966  1.0000
  S   S91       1.0  0.66978  0.18371  0.33507  1.0000
  H   H517      1.0  0.98124  0.13202  0.56674  1.0000
  H   H518      1.0  0.87641  0.09321  0.54637  1.0000
  C   C659      1.0  0.79689  0.27610  0.57718  1.0000
  C   C660      1.0  0.69141  0.32326  0.35994  1.0000
  H   H519      1.0  0.77018  0.03541  0.42777  1.0000
  H   H520      1.0  0.92369  0.08399  0.46088  1.0000
  C   C661      1.0  0.70588  0.23514  0.48796  1.0000
  C   C662      1.0  0.90907  0.03959  0.50647  1.0000
  H   H521      1.0  0.64771  0.28376  0.30882  1.0000
  C   C663      1.0  0.50008  0.14595  0.34041  1.0000
  H   H522      1.0  0.70441  0.33239  0.37435  1.0000
  H   H523      1.0  0.97291  0.29358  0.51091  1.0000
  H   H524      1.0  0.85516  0.22449  0.39747  1.0000
  H   H525      1.0  0.90187  0.11240  0.36093  1.0000
  H   H526      1.0  0.83682  0.28252  0.50039  1.0000
  C   C664      1.0  0.76654  0.36682  0.30335  1.0000
  H   H527      1.0  0.76454  0.11889  0.48168  1.0000
  C   C665      1.0  0.65967  0.29601  0.32295  1.0000
  H   H528      1.0  0.76076  0.39266  0.56085  1.0000
  C   C666      1.0  0.98533  0.28670  0.63408  1.0000
  C   C667      1.0  0.94008  0.03166  0.31026  1.0000
  C   C668      1.0  0.65215  0.30273  0.35931  1.0000
  H   H529      1.0  0.96553  0.05923  0.48998  1.0000
  C   C669      1.0  0.94399  0.13143  0.38457  1.0000
  C   C670      1.0  0.90653  0.07140  0.47368  1.0000
  C   C671      1.0  0.77364  0.07701  0.45481  1.0000
  C   C672      1.0  0.92559  0.07102  0.32045  1.0000
  C   C673      1.0  0.76980  0.35980  0.56537  1.0000
  H   H530      1.0  0.83135  0.26894  0.44030  1.0000
  H   H531      1.0  0.78899  0.17183  0.31014  1.0000
  C   C674      1.0  0.94150  0.28232  0.51552  1.0000
  C   C675      1.0  0.83175  0.23403  0.44247  1.0000
  C   C676      1.0  0.88589  0.09273  0.31570  1.0000
  H   H532      1.0  0.81345  0.32803  0.32013  1.0000
  C   C677      1.0  0.82354  0.43393  0.30902  1.0000
  C   C678      1.0  0.69907  0.31694  0.32343  1.0000
  C   C679      1.0  0.86083  0.21440  0.45572  1.0000
  H   H533      1.0  0.96355  0.21096  0.57503  1.0000
  H   H534      1.0  0.87195  0.16605  0.53201  1.0000
  H   H535      1.0  0.81800  0.07163  0.56970  1.0000
  H   H536      1.0  0.76952  0.37855  0.59690  1.0000
  C   C680      1.0  0.83318  0.14345  0.44780  1.0000
  C   C681      1.0  0.86147  0.16936  0.45848  1.0000
  C   C682      1.0  0.84001  0.04961  0.48993  1.0000
  C   C683      1.0  0.80525  0.35946  0.31385  1.0000
  C   C684      1.0  0.98408  0.02942  0.43297  1.0000
  C   C685      1.0  0.85395  0.05251  0.43048  1.0000
  C   C686      1.0  0.85363  0.06838  0.41091  1.0000
  H   H537      1.0  0.88349  0.15540  0.46922  1.0000
  C   C687      1.0  0.86761  0.04088  0.39440  1.0000
  H   H538      1.0  0.77623  0.33310  0.53508  1.0000
  P   P23       1.0  0.83118  0.08550  0.45180  1.0000
  C   C688      1.0  0.74886  0.09895  0.47065  1.0000
  C   C689      1.0  0.86096  0.06872  0.47365  1.0000
  H   H539      1.0  0.81789  0.44102  0.62386  1.0000
  H   H540      1.0  0.63487  0.29598  0.37322  1.0000
  H   H541      1.0  0.94504  0.08506  0.33198  1.0000
  H   H542      1.0  0.92758  0.02808  0.51911  1.0000
  C   C690      1.0  0.97801  0.06899  0.42333  1.0000
  H   H543      1.0  0.84531  0.45991  0.31147  1.0000
  H   H544      1.0  0.56714  0.24421  0.30959  1.0000
  C   C691      1.0  0.88257  0.99773  0.39730  1.0000
  C   C692      1.0  0.70718  0.04864  0.44214  1.0000
  H   H545      1.0  0.96604  0.16410  0.45743  1.0000
  C   C693      1.0  0.70365  0.09544  0.47230  1.0000
  C   C694      1.0  0.76588  0.99094  0.36034  1.0000
  H   H546      1.0  0.96533  0.00202  0.42880  1.0000
  C   C695      1.0  0.74640  0.99015  0.37960  1.0000
  H   H547      1.0  0.52303  0.02193  0.36575  1.0000
  H   H548      1.0  0.68469  0.11248  0.48455  1.0000
  H   H549      1.0  0.80550  0.04444  0.48993  1.0000
  S   S92       1.0  0.69863  0.02346  0.38605  1.0000
  S   S93       1.0  0.99154  0.38104  0.52848  1.0000
  H   H550      1.0  0.84791  0.01982  0.51864  1.0000
  H   H551      1.0  0.60151  0.02381  0.37366  1.0000
  H   H552      1.0  0.59622  0.01712  0.30645  1.0000
  C   C696      1.0  0.86854  0.00883  0.43321  1.0000
  C   C697      1.0  0.68280  0.07036  0.45802  1.0000
  C   C698      1.0  0.75241  0.05188  0.44050  1.0000
  H   H553      1.0  0.64770  0.06804  0.45909  1.0000
  C   C699      1.0  0.59133  0.00085  0.36223  1.0000
  H   H554      1.0  0.88069  0.48204  0.46145  1.0000
  C   C700      1.0  0.54722  0.99982  0.35774  1.0000
  P   P24       1.0  0.99218  0.00451  0.31580  1.0000
  C   C701      1.0  0.98157  0.15619  0.30672  1.0000
  C   C702      1.0  0.99365  0.99968  0.35766  1.0000
  H   H555      1.0  0.95999  0.48899  0.45803  1.0000
  C   C703      1.0  0.50270  0.30855  0.85518  1.0000
  H   H556      1.0  0.90693  0.37698  0.65428  1.0000
  H   H557      1.0  0.51369  0.25406  0.87427  1.0000
  H   H558      1.0  0.53563  0.31903  0.85642  1.0000
  S   S94       1.0  0.54446  0.39975  0.87987  1.0000
  H   H559      1.0  0.56358  0.45543  0.91505  1.0000
  H   H560      1.0  0.55406  0.00320  0.95914  1.0000
  H   H561      1.0  0.51301  0.11526  0.89481  1.0000
  C   C704      1.0  0.88473  0.46595  0.69685  1.0000
  C   C705      1.0  0.56730  0.46202  0.81699  1.0000
  C   C706      1.0  0.88614  0.39024  0.68522  1.0000
  C   C707      1.0  0.53048  0.48601  0.82547  1.0000
  C   C708      1.0  0.77016  0.48584  0.63962  1.0000
  C   C709      1.0  0.57875  0.44377  0.88340  1.0000
  C   C710      1.0  0.60300  0.45761  0.86679  1.0000
  C   C711      1.0  0.90738  0.44545  0.66237  1.0000
  C   C712      1.0  0.50576  0.19939  0.95246  1.0000
  C   C713      1.0  0.90082  0.40182  0.66618  1.0000
  H   H562      1.0  0.88077  0.35642  0.68804  1.0000
  H   H563      1.0  0.54102  0.43530  0.96157  1.0000
  H   H564      1.0  0.56795  0.42671  0.81584  1.0000
  H   H565      1.0  0.91887  0.45351  0.64748  1.0000
  C   C714      1.0  0.58142  0.46603  0.90202  1.0000
  C   C715      1.0  0.87823  0.42229  0.70058  1.0000
  H   H566      1.0  0.86676  0.41330  0.71535  1.0000
  C   C716      1.0  0.60375  0.48347  0.81053  1.0000
  H   H567      1.0  0.77688  0.47298  0.65422  1.0000
  C   C717      1.0  0.89881  0.47797  0.67763  1.0000
  S   S95       1.0  0.50520  0.31848  0.92201  1.0000
  H   H568      1.0  0.60214  0.43987  0.85253  1.0000
  H   H569      1.0  0.50263  0.46890  0.83059  1.0000
  H   H570      1.0  0.53212  0.19618  0.94115  1.0000
  H   H571      1.0  0.98212  0.34075  0.65575  1.0000
  H   H572      1.0  0.97565  0.48799  0.69598  1.0000
  H   H573      1.0  0.63263  0.46491  0.80427  1.0000
  H   H574      1.0  0.51422  0.26728  0.95945  1.0000
  H   H575      1.0  0.95228  0.27778  0.63743  1.0000
  H   H576      1.0  0.65178  0.69427  0.97288  1.0000
  H   H577      1.0  0.54379  0.95870  0.18367  1.0000
  C   C718      1.0  0.55534  0.93982  0.97216  1.0000
  C   C719      1.0  0.62889  0.80507  0.28469  1.0000
  C   C720      1.0  0.56391  0.93373  0.04035  1.0000
  C   C721      1.0  0.63339  0.72531  0.97595  1.0000
  C   C722      1.0  0.57488  0.88276  0.01152  1.0000
  C   C723      1.0  0.54829  0.91409  0.02295  1.0000
  H   H578      1.0  0.54316  0.95776  0.04912  1.0000
  H   H579      1.0  0.62508  0.93308  0.28344  1.0000
  H   H580      1.0  0.65606  0.98339  0.25942  1.0000
  C   C724      1.0  0.55951  0.54671  0.98818  1.0000
  C   C725      1.0  0.51098  0.96604  0.19003  1.0000
  H   H581      1.0  0.56643  0.57770  0.99522  1.0000
  H   H582      1.0  0.54905  0.95364  0.98722  1.0000
  H   H583      1.0  0.66532  0.88192  0.04022  1.0000
  H   H584      1.0  0.64194  0.79186  0.27023  1.0000
  C   C726      1.0  0.61738  0.87156  0.01779  1.0000
  C   C727      1.0  0.52783  0.54449  0.97343  1.0000
  C   C728      1.0  0.63271  0.89100  0.03532  1.0000
  C   C729      1.0  0.60594  0.92201  0.04663  1.0000
  C   C730      1.0  0.58563  0.80575  0.98367  1.0000
  C   C731      1.0  0.67188  0.97738  0.27349  1.0000
  S   S96       1.0  0.54458  0.95996  0.13663  1.0000
  C   C732      1.0  0.62384  0.80324  0.97132  1.0000
  P   P25       1.0  0.55482  0.85742  0.98895  1.0000
  H   H585      1.0  0.51539  0.92339  0.01848  1.0000
  H   H586      1.0  0.67167  0.85755  0.28544  1.0000
  C   C733      1.0  0.59624  0.72777  0.98878  1.0000
  H   H587      1.0  0.63876  0.84777  0.00925  1.0000
  H   H588      1.0  0.58594  0.69873  0.99586  1.0000
  S   S97       1.0  0.50417  0.90501  0.08404  1.0000
  C   C734      1.0  0.65458  0.94876  0.28709  1.0000
  H   H589      1.0  0.50142  0.83810  0.02484  1.0000
  C   C735      1.0  0.49787  0.84683  0.99264  1.0000
  H   H590      1.0  0.60616  0.51029  0.00577  1.0000
  C   C736      1.0  0.58256  0.50863  0.99403  1.0000
  H   H591      1.0  0.61761  0.93685  0.06031  1.0000
  C   C737      1.0  0.59611  0.78416  0.29487  1.0000
  C   C738      1.0  0.64532  0.84263  0.29328  1.0000
  H   H592      1.0  0.58356  0.75493  0.28825  1.0000
  H   H593      1.0  0.54439  0.76918  0.00293  1.0000
  C   C739      1.0  0.57253  0.76782  0.99267  1.0000
  H   H594      1.0  0.92492  0.98402  0.28713  1.0000
  H   H595      1.0  0.89361  0.94791  0.41895  1.0000
  S   S98       1.0  0.94124  0.93694  0.56067  1.0000
  Fe  Fe50      1.0  0.84994  0.92328  0.60089  1.0000
  S   S99       1.0  0.87446  0.86933  0.57926  1.0000
  Fe  Fe51      1.0  0.96131  0.87449  0.41976  1.0000
  H   H596      1.0  0.70695  0.88548  0.56951  1.0000
  H   H597      1.0  0.93824  0.64236  0.59678  1.0000
  Fe  Fe52      1.0  0.87265  0.91991  0.55583  1.0000
  S   S100      1.0  0.84590  0.90217  0.52545  1.0000
  S   S101      1.0  0.91783  0.94182  0.60904  1.0000
  H   H598      1.0  0.53307  0.75132  0.55761  1.0000
  H   H599      1.0  0.70940  0.86412  0.38927  1.0000
  H   H600      1.0  0.87515  0.55839  0.51691  1.0000
  H   H601      1.0  0.76235  0.61608  0.56964  1.0000
  S   S102      1.0  0.69368  0.73646  0.62073  1.0000
  C   C740      1.0  0.76430  0.96144  0.39359  1.0000
  C   C741      1.0  0.94873  0.92809  0.32075  1.0000
  C   C742      1.0  0.61588  0.72939  0.50841  1.0000
  C   C743      1.0  0.76482  0.85066  0.34416  1.0000
  H   H602      1.0  0.59371  0.77443  0.48618  1.0000
  S   S103      1.0  0.90403  0.83614  0.41191  1.0000
  C   C744      1.0  0.81952  0.93282  0.36868  1.0000
  C   C745      1.0  0.59082  0.80476  0.51597  1.0000
  H   H603      1.0  0.77896  0.69130  0.56071  1.0000
  Fe  Fe53      1.0  0.91161  0.86400  0.38127  1.0000
  S   S104      1.0  0.86225  0.89451  0.36042  1.0000
  C   C746      1.0  0.95037  0.58299  0.40587  1.0000
  C   C747      1.0  0.74701  0.74094  0.51239  1.0000
  C   C748      1.0  0.80188  0.96189  0.35481  1.0000
  C   C749      1.0  0.82475  0.74393  0.50431  1.0000
  H   H604      1.0  0.81451  0.91073  0.39899  1.0000
  C   C750      1.0  0.87298  0.51939  0.48946  1.0000
  S   S105      1.0  0.96893  0.91678  0.44778  1.0000
  H   H605      1.0  0.83969  0.67720  0.53236  1.0000
  H   H606      1.0  0.78959  0.68498  0.50332  1.0000
  C   C751      1.0  0.79128  0.63708  0.61862  1.0000
  C   C752      1.0  0.64141  0.85588  0.60813  1.0000
  H   H607      1.0  0.68180  0.90992  0.60406  1.0000
  C   C753      1.0  0.56569  0.94263  0.33223  1.0000
  C   C754      1.0  0.93557  0.78087  0.50092  1.0000
  C   C755      1.0  0.96502  0.61105  0.37303  1.0000
  H   H608      1.0  0.83209  0.55513  0.60884  1.0000
  C   C756      1.0  0.82710  0.66734  0.44391  1.0000
  H   H609      1.0  0.84225  0.60480  0.42866  1.0000
  P   P26       1.0  0.89307  0.71724  0.61821  1.0000
  C   C757      1.0  0.73008  0.53701  0.61909  1.0000
  H   H610      1.0  0.70577  0.56380  0.61774  1.0000
  C   C758      1.0  0.87993  0.90674  0.50381  1.0000
  C   C759      1.0  0.86755  0.88944  0.48517  1.0000
  C   C760      1.0  0.89459  0.89210  0.46782  1.0000
  C   C761      1.0  0.62350  0.72359  0.52881  1.0000
  C   C762      1.0  0.69367  0.63287  0.57506  1.0000
  C   C763      1.0  0.91903  0.92750  0.50489  1.0000
  H   H611      1.0  0.83712  0.87376  0.48413  1.0000
  H   H612      1.0  0.88509  0.87824  0.45358  1.0000
  C   C764      1.0  0.74333  0.78612  0.51603  1.0000
  H   H613      1.0  0.77738  0.84536  0.51662  1.0000
  C   C765      1.0  0.76868  0.86178  0.62370  1.0000
  C   C766      1.0  0.59973  0.77000  0.50198  1.0000
  C   C767      1.0  0.82072  0.78931  0.50800  1.0000
  C   C768      1.0  0.72261  0.78456  0.62281  1.0000
  C   C769      1.0  0.74717  0.79644  0.60596  1.0000
  C   C770      1.0  0.77074  0.83422  0.60647  1.0000
  C   C771      1.0  0.94160  0.53849  0.61316  1.0000
  C   C772      1.0  0.59652  0.83801  0.32239  1.0000
  H   H614      1.0  0.74766  0.77644  0.59231  1.0000
  H   H615      1.0  0.78946  0.84267  0.59333  1.0000
  C   C773      1.0  0.86317  0.55083  0.61595  1.0000
  C   C774      1.0  0.78746  0.71994  0.50645  1.0000
  C   C775      1.0  0.84612  0.74618  0.58572  1.0000
  C   C776      1.0  0.60993  0.94253  0.33714  1.0000
  S   S106      1.0  0.99312  0.83305  0.58484  1.0000
  H   H616      1.0  0.80574  0.67924  0.43235  1.0000
  C   C777      1.0  0.71563  0.86481  0.37316  1.0000
  C   C778      1.0  0.84762  0.62541  0.44183  1.0000
  H   H617      1.0  0.96462  0.78618  0.44401  1.0000
  C   C779      1.0  0.59831  0.79904  0.53638  1.0000
  H   H618      1.0  0.71188  0.80261  0.52021  1.0000
  H   H619      1.0  0.63550  0.69174  0.53354  1.0000
  H   H620      1.0  0.96631  0.68143  0.37167  1.0000
  H   H621      1.0  0.94764  0.79051  0.62233  1.0000
  C   C780      1.0  0.82542  0.66146  0.61193  1.0000
  H   H622      1.0  0.72014  0.74966  0.56080  1.0000
  C   C781      1.0  0.73647  0.64189  0.56973  1.0000
  C   C782      1.0  0.86437  0.67979  0.47515  1.0000
  C   C783      1.0  0.66006  0.66598  0.57523  1.0000
  H   H623      1.0  0.80938  0.77572  0.56209  1.0000
  C   C784      1.0  0.95668  0.78465  0.45993  1.0000
  H   H624      1.0  0.81999  0.72729  0.46162  1.0000
  H   H625      1.0  0.97196  0.60541  0.35706  1.0000
  C   C785      1.0  0.74578  0.68414  0.56468  1.0000
  H   H626      1.0  0.55523  0.92123  0.32030  1.0000
  Fe  Fe54      1.0  0.94151  0.88989  0.58571  1.0000
  C   C786      1.0  0.88767  0.73389  0.59264  1.0000
  C   C787      1.0  0.92481  0.74109  0.58065  1.0000
  H   H627      1.0  0.79677  0.83917  0.33789  1.0000
  C   C788      1.0  0.83529  0.69443  0.46053  1.0000
  C   C789      1.0  0.78018  0.81022  0.51390  1.0000
  H   H628      1.0  0.83030  0.66515  0.59596  1.0000
  H   H629      1.0  0.71842  0.72226  0.51392  1.0000
  H   H630      1.0  0.92857  0.94153  0.51903  1.0000
  C   C790      1.0  0.98394  0.85512  0.31756  1.0000
  H   H631      1.0  0.98264  0.82022  0.31910  1.0000
  H   H632      1.0  0.84854  0.80891  0.50623  1.0000
  H   H633      1.0  0.68232  0.81729  0.55434  1.0000
  C   C791      1.0  0.93374  0.91285  0.46899  1.0000
  H   H634      1.0  0.81748  0.74324  0.59531  1.0000
  H   H635      1.0  0.95736  0.73479  0.58620  1.0000
  C   C792      1.0  0.90062  0.68556  0.51595  1.0000
  H   H636      1.0  0.60667  0.79797  0.60881  1.0000
  C   C793      1.0  0.88508  0.63775  0.47289  1.0000
  C   C794      1.0  0.61531  0.75856  0.54290  1.0000
  H   H637      1.0  0.74568  0.53059  0.58718  1.0000
  H   H638      1.0  0.54206  0.69194  0.62589  1.0000
  H   H639      1.0  0.59064  0.82614  0.54708  1.0000
  C   C795      1.0  0.71225  0.71736  0.56493  1.0000
  C   C796      1.0  0.66917  0.70884  0.57055  1.0000
  H   H640      1.0  0.74938  0.96075  0.40852  1.0000
  C   C797      1.0  0.95923  0.57514  0.38524  1.0000
  C   C798      1.0  0.58014  0.80047  0.31377  1.0000
  S   S107      1.0  0.79721  0.91036  0.62464  1.0000
  C   C799      1.0  0.68348  0.88241  0.36077  1.0000
  C   C800      1.0  0.75626  0.84894  0.36485  1.0000
  C   C801      1.0  0.62261  0.97261  0.35185  1.0000
  C   C802      1.0  0.73287  0.86842  0.33173  1.0000
  Fe  Fe55      1.0  0.91186  0.98825  0.58325  1.0000
  C   C803      1.0  0.97661  0.81145  0.47378  1.0000
  C   C804      1.0  0.87643  0.61061  0.45634  1.0000
  C   C805      1.0  0.84148  0.76457  0.56694  1.0000
  S   S108      1.0  0.96320  0.52146  0.37391  1.0000
  H   H641      1.0  0.63129  0.86610  0.62343  1.0000
  C   C806      1.0  0.80118  0.93318  0.38824  1.0000
  P   P27       1.0  0.87635  0.71623  0.49588  1.0000
  H   H642      1.0  0.89993  0.54487  0.58781  1.0000
  H   H643      1.0  0.58465  0.84958  0.33728  1.0000
  C   C807      1.0  0.96320  0.52900  0.48549  1.0000
  H   H644      1.0  0.90856  0.62622  0.48357  1.0000
  H   H645      1.0  0.87401  0.63640  0.55953  1.0000
  P   P28       1.0  0.65099  0.90700  0.32367  1.0000
  C   C808      1.0  0.64236  0.80214  0.58028  1.0000
  H   H646      1.0  0.94003  0.63206  0.42988  1.0000
  H   H647      1.0  0.68643  0.60017  0.57916  1.0000
  C   C809      1.0  0.94562  0.93090  0.48752  1.0000
  C   C810      1.0  0.95914  0.65288  0.60857  1.0000
  H   H648      1.0  0.87483  0.78938  0.54144  1.0000
  H   H649      1.0  0.95450  0.62103  0.55914  1.0000
  C   C811      1.0  0.87473  0.67068  0.53178  1.0000
  H   H650      1.0  0.76961  0.62296  0.60804  1.0000
  C   C812      1.0  0.69218  0.88503  0.33999  1.0000
  H   H651      1.0  0.89333  0.57869  0.45422  1.0000
  C   C813      1.0  0.94612  0.67649  0.51586  1.0000
  H   H652      1.0  0.94903  0.76794  0.55336  1.0000
  C   C814      1.0  0.91513  0.75393  0.48707  1.0000
  H   H653      1.0  0.55537  0.78373  0.32186  1.0000
  C   C815      1.0  0.89414  0.64751  0.54729  1.0000
  H   H654      1.0  0.99151  0.49135  0.51975  1.0000
  H   H655      1.0  0.78167  0.83634  0.37449  1.0000
  C   C816      1.0  0.67052  0.82764  0.56933  1.0000
  C   C817      1.0  0.94713  0.62619  0.41404  1.0000
  S   S109      1.0  0.84242  0.97334  0.57685  1.0000
  H   H656      1.0  0.65213  0.89414  0.36751  1.0000
  H   H657      1.0  0.96665  0.68733  0.50377  1.0000
  C   C818      1.0  0.54036  0.70513  0.61100  1.0000
  H   H658      1.0  0.83830  0.51488  0.49106  1.0000
  H   H659      1.0  0.92803  0.77983  0.51682  1.0000
  P   P29       1.0  0.62548  0.75130  0.56921  1.0000
  C   C819      1.0  0.85212  0.68115  0.62592  1.0000
  S   S110      1.0  0.94757  0.71560  0.41337  1.0000
  C   C820      1.0  0.68421  0.86661  0.57777  1.0000
  H   H660      1.0  0.91976  0.94889  0.32497  1.0000
  H   H661      1.0  0.60865  0.71612  0.60901  1.0000
  C   C821      1.0  0.88284  0.98168  0.41668  1.0000
  S   S111      1.0  0.95784  0.80843  0.36920  1.0000
  C   C822      1.0  0.66983  0.88061  0.59721  1.0000
  C   C823      1.0  0.57799  0.71885  0.60137  1.0000
  C   C824      1.0  0.57617  0.73543  0.58197  1.0000
  H   H662      1.0  0.62217  0.70227  0.49760  1.0000
  C   C825      1.0  0.62824  0.86016  0.31191  1.0000
  H   H663      1.0  0.62712  0.65775  0.57901  1.0000
  C   C826      1.0  0.62763  0.81690  0.59973  1.0000
  Fe  Fe56      1.0  0.95519  0.78344  0.40070  1.0000
  C   C827      1.0  0.71168  0.96387  0.31021  1.0000
  H   H664      1.0  0.97574  0.94721  0.48849  1.0000
  H   H665      1.0  0.95432  0.56820  0.51316  1.0000
  C   C828      1.0  0.94555  0.68870  0.62149  1.0000
  C   C829      1.0  0.93948  0.63896  0.54712  1.0000
  C   C830      1.0  0.98827  0.94595  0.31522  1.0000
  C   C831      1.0  0.92597  0.75617  0.46646  1.0000
  C   C832      1.0  0.90152  0.54532  0.60406  1.0000
  C   C833      1.0  0.92019  0.75998  0.56194  1.0000
  C   C834      1.0  0.95272  0.66208  0.40187  1.0000
  H   H666      1.0  0.98042  0.83148  0.50497  1.0000
  H   H667      1.0  0.94587  0.55583  0.41547  1.0000
  H   H668      1.0  0.91127  0.73603  0.45522  1.0000
  C   C835      1.0  0.87853  0.77189  0.55516  1.0000
  C   C836      1.0  0.91862  0.79801  0.63175  1.0000
  H   H669      1.0  0.81587  0.96165  0.33966  1.0000
  H   H670      1.0  0.89279  0.97632  0.38446  1.0000
  C   C837      1.0  0.93859  0.54912  0.50185  1.0000
  C   C838      1.0  0.96587  0.80975  0.49428  1.0000
  H   H671      1.0  0.97132  0.53280  0.60398  1.0000
  C   C839      1.0  0.96546  0.65348  0.53142  1.0000
  H   H672      1.0  0.91621  0.86922  0.32610  1.0000
  H   H673      1.0  0.72684  0.95996  0.32457  1.0000
  C   C840      1.0  0.75263  0.51808  0.60182  1.0000
  C   C841      1.0  0.53578  0.73858  0.57250  1.0000
  C   C842      1.0  0.96183  0.65426  0.38127  1.0000
  H   H674      1.0  0.65678  0.97437  0.35529  1.0000
  C   C843      1.0  0.53443  0.97090  0.34266  1.0000
  H   H675      1.0  0.57783  0.83612  0.51101  1.0000
  C   C844      1.0  0.50052  0.70788  0.60138  1.0000
  H   H676      1.0  0.74016  0.86960  0.31573  1.0000
  C   C845      1.0  0.94656  0.88285  0.32161  1.0000
  C   C846      1.0  0.94207  0.50473  0.47090  1.0000
  S   S112      1.0  0.96475  0.90656  0.39008  1.0000
  H   H677      1.0  0.97239  0.97304  0.35617  1.0000
  H   H678      1.0  0.97968  0.59689  0.45600  1.0000
  C   C847      1.0  0.89701  0.50045  0.47283  1.0000
  C   C848      1.0  0.88611  0.76809  0.63280  1.0000
  C   C849      1.0  0.89376  0.54382  0.50397  1.0000
  C   C850      1.0  0.94326  0.53701  0.63410  1.0000
  C   C851      1.0  0.67478  0.94138  0.30544  1.0000
  C   C852      1.0  0.49817  0.72480  0.58219  1.0000
  H   H679      1.0  0.50022  0.97058  0.33906  1.0000
  H   H680      1.0  0.98643  0.67536  0.45034  1.0000
  Fe  Fe57      1.0  0.69571  0.59981  0.86540  1.0000
  S   S113      1.0  0.65489  0.63167  0.84183  1.0000
  S   S114      1.0  0.66285  0.56238  0.89014  1.0000
  Fe  Fe58      1.0  0.77968  0.64402  0.85193  1.0000
  S   S115      1.0  0.74375  0.67846  0.82747  1.0000
  S   S116      1.0  0.84859  0.66662  0.85739  1.0000
  Fe  Fe59      1.0  0.68821  0.69241  0.85011  1.0000
  S   S117      1.0  0.65417  0.76037  0.85089  1.0000
  Fe  Fe60      1.0  0.71377  0.61514  0.82132  1.0000
  S   S118      1.0  0.70636  0.58622  0.78993  1.0000
  S   S119      1.0  0.72538  0.66240  0.87513  1.0000
  S   S120      1.0  0.75311  0.57869  0.84428  1.0000
  C   C853      1.0  0.56608  0.55311  0.82036  1.0000
  H   H681      1.0  0.75859  0.61150  0.64417  1.0000
  C   C854      1.0  0.84656  0.67293  0.64644  1.0000
  S   S121      1.0  0.50364  0.81697  0.91607  1.0000
  S   S122      1.0  0.65241  0.71481  0.72093  1.0000
  C   C855      1.0  0.69315  0.62239  0.77067  1.0000
  C   C856      1.0  0.69091  0.66764  0.77422  1.0000
  C   C857      1.0  0.67870  0.69569  0.75883  1.0000
  C   C858      1.0  0.66912  0.67873  0.73971  1.0000
  C   C859      1.0  0.67301  0.63354  0.73593  1.0000
  C   C860      1.0  0.68488  0.60547  0.75138  1.0000
  H   H682      1.0  0.69816  0.68105  0.78889  1.0000
  H   H683      1.0  0.67665  0.73064  0.76177  1.0000
  H   H684      1.0  0.66620  0.62010  0.72119  1.0000
  H   H685      1.0  0.68702  0.57050  0.74846  1.0000
  C   C861      1.0  0.90369  0.64515  0.85280  1.0000
  C   C862      1.0  0.93799  0.67160  0.85765  1.0000
  C   C863      1.0  0.81267  0.64817  0.65300  1.0000
  H   H686      1.0  0.50002  0.63518  0.74990  1.0000
  C   C864      1.0  0.95849  0.58768  0.84140  1.0000
  C   C865      1.0  0.91425  0.60313  0.84446  1.0000
  H   H687      1.0  0.93030  0.70414  0.86411  1.0000
  H   H688      1.0  0.86756  0.68683  0.65741  1.0000
  H   H689      1.0  0.96625  0.55484  0.83533  1.0000
  H   H690      1.0  0.88836  0.58229  0.84072  1.0000
  C   C866      1.0  0.59127  0.81756  0.86889  1.0000
  C   C867      1.0  0.61328  0.77610  0.86945  1.0000
  C   C868      1.0  0.60194  0.74798  0.88453  1.0000
  C   C869      1.0  0.54648  0.76936  0.82343  1.0000
  C   C870      1.0  0.57651  0.73415  0.81845  1.0000
  H   H691      1.0  0.61934  0.71631  0.88524  1.0000
  C   C871      1.0  0.58532  0.65645  0.93112  1.0000
  C   C872      1.0  0.52450  0.62785  0.85507  1.0000
  H   H692      1.0  0.97774  0.76274  0.77055  1.0000
  H   H693      1.0  0.88687  0.54847  0.73438  1.0000
  Fe  Fe61      1.0  0.57717  0.65462  0.65906  1.0000
  C   C873      1.0  0.59458  0.72863  0.79894  1.0000
  C   C874      1.0  0.55821  0.96821  0.95624  1.0000
  H   H694      1.0  0.61801  0.70141  0.79527  1.0000
  C   C875      1.0  0.91495  0.55017  0.78343  1.0000
  C   C876      1.0  0.94553  0.77975  0.77130  1.0000
  H   H695      1.0  0.80724  0.64312  0.66886  1.0000
  C   C877      1.0  0.89951  0.84616  0.77781  1.0000
  C   C878      1.0  0.86247  0.82370  0.77343  1.0000
  C   C879      1.0  0.86674  0.77892  0.76819  1.0000
  C   C880      1.0  0.90859  0.75719  0.76698  1.0000
  P   P30       1.0  0.81944  0.74963  0.76206  1.0000
  C   C881      1.0  0.77026  0.77768  0.77323  1.0000
  C   C882      1.0  0.81437  0.74484  0.73503  1.0000
  C   C883      1.0  0.77436  0.73449  0.72703  1.0000
  C   C884      1.0  0.76931  0.73212  0.70625  1.0000
  C   C885      1.0  0.84945  0.75263  0.72178  1.0000
  C   C886      1.0  0.74517  0.80793  0.76226  1.0000
  C   C887      1.0  0.70560  0.82719  0.77046  1.0000
  C   C888      1.0  0.69113  0.81695  0.78976  1.0000
  C   C889      1.0  0.71655  0.78800  0.80098  1.0000
  C   C890      1.0  0.75601  0.76863  0.79283  1.0000
  C   C891      1.0  0.82463  0.69637  0.77282  1.0000
  C   C892      1.0  0.84616  0.69074  0.79100  1.0000
  C   C893      1.0  0.84683  0.65066  0.80030  1.0000
  C   C894      1.0  0.82584  0.61601  0.79168  1.0000
  C   C895      1.0  0.80530  0.62097  0.77339  1.0000
  C   C896      1.0  0.80418  0.66110  0.76411  1.0000
  H   H696      1.0  0.95656  0.71520  0.70730  1.0000
  C   C897      1.0  0.53320  0.79864  0.80876  1.0000
  H   H697      1.0  0.81984  0.75935  0.64365  1.0000
  H   H698      1.0  0.83065  0.84130  0.77429  1.0000
  H   H699      1.0  0.91259  0.72271  0.76289  1.0000
  H   H700      1.0  0.74661  0.72896  0.73684  1.0000
  H   H701      1.0  0.73790  0.72499  0.70035  1.0000
  H   H702      1.0  0.88050  0.76139  0.72744  1.0000
  H   H703      1.0  0.75569  0.81622  0.74726  1.0000
  H   H704      1.0  0.68593  0.84968  0.76173  1.0000
  H   H705      1.0  0.66030  0.83136  0.79609  1.0000
  H   H706      1.0  0.70554  0.78021  0.81601  1.0000
  H   H707      1.0  0.77498  0.74635  0.80186  1.0000
  H   H708      1.0  0.86079  0.71771  0.79856  1.0000
  H   H709      1.0  0.86219  0.64696  0.81463  1.0000
  H   H710      1.0  0.82460  0.58561  0.79941  1.0000
  H   H711      1.0  0.78834  0.59423  0.76692  1.0000
  H   H712      1.0  0.78564  0.66475  0.75070  1.0000
  Fe  Fe62      1.0  0.65958  0.70029  0.64547  1.0000
  H   H713      1.0  0.60428  0.64371  0.89986  1.0000
  H   H714      1.0  0.53302  0.67086  0.77921  1.0000
  C   C898      1.0  0.90477  0.55619  0.74766  1.0000
  H   H715      1.0  0.60850  0.68125  0.93323  1.0000
  H   H716      1.0  0.95732  0.61072  0.66658  1.0000
  P   P31       1.0  0.90707  0.53454  0.67302  1.0000
  H   H717      1.0  0.56606  0.58834  0.82095  1.0000
  C   C899      1.0  0.60308  0.52897  0.81218  1.0000
  C   C900      1.0  0.94098  0.82419  0.77679  1.0000
  C   C901      1.0  0.58266  0.63565  0.91221  1.0000
  H   H718      1.0  0.81270  0.52531  0.67787  1.0000
  C   C902      1.0  0.55925  0.64422  0.94734  1.0000
  H   H719      1.0  0.63131  0.54556  0.80704  1.0000
  H   H720      1.0  0.64637  0.50469  0.85546  1.0000
  C   C903      1.0  0.52966  0.61166  0.94461  1.0000
  C   C904      1.0  0.95074  0.57594  0.78210  1.0000
  C   C905      1.0  0.82065  0.55407  0.68657  1.0000
  C   C906      1.0  0.51412  0.95087  0.85021  1.0000
  H   H721      1.0  0.93819  0.86143  0.64124  1.0000
  C   C907      1.0  0.55293  0.79390  0.78934  1.0000
  C   C908      1.0  0.56892  0.90642  0.93263  1.0000
  H   H722      1.0  0.56703  0.84320  0.94502  1.0000
  H   H723      1.0  0.84614  0.65616  0.71894  1.0000
  C   C909      1.0  0.52832  0.67030  0.86269  1.0000
  H   H724      1.0  0.90515  0.53787  0.79787  1.0000
  H   H725      1.0  0.60966  0.51878  0.91832  1.0000
  C   C910      1.0  0.78723  0.57765  0.69788  1.0000
  C   C911      1.0  0.86456  0.54876  0.63690  1.0000
  H   H726      1.0  0.70116  0.80359  0.65317  1.0000
  H   H727      1.0  0.90540  0.61524  0.69907  1.0000
  C   C912      1.0  0.96042  0.54848  0.68100  1.0000
  H   H728      1.0  0.86360  0.52107  0.76740  1.0000
  H   H729      1.0  0.96962  0.84158  0.78028  1.0000
  H   H730      1.0  0.95195  0.59122  0.73153  1.0000
  C   C913      1.0  0.52746  0.59071  0.92558  1.0000
  H   H731      1.0  0.55511  0.67722  0.87227  1.0000
  S   S123      1.0  0.61384  0.62081  0.68366  1.0000
  H   H732      1.0  0.55313  0.58545  0.89501  1.0000
  C   C914      1.0  0.97490  0.67738  0.79401  1.0000
  C   C915      1.0  0.86368  0.56733  0.68663  1.0000
  H   H733      1.0  0.96863  0.58264  0.79557  1.0000
  H   H734      1.0  0.74044  0.87222  0.65374  1.0000
  Fe  Fe63      1.0  0.64183  0.68527  0.68984  1.0000
  C   C916      1.0  0.96353  0.59256  0.76356  1.0000
  C   C917      1.0  0.72059  0.81188  0.64016  1.0000
  H   H735      1.0  0.87111  0.75684  0.69072  1.0000
  H   H736      1.0  0.97453  0.53007  0.64075  1.0000
  C   C918      1.0  0.55939  0.95315  0.84832  1.0000
  C   C919      1.0  0.80419  0.73980  0.69318  1.0000
  C   C920      1.0  0.84432  0.75004  0.70091  1.0000
  H   H737      1.0  0.53437  0.77400  0.83881  1.0000
  C   C921      1.0  0.98027  0.67370  0.73068  1.0000
  C   C922      1.0  0.54589  0.80231  0.89803  1.0000
  H   H738      1.0  0.79962  0.73837  0.67710  1.0000
  H   H739      1.0  0.89604  0.88064  0.78207  1.0000
  C   C923      1.0  0.56825  0.76104  0.89875  1.0000
  C   C924      1.0  0.56567  0.87797  0.94849  1.0000
  H   H740      1.0  0.94810  0.67165  0.73760  1.0000
  H   H741      1.0  0.55950  0.73911  0.91036  1.0000
  H   H742      1.0  0.54121  0.86291  0.88268  1.0000
  C   C925      1.0  0.87544  0.84871  0.65425  1.0000
  C   C926      1.0  0.84724  0.77979  0.64400  1.0000
  H   H743      1.0  0.54820  0.60216  0.85916  1.0000
  S   S124      1.0  0.63158  0.63677  0.63579  1.0000
  C   C927      1.0  0.55371  0.60285  0.90945  1.0000
  C   C928      1.0  0.90471  0.54199  0.64619  1.0000
  C   C929      1.0  0.58434  0.92245  0.83602  1.0000
  H   H744      1.0  0.94409  0.66336  0.79138  1.0000
  C   C930      1.0  0.51863  0.88634  0.82772  1.0000
  C   C931      1.0  0.52977  0.53171  0.82741  1.0000
  C   C932      1.0  0.87264  0.60446  0.69839  1.0000
  H   H745      1.0  0.57303  0.89337  0.91728  1.0000
  H   H746      1.0  0.87073  0.88035  0.66205  1.0000
  C   C933      1.0  0.97681  0.58807  0.67532  1.0000
  H   H747      1.0  0.94813  0.71748  0.81930  1.0000
  H   H748      1.0  0.60043  0.83959  0.85742  1.0000
  C   C934      1.0  0.55775  0.83075  0.88316  1.0000
  H   H749      1.0  0.58682  0.71181  0.82992  1.0000
  H   H750      1.0  0.75404  0.56733  0.69760  1.0000
  H   H751      1.0  0.58419  0.86548  0.81649  1.0000
  C   C935      1.0  0.94110  0.58134  0.74621  1.0000
  H   H752      1.0  0.59776  0.75467  0.76932  1.0000
  H   H753      1.0  0.63572  0.83225  0.96484  1.0000
  H   H754      1.0  0.81263  0.82838  0.66380  1.0000
  S   S125      1.0  0.71201  0.54417  0.66028  1.0000
  C   C936      1.0  0.56408  0.88922  0.82569  1.0000
  S   S126      1.0  0.60212  0.72074  0.66663  1.0000
  C   C937      1.0  0.83908  0.62780  0.70979  1.0000
  S   S127      1.0  0.70036  0.66997  0.66924  1.0000
  C   C938      1.0  0.60754  0.50201  0.90383  1.0000
  C   C939      1.0  0.89171  0.54060  0.76626  1.0000
  H   H755      1.0  0.77005  0.63271  0.71804  1.0000
  C   C940      1.0  0.79635  0.61451  0.70945  1.0000
  H   H756      1.0  0.96285  0.72800  0.64748  1.0000
  H   H757      1.0  0.83414  0.55116  0.64562  1.0000
  Fe  Fe64      1.0  0.66948  0.60789  0.66090  1.0000
  C   C941      1.0  0.98221  0.65625  0.85448  1.0000
  S   S128      1.0  0.50730  0.63265  0.65555  1.0000
  C   C942      1.0  0.58309  0.75866  0.78441  1.0000
  H   H758      1.0  0.52006  0.50614  0.86713  1.0000
  C   C943      1.0  0.84259  0.81938  0.65516  1.0000
  C   C944      1.0  0.63081  0.51658  0.88704  1.0000
  H   H759      1.0  0.67636  0.76125  0.95750  1.0000
  H   H760      1.0  0.50024  0.50197  0.95116  1.0000
  H   H761      1.0  0.54537  0.81733  0.77798  1.0000
  C   C945      1.0  0.97689  0.70856  0.80975  1.0000
  C   C946      1.0  0.64726  0.76306  0.96729  1.0000
  C   C947      1.0  0.91335  0.83811  0.64245  1.0000
  H   H762      1.0  0.61952  0.92399  0.83474  1.0000
  C   C948      1.0  0.98494  0.69861  0.71359  1.0000
  C   C949      1.0  0.78492  0.63055  0.63910  1.0000
  H   H763      1.0  0.56303  0.65947  0.96202  1.0000
  C   C950      1.0  0.52251  0.50426  0.96340  1.0000
  C   C951      1.0  0.56520  0.95153  0.93649  1.0000
  C   C952      1.0  0.99278  0.61399  0.84650  1.0000
  H   H764      1.0  0.56629  0.97356  0.92411  1.0000
  H   H765      1.0  0.50639  0.56413  0.92328  1.0000
  C   C953      1.0  0.98697  0.51914  0.69177  1.0000
  C   C954      1.0  0.97255  0.70090  0.63711  1.0000
  C   C955      1.0  0.49818  0.67599  0.77699  1.0000
  C   C956      1.0  0.74281  0.85079  0.64042  1.0000
  C   C957      1.0  0.73879  0.52091  0.63808  1.0000
  H   H766      1.0  0.57508  0.97861  0.85653  1.0000
  P   P32       1.0  0.49793  0.59333  0.96561  1.0000
  C   C958      1.0  0.55957  0.89436  0.96846  1.0000
  H   H767      1.0  0.49975  0.73611  0.86478  1.0000
  C   C959      1.0  0.49719  0.70350  0.85833  1.0000
  C   C960      1.0  0.62828  0.49423  0.86846  1.0000
  H   H768      1.0  0.87833  0.49033  0.70891  1.0000
