data_image0
_chemical_formula_structural       CHSFeS2FeHCFe2S2FeS3HC2H2CSC6H7CHSC2HC10H3CFe2CHCHC2SC2HCH4C2HCH3C2SHC5SCHC5H3C6PC18H11CH6C3H6CH2CHCH6C2HPC15H5FeH3CHCH2CHCFeC3HC2SCH4CSH3CH2CHSC2HCSH2CHCHC5HSH2C2H2PCHPC3HC3HCSH3FeS2FeSHSCFeSC2SFeSHSFeS2HFeHFeHS2FeC2FeS2CFeS3PC6H3CH4C2H2C7H4C6H10CHSFeC6HC3FeH2C2HCHCHFeHC2HCHC2H3CHCH3C6HCHCH2PC12HC2H6CH6C2H3CHC4HCH2CH2C3PC2HC2HCHPH2CHC2H2C2HCHC2H2C2HCHCHC7PC10HC4HC2H8SHC2H6C2HC2H2C3HC4H2CSC5HC2HC5H2SHCH2SC5H2CHCH2CH4C2H2CHSCH3SFeS2FeCPFeCS2FeS3C4H2C7H4SC3HC3HPCPHC6H3C2H3CHCH2CFeCH2C2HC3HCH2C2H3CHFeC2H2C2HC4SCHC3H2CHC5H6PSCH3C2HC3HCHCHPH2C3HC9HC2H4C2H2CH5C4HCHCSCFeHSH7C2H2CHC3H3CH3C3HC2HC2H2CHCH2C3H2SH3CHC6H4SFeH2C2HC4HCHCHC4HCFeS2FeSHSHFeSH2SFeSFeSFeS2HFeCHCSCFeC2FeS2CFeS3CH2C3HCH2CHCHC3H2SC6H4C6H6C2FeHCH2C4HC2HC3HC2H3C4SC4H3CHCH5CH2C8PCH2C4HC4H3C3H2C2HCH2CH7CHCPHCH2C6H4CH2CHCH2CHC3H2C2H2C2HSC2HCH3C7H2C4HC3PH4CHCH4C3HCH4CH2C2H2C2H2CH4C2HC9H4C2P2CHC2HC3H2CHC4HC3HCH2C4FeCH2CH2CHCSHCH3C2PHC3H2C2HCHC2H2C2SH3SCSFeH2FeS2FeCFeS3H2C2H5CHC3H2C6H5CH2CHCSC2HC6H5CH2C3FeH2C2H2CHC2HCHC2HC2HC10HC3HC2HCPCHCH5C2SCHC3H4C2HCH2CHC4H3CHCSH2C8PCH2C4HC2H12CH2C2SC6HC2HC2HC9PSHCHC2SHC3SCSHCH3CH2CPC3H2CHC2HCH2C3PCH2C4FeH3CPH3FeS2H2C2HFeHCHCFeSHFeS2FeS2FeSFeCSCFeS2FeSFeSCS2C6H3CSH3C6H2CH2CHC3H3CFeCSC5SC4HC6HCH2CSH2C6PC18H20CH4CHCH2CH2CHC2H2CH4PCSH2SC2H3SC5PCH2CH3CH4CHCHCH4CH5C5HSHC3HCFeCHC3H2CH3C13SHCHCH2C3SHC5H2C3HCH3CHCFeH2C3HC4H2CHC4PCH9CH2SHC2HC6H2PHCSCH2SC3HC2FeCSHSHS3FeCHFeS2FeHFeS3CHC2HPHCHCHC3H2C6H4C4HPCHC2HC6SH5C4HCHC2HC3HCHCHCH2SH3CHC2HCHC2HFeCH2C2HC2HCH3CHCHCH2CH2C3HC2HC6HC3H2CHCH2C2HC2HC5H3CHC2HC8PC15H2CH2CH17CHCFeH2CH2CHSHCHPH2C5HC2H2C2H3SCH2C4H4C2SCSC3SHCSC2H3PHCH2CHCH3CHFeSC3HC2FeC4FeSHFeS2FeS2H2C2FeCFeCSFeHFeC2S2C2HC2SPCHC2SC9H2CHC5HC2HC6H2C2H7C3SPHCHSPH4C5H2C3HC3H3CSFeH2C2SHCHC2HC2HCH3C2HCH2SH2C6SCH5CH2CSHSC8H5SFeHC2H3CHCH5CH3C9PC4H2C12H7CH12C5H2SC6HCHCHPHCPCHCHSH3C2HC5HCH3CHC3HCHCSC2HC6H2C2SHCH2CHC2HFeHCH2CH2CHCH2C2HC6HCFeSHFeSH2FeS2CSFeSHFeSFeS2HFeS2HCH2SC2H2CFeS2HFeS2CHC5H2CH3CSHC6H3C7H4C2HCHFeCH2C6H3FeHC6PC3SC4SC8H5C4H13CH3CHCH3FeH2CHSH2C2HCHSC6PC12H6CH6CH2C4H2CH2C5H4CHCHC2H3CH3CPC6HCHC3HC2PHCHC6PH2C7HSH3C3H4C7PC14HC2H6CH11CPC12HC2HFeH6C2H2C2HC2HS2HC5HPHCSHSFe2S2FeCFeS3HCSPSCHCHSHC6H4CHCHC3HC2HC3H2C6H3CH3C2HC3HCSC2HC2HC2H3CH3FeHCH3CH4CHC3H2PCHC15FeC2SCHCH2C4H7PC5HC4H3C2HC3HC6H2C2H5CHC2H2C3HCHC4HC2HCH4CHC2FeCH3CHC2H2CH2CPHCHCHCH2C4HCH4C2HC3HCH2C2HC2HC3HSH4CH2C4H3C2H2FeSC2SCHC4HC3H2C2H3CHC3HCHSFeCHFeCSCFeS2HSFeS2FeHFeSCSFeS2HFeH2SC2H2CFeS2CFeS2CSC5H2CH2C3HSHSCFeH4C7H6CHSHC2HC7HPH3C4H3FeC3PC10HCSH10C7PC18H17C2HSH2SH2C4H5CH2C8PC5HC3HC8HCH7SC2H6CH2C3HCSHCHCHCH2CH2C2H3C3HC2HCFeC3HCS2CPFe2S2CHFePS2FeS2HSC3HPSC6H4CHCHCFeHC2PC12H5C2H2C6PC3H2C9HC2H6C2SH5C2HC9FeCH3FeSHC3H4CH3C2H3CHCHCH2CH2C2H2C5HC3H8C3HCH4CH6C4H2C3H2C3HS2H5C4HC4H4SH2C5H4SHC7H2C4FeSH3CH2CHC4H2CH2C2FeS2C4SHCH2SCFeSHCH2CHFeS2FeS2FeS2Fe2CFeS3C2SC3SCHCH2CHCH2C5HC7H4C6H4CH3CH2PH3C9PC8FeC9H13PH6CFeHCHSC2HC3H3C5SCHCH2CHC2HCSH3SC3H3CHCHCH2C2HCHCHCHCH3C4HC7H2C2H2C3HC2HC4H4C2H3CHC2H2CPCHC4HC4FeSH2CH2C2HCH2CHCHCHCH2PC5H2CH2FeCHC3HC3HC2HCH2C3H10SH2C3SHSH2CSHC2HS2FeS2FeH2FeHFeS3HC4H5CH2C7H5C2H2CH2SHC8H4CH5CHCHCH2CH4CHC2HC2HSCHCHC6PC4HC7H8CH3CH3CHFeC2H2CH2CHC3HC5HFeHC2H2C6PC18H12C2HC3HC4HCSCHCH2C3HCHC2HPHCHFeS2CSHS2CHSHSHFeSFeHPH3FeS2FeS2FeS2Fe2CFeCS2C5HC5FeCHCHC2H4C8H4C6H5CHCHC4HC3HC6PC18H18C6SH2CH2CSCH3C2HC6HCHC2HC3H4C2H2SHC2HC2H3CPHC9H8PCH4CHC3SHC4HC5H8CSHC5H4CHC2HC2HC3H2CHSHCHC4FeCH2FeHC4H2C2H4CHSHC5FeHCHCSCHCHS2FeS2FeCHFeCFeHS2HCHCH3CH2S2H2C6H5SC2H2C2H4C6H4PFeHC3HPC8HC10H2CHCH2C2HCH5C6PC3H3C2HC4SHC3H7CHCH4CHSC2HCHSHCH3C3PC3HC4H4C4HC2H2CHSCH3C2H3CHC3PC13H5CH6C6H3CHC2HC2HCSH3C2H2CHC2HCHC4HSC4H4CSHFeCH2FeCH2C2S
_chemical_formula_sum              "C2400 H1920 S320 Fe160 P80"
_cell_length_a       56.635
_cell_length_b       42.639
_cell_length_c       56.8109
_cell_angle_alpha    89.4367
_cell_angle_beta     90.635
_cell_angle_gamma    90.637

_space_group_name_H-M_alt    "P 1"
_space_group_IT_number       1

loop_
  _space_group_symop_operation_xyz
  'x, y, z'

loop_
  _atom_site_type_symbol
  _atom_site_label
  _atom_site_symmetry_multiplicity
  _atom_site_fract_x
  _atom_site_fract_y
  _atom_site_fract_z
  _atom_site_occupancy
  C   C1        1.0  0.24350  0.29516  0.06006  1.0000
  H   H1        1.0  0.09791  0.29538  0.99756  1.0000
  S   S1        1.0  0.23333  0.27565  0.03413  1.0000
  Fe  Fe1       1.0  0.19271  0.09364  0.28783  1.0000
  S   S2        1.0  0.21912  0.07447  0.26251  1.0000
  S   S3        1.0  0.15904  0.10885  0.26807  1.0000
  Fe  Fe2       1.0  0.22910  0.08903  0.32943  1.0000
  H   H2        1.0  0.12201  0.01705  0.31227  1.0000
  C   C2        1.0  0.13310  0.47423  0.22494  1.0000
  Fe  Fe3       1.0  0.22790  0.03965  0.29097  1.0000
  Fe  Fe4       1.0  0.03304  0.30518  0.09878  1.0000
  S   S4        1.0  0.21905  0.12782  0.30374  1.0000
  S   S5        1.0  0.20009  0.05691  0.31570  1.0000
  Fe  Fe5       1.0  0.02160  0.07918  0.25161  1.0000
  S   S6        1.0  0.02866  0.05549  0.21733  1.0000
  S   S7        1.0  0.04932  0.07596  0.28107  1.0000
  S   S8        1.0  0.07115  0.29261  0.09188  1.0000
  H   H3        1.0  0.16372  0.46213  0.24608  1.0000
  C   C3        1.0  0.00672  0.02674  0.10090  1.0000
  C   C4        1.0  0.21945  0.07091  0.45845  1.0000
  H   H4        1.0  0.20508  0.06199  0.44761  1.0000
  H   H5        1.0  0.20647  0.11783  0.45810  1.0000
  C   C5        1.0  0.12337  0.29645  0.18304  1.0000
  S   S9        1.0  0.00886  0.12449  0.23554  1.0000
  C   C6        1.0  0.12888  0.09770  0.27185  1.0000
  C   C7        1.0  0.11255  0.10514  0.25390  1.0000
  C   C8        1.0  0.08831  0.09798  0.25620  1.0000
  C   C9        1.0  0.08000  0.08347  0.27673  1.0000
  C   C10       1.0  0.09637  0.07556  0.29461  1.0000
  C   C11       1.0  0.12071  0.08247  0.29216  1.0000
  H   H6        1.0  0.11868  0.11685  0.23819  1.0000
  H   H7        1.0  0.07597  0.10441  0.24235  1.0000
  H   H8        1.0  0.09013  0.06441  0.31059  1.0000
  H   H9        1.0  0.13303  0.07677  0.30620  1.0000
  H   H10       1.0  0.04013  0.42859  0.14877  1.0000
  H   H11       1.0  0.13833  0.03125  0.35103  1.0000
  H   H12       1.0  0.21765  0.30650  0.14941  1.0000
  C   C12       1.0  0.05390  0.47938  0.22865  1.0000
  H   H13       1.0  0.08597  0.36612  0.02609  1.0000
  S   S10       1.0  0.20040  0.34533  0.99694  1.0000
  C   C13       1.0  0.07242  0.40447  0.15700  1.0000
  C   C14       1.0  0.03676  0.21974  0.99483  1.0000
  H   H14       1.0  0.23406  0.34163  0.04863  1.0000
  C   C15       1.0  0.23662  0.27338  0.17097  1.0000
  C   C16       1.0  0.23548  0.46065  0.32803  1.0000
  C   C17       1.0  0.21816  0.14257  0.16052  1.0000
  C   C18       1.0  0.23634  0.15935  0.17192  1.0000
  C   C19       1.0  0.11474  0.33402  0.03128  1.0000
  C   C20       1.0  0.12290  0.30834  0.04435  1.0000
  C   C21       1.0  0.10926  0.29577  0.06278  1.0000
  C   C22       1.0  0.08717  0.30843  0.06801  1.0000
  C   C23       1.0  0.07871  0.33366  0.05459  1.0000
  C   C24       1.0  0.09251  0.34644  0.03632  1.0000
  H   H15       1.0  0.13985  0.29840  0.04045  1.0000
  H   H16       1.0  0.11590  0.27623  0.07307  1.0000
  H   H17       1.0  0.06170  0.34356  0.05849  1.0000
  C   C25       1.0  0.00578  0.23213  0.02214  1.0000
  Fe  Fe6       1.0  0.16348  0.32549  0.99421  1.0000
  Fe  Fe7       1.0  0.21025  0.29483  0.00382  1.0000
  C   C26       1.0  0.12406  0.49372  0.20694  1.0000
  H   H18       1.0  0.05351  0.28026  0.03024  1.0000
  C   C27       1.0  0.24319  0.22236  0.15377  1.0000
  H   H19       1.0  0.05079  0.47552  0.17173  1.0000
  C   C28       1.0  0.24613  0.24329  0.17248  1.0000
  C   C29       1.0  0.20535  0.12116  0.19804  1.0000
  S   S11       1.0  0.02410  0.32753  0.13320  1.0000
  C   C30       1.0  0.08502  0.45807  0.18295  1.0000
  C   C31       1.0  0.04133  0.48058  0.24968  1.0000
  H   H20       1.0  0.17266  0.06372  0.23024  1.0000
  C   C32       1.0  0.10714  0.32701  0.14227  1.0000
  H   H21       1.0  0.20556  0.03285  0.21377  1.0000
  H   H22       1.0  0.19004  0.24216  0.45603  1.0000
  H   H23       1.0  0.22585  0.23115  0.25587  1.0000
  H   H24       1.0  0.21700  0.45379  0.32820  1.0000
  C   C33       1.0  0.17384  0.03878  0.23378  1.0000
  C   C34       1.0  0.22053  0.10272  0.46417  1.0000
  H   H25       1.0  0.23931  0.28970  0.18527  1.0000
  C   C35       1.0  0.01911  0.16219  0.16905  1.0000
  H   H26       1.0  0.14417  0.03870  0.25686  1.0000
  H   H27       1.0  0.06835  0.24808  0.99736  1.0000
  H   H28       1.0  0.23673  0.02620  0.46145  1.0000
  C   C36       1.0  0.05090  0.24368  0.00431  1.0000
  C   C37       1.0  0.21267  0.20472  0.46791  1.0000
  S   S12       1.0  0.13157  0.35077  0.00826  1.0000
  H   H29       1.0  0.12255  0.45708  0.12399  1.0000
  C   C38       1.0  0.19233  0.02141  0.22459  1.0000
  C   C39       1.0  0.11188  0.40065  0.08325  1.0000
  C   C40       1.0  0.02308  0.03224  0.11903  1.0000
  C   C41       1.0  0.05700  0.42974  0.15797  1.0000
  C   C42       1.0  0.09918  0.29728  0.17792  1.0000
  S   S13       1.0  0.00649  0.33308  0.07798  1.0000
  C   C43       1.0  0.10037  0.43244  0.18198  1.0000
  H   H30       1.0  0.01310  0.27075  0.04537  1.0000
  C   C44       1.0  0.15764  0.02451  0.24894  1.0000
  C   C45       1.0  0.16920  0.00259  0.34789  1.0000
  C   C46       1.0  0.23793  0.15830  0.19658  1.0000
  C   C47       1.0  0.22607  0.16986  0.43757  1.0000
  C   C48       1.0  0.24615  0.18867  0.25784  1.0000
  H   H31       1.0  0.06751  0.38383  0.14697  1.0000
  H   H32       1.0  0.23237  0.17531  0.26648  1.0000
  H   H33       1.0  0.01068  0.01008  0.08725  1.0000
  C   C49       1.0  0.05267  0.18791  0.22460  1.0000
  C   C50       1.0  0.05935  0.18938  0.24829  1.0000
  C   C51       1.0  0.08314  0.18682  0.25469  1.0000
  C   C52       1.0  0.10026  0.18279  0.23744  1.0000
  C   C53       1.0  0.09369  0.18119  0.21354  1.0000
  C   C54       1.0  0.06968  0.18349  0.20738  1.0000
  P   P1        1.0  0.11494  0.17137  0.19123  1.0000
  C   C55       1.0  0.11568  0.12904  0.19010  1.0000
  C   C56       1.0  0.10488  0.18652  0.16301  1.0000
  C   C57       1.0  0.10694  0.16863  0.14252  1.0000
  C   C58       1.0  0.09921  0.18066  0.12078  1.0000
  C   C59       1.0  0.08944  0.21060  0.11932  1.0000
  C   C60       1.0  0.08735  0.22851  0.13961  1.0000
  C   C61       1.0  0.09507  0.21658  0.16137  1.0000
  C   C62       1.0  0.13713  0.11323  0.18787  1.0000
  C   C63       1.0  0.13757  0.08042  0.18806  1.0000
  C   C64       1.0  0.11654  0.06318  0.19017  1.0000
  C   C65       1.0  0.09505  0.07875  0.19173  1.0000
  C   C66       1.0  0.09459  0.11151  0.19160  1.0000
  C   C67       1.0  0.14388  0.18783  0.19821  1.0000
  C   C68       1.0  0.15735  0.17552  0.21703  1.0000
  C   C69       1.0  0.17957  0.18826  0.22254  1.0000
  C   C70       1.0  0.18889  0.21285  0.20900  1.0000
  C   C71       1.0  0.17587  0.22495  0.19003  1.0000
  C   C72       1.0  0.15342  0.21266  0.18470  1.0000
  H   H34       1.0  0.08829  0.18705  0.27313  1.0000
  H   H35       1.0  0.11835  0.18000  0.24310  1.0000
  H   H36       1.0  0.06392  0.18077  0.18932  1.0000
  H   H37       1.0  0.11435  0.14535  0.14328  1.0000
  H   H38       1.0  0.10059  0.16669  0.10504  1.0000
  H   H39       1.0  0.08329  0.21997  0.10253  1.0000
  H   H40       1.0  0.07947  0.25152  0.13834  1.0000
  H   H41       1.0  0.09317  0.23059  0.17698  1.0000
  H   H42       1.0  0.15350  0.12621  0.18624  1.0000
  H   H43       1.0  0.15420  0.06832  0.18679  1.0000
  H   H44       1.0  0.11687  0.03779  0.19058  1.0000
  C   C73       1.0  0.01449  0.21288  0.00438  1.0000
  H   H45       1.0  0.07772  0.12299  0.19299  1.0000
  H   H46       1.0  0.15082  0.15594  0.22749  1.0000
  H   H47       1.0  0.18965  0.17887  0.23732  1.0000
  H   H48       1.0  0.20624  0.22251  0.21320  1.0000
  H   H49       1.0  0.18324  0.24394  0.17951  1.0000
  H   H50       1.0  0.14374  0.22257  0.16996  1.0000
  C   C74       1.0  0.07666  0.49272  0.22720  1.0000
  C   C75       1.0  0.24417  0.47255  0.25649  1.0000
  C   C76       1.0  0.01765  0.05292  0.13705  1.0000
  H   H51       1.0  0.22771  0.39949  0.18409  1.0000
  H   H52       1.0  0.03423  0.18918  0.21951  1.0000
  H   H53       1.0  0.04541  0.46858  0.21362  1.0000
  H   H54       1.0  0.07866  0.06556  0.19326  1.0000
  H   H55       1.0  0.03061  0.23391  0.14448  1.0000
  H   H56       1.0  0.19361  0.10630  0.20828  1.0000
  C   C77       1.0  0.22412  0.28277  0.15086  1.0000
  H   H57       1.0  0.10047  0.33784  0.12624  1.0000
  H   H58       1.0  0.15815  0.31039  0.17216  1.0000
  C   C78       1.0  0.13135  0.32773  0.14792  1.0000
  H   H59       1.0  0.15061  0.27918  0.12445  1.0000
  C   C79       1.0  0.22038  0.26170  0.13251  1.0000
  H   H60       1.0  0.07327  0.02015  0.22817  1.0000
  H   H61       1.0  0.12966  0.28432  0.19872  1.0000
  H   H62       1.0  0.08666  0.28598  0.18965  1.0000
  H   H63       1.0  0.04606  0.19177  0.26171  1.0000
  H   H64       1.0  0.12450  0.35352  0.08505  1.0000
  H   H65       1.0  0.12162  0.45783  0.23412  1.0000
  C   C80       1.0  0.09114  0.31213  0.15737  1.0000
  C   C81       1.0  0.13945  0.31138  0.16800  1.0000
  H   H66       1.0  0.07247  0.31179  0.15292  1.0000
  P   P2        1.0  0.15198  0.34816  0.12899  1.0000
  C   C82       1.0  0.17619  0.36398  0.14649  1.0000
  C   C83       1.0  0.16252  0.32177  0.10679  1.0000
  C   C84       1.0  0.17361  0.33381  0.08658  1.0000
  C   C85       1.0  0.18189  0.31353  0.06941  1.0000
  C   C86       1.0  0.17906  0.28115  0.07217  1.0000
  C   C87       1.0  0.16763  0.26897  0.09199  1.0000
  C   C88       1.0  0.15944  0.28916  0.10930  1.0000
  C   C89       1.0  0.19916  0.36598  0.13744  1.0000
  C   C90       1.0  0.21758  0.37878  0.15099  1.0000
  C   C91       1.0  0.21332  0.38969  0.17363  1.0000
  C   C92       1.0  0.19055  0.38794  0.18277  1.0000
  C   C93       1.0  0.17204  0.37526  0.16927  1.0000
  C   C94       1.0  0.13671  0.38053  0.11502  1.0000
  C   C95       1.0  0.12316  0.43449  0.11548  1.0000
  C   C96       1.0  0.13594  0.41000  0.12586  1.0000
  H   H67       1.0  0.17588  0.35887  0.08403  1.0000
  H   H68       1.0  0.19043  0.32289  0.05382  1.0000
  H   H69       1.0  0.18563  0.26559  0.05880  1.0000
  H   H70       1.0  0.16512  0.24386  0.09389  1.0000
  H   H71       1.0  0.20313  0.35766  0.12002  1.0000
  Fe  Fe8       1.0  0.24550  0.10637  0.27997  1.0000
  H   H72       1.0  0.25101  0.17230  0.20585  1.0000
  H   H73       1.0  0.18734  0.39649  0.20034  1.0000
  H   H74       1.0  0.15448  0.37448  0.17659  1.0000
  C   C97       1.0  0.09402  0.40575  0.16910  1.0000
  H   H75       1.0  0.14501  0.41423  0.14237  1.0000
  C   C98       1.0  0.11114  0.42982  0.09417  1.0000
  H   H76       1.0  0.22471  0.13738  0.22855  1.0000
  H   H77       1.0  0.10260  0.39701  0.06670  1.0000
  C   C99       1.0  0.20290  0.12321  0.17354  1.0000
  H   H78       1.0  0.10124  0.44875  0.08608  1.0000
  C   C100      1.0  0.21350  0.18702  0.42063  1.0000
  Fe  Fe9       1.0  0.01364  0.09937  0.20146  1.0000
  C   C101      1.0  0.04255  0.26178  0.02276  1.0000
  C   C102      1.0  0.02991  0.18507  0.15481  1.0000
  C   C103      1.0  0.24243  0.22028  0.25168  1.0000
  H   H79       1.0  0.22738  0.42696  0.25750  1.0000
  C   C104      1.0  0.20012  0.22193  0.45090  1.0000
  C   C105      1.0  0.20053  0.21309  0.42727  1.0000
  S   S14       1.0  0.22059  0.49082  0.27081  1.0000
  C   C106      1.0  0.24273  0.44027  0.25192  1.0000
  H   H80       1.0  0.04416  0.16060  0.00797  1.0000
  H   H81       1.0  0.03015  0.05708  0.15131  1.0000
  H   H82       1.0  0.19078  0.22638  0.41411  1.0000
  H   H83       1.0  0.10583  0.38599  0.16855  1.0000
  C   C107      1.0  0.14759  0.01472  0.34020  1.0000
  S   S15       1.0  0.23815  0.10275  0.36758  1.0000
  H   H84       1.0  0.11720  0.43285  0.19113  1.0000
  H   H85       1.0  0.22626  0.21539  0.11972  1.0000
  H   H86       1.0  0.21197  0.21202  0.48604  1.0000
  C   C108      1.0  0.24179  0.49236  0.32896  1.0000
  H   H87       1.0  0.23529  0.38019  0.14396  1.0000
  H   H88       1.0  0.04473  0.17892  0.14399  1.0000
  C   C109      1.0  0.12450  0.37607  0.09364  1.0000
  H   H89       1.0  0.23590  0.14965  0.43205  1.0000
  S   S16       1.0  0.03029  0.12409  0.17059  1.0000
  C   C110      1.0  0.23715  0.05070  0.46634  1.0000
  C   C111      1.0  0.22949  0.23138  0.13410  1.0000
  H   H90       1.0  0.02359  0.47089  0.25052  1.0000
  C   C112      1.0  0.03572  0.14229  0.99781  1.0000
  S   S17       1.0  0.17285  0.27561  0.00257  1.0000
  H   H91       1.0  0.21381  0.17997  0.40232  1.0000
  H   H92       1.0  0.17670  0.00972  0.36467  1.0000
  C   C113      1.0  0.06317  0.45634  0.17097  1.0000
  H   H93       1.0  0.21108  0.26924  0.11672  1.0000
  C   C114      1.0  0.15687  0.47654  0.23177  1.0000
  H   H94       1.0  0.03977  0.02008  0.11936  1.0000
  C   C115      1.0  0.24187  0.32765  0.06261  1.0000
  C   C116      1.0  0.02193  0.21615  0.15509  1.0000
  C   C117      1.0  0.01987  0.25626  0.03144  1.0000
  C   C118      1.0  0.22284  0.13876  0.20953  1.0000
  C   C119      1.0  0.05133  0.49498  0.26942  1.0000
  H   H95       1.0  0.11456  0.00486  0.23459  1.0000
  S   S18       1.0  0.00833  0.26409  0.10353  1.0000
  H   H96       1.0  0.18923  0.10980  0.16461  1.0000
  H   H97       1.0  0.21585  0.14427  0.14161  1.0000
  C   C120      1.0  0.23979  0.11473  0.47721  1.0000
  C   C121      1.0  0.25085  0.34228  0.08306  1.0000
  H   H98       1.0  0.24976  0.36749  0.08462  1.0000
  H   H99       1.0  0.06590  0.11213  0.00095  1.0000
  P   P3        1.0  0.09279  0.49262  0.19985  1.0000
  C   C122      1.0  0.04798  0.11445  0.99436  1.0000
  H   H100      1.0  0.24802  0.41335  0.32570  1.0000
  P   P4        1.0  0.24257  0.15621  0.48303  1.0000
  C   C123      1.0  0.10202  0.00061  0.24846  1.0000
  C   C124      1.0  0.07849  0.00888  0.24453  1.0000
  C   C125      1.0  0.22571  0.17839  0.46140  1.0000
  H   H101      1.0  0.04349  0.01013  0.25901  1.0000
  C   C126      1.0  0.25401  0.27752  0.07842  1.0000
  C   C127      1.0  0.06165  0.00308  0.26186  1.0000
  C   C128      1.0  0.13829  0.00642  0.31818  1.0000
  H   H102      1.0  0.04135  0.49671  0.28551  1.0000
  C   C129      1.0  0.25296  0.43794  0.32647  1.0000
  S   S19       1.0  0.25427  0.27730  0.23220  1.0000
  H   H103      1.0  0.16591  0.39268  0.94382  1.0000
  H   H104      1.0  0.21277  0.39849  0.88146  1.0000
  H   H105      1.0  0.20932  0.01453  0.74324  1.0000
  Fe  Fe10      1.0  0.20411  0.33430  0.95811  1.0000
  S   S20       1.0  0.21659  0.28499  0.96509  1.0000
  S   S21       1.0  0.21143  0.36683  0.92617  1.0000
  Fe  Fe11      1.0  0.17825  0.27012  0.96363  1.0000
  S   S22       1.0  0.16600  0.23376  0.93668  1.0000
  H   H106      1.0  0.06160  0.26952  0.68319  1.0000
  S   S23       1.0  0.16615  0.31870  0.95529  1.0000
  C   C130      1.0  0.04899  0.31638  0.68194  1.0000
  Fe  Fe12      1.0  0.22853  0.15962  0.69771  1.0000
  S   S24       1.0  0.20428  0.17408  0.66804  1.0000
  C   C131      1.0  0.20585  0.08037  0.82662  1.0000
  C   C132      1.0  0.17641  0.25910  0.87234  1.0000
  S   S25       1.0  0.22081  0.24676  0.67801  1.0000
  Fe  Fe13      1.0  0.19283  0.21322  0.69214  1.0000
  S   S26       1.0  0.15333  0.21851  0.70118  1.0000
  H   H107      1.0  0.06661  0.32651  0.68096  1.0000
  S   S27       1.0  0.21545  0.19600  0.72252  1.0000
  Fe  Fe14      1.0  0.04947  0.33640  0.74879  1.0000
  S   S28       1.0  0.04981  0.35453  0.78606  1.0000
  S   S29       1.0  0.08516  0.33130  0.72997  1.0000
  H   H108      1.0  0.13058  0.08409  0.68876  1.0000
  Fe  Fe15      1.0  0.02114  0.38750  0.77433  1.0000
  H   H109      1.0  0.25429  0.20732  0.81136  1.0000
  Fe  Fe16      1.0  0.02006  0.32008  0.79182  1.0000
  H   H110      1.0  0.25157  0.04636  0.71470  1.0000
  S   S30       1.0  0.02242  0.37192  0.73638  1.0000
  S   S31       1.0  0.02147  0.29976  0.75570  1.0000
  Fe  Fe17      1.0  0.04512  0.05748  0.88186  1.0000
  C   C133      1.0  0.17491  0.11107  0.80815  1.0000
  C   C134      1.0  0.02218  0.49255  0.85252  1.0000
  Fe  Fe18      1.0  0.06063  0.11375  0.91211  1.0000
  S   S32       1.0  0.03332  0.14476  0.89569  1.0000
  S   S33       1.0  0.08340  0.13133  0.94272  1.0000
  C   C135      1.0  0.10515  0.45167  0.86392  1.0000
  Fe  Fe19      1.0  0.04365  0.12353  0.86145  1.0000
  S   S34       1.0  0.05076  0.15089  0.82783  1.0000
  S   S35       1.0  0.03477  0.07385  0.91803  1.0000
  S   S36       1.0  0.07306  0.09513  0.87757  1.0000
  P   P5        1.0  0.01898  0.22831  0.68613  1.0000
  C   C136      1.0  0.01847  0.23236  0.84375  1.0000
  C   C137      1.0  0.02442  0.25192  0.82473  1.0000
  C   C138      1.0  0.03921  0.18911  0.82612  1.0000
  C   C139      1.0  0.04467  0.20854  0.80680  1.0000
  C   C140      1.0  0.03733  0.23990  0.80610  1.0000
  C   C141      1.0  0.15195  0.07923  0.74512  1.0000
  H   H111      1.0  0.03736  0.29119  0.88066  1.0000
  H   H112      1.0  0.05454  0.19950  0.79226  1.0000
  H   H113      1.0  0.04185  0.25479  0.79128  1.0000
  C   C142      1.0  0.01984  0.45934  0.80951  1.0000
  H   H114      1.0  0.11958  0.27255  0.92793  1.0000
  H   H115      1.0  0.03514  0.17336  0.71386  1.0000
  H   H116      1.0  0.12470  0.25596  0.83757  1.0000
  H   H117      1.0  0.24450  0.17181  0.77844  1.0000
  C   C143      1.0  0.02036  0.17795  0.74816  1.0000
  C   C144      1.0  0.23597  0.20291  0.80669  1.0000
  H   H118      1.0  0.02765  0.02377  0.83386  1.0000
  H   H119      1.0  0.20394  0.12827  0.55839  1.0000
  C   C145      1.0  0.11250  0.49682  0.90367  1.0000
  C   C146      1.0  0.13480  0.25041  0.70912  1.0000
  C   C147      1.0  0.11279  0.24380  0.71958  1.0000
  C   C148      1.0  0.09729  0.26804  0.72586  1.0000
  C   C149      1.0  0.10355  0.29945  0.72173  1.0000
  C   C150      1.0  0.12552  0.30609  0.71125  1.0000
  C   C151      1.0  0.14107  0.28183  0.70506  1.0000
  H   H120      1.0  0.10771  0.21970  0.72298  1.0000
  H   H121      1.0  0.08056  0.26246  0.73399  1.0000
  H   H122      1.0  0.13062  0.33026  0.70797  1.0000
  H   H123      1.0  0.15781  0.28747  0.69696  1.0000
  C   C152      1.0  0.14166  0.20735  0.93882  1.0000
  C   C153      1.0  0.13200  0.19845  0.96047  1.0000
  C   C154      1.0  0.11387  0.17551  0.96139  1.0000
  C   C155      1.0  0.10504  0.16159  0.94070  1.0000
  C   C156      1.0  0.11443  0.17091  0.91906  1.0000
  C   C157      1.0  0.13261  0.19367  0.91815  1.0000
  H   H124      1.0  0.13892  0.20858  0.97655  1.0000
  H   H125      1.0  0.10681  0.16831  0.97824  1.0000
  H   H126      1.0  0.10776  0.16036  0.90308  1.0000
  H   H127      1.0  0.13973  0.20067  0.90132  1.0000
  H   H128      1.0  0.12888  0.37042  0.96020  1.0000
  H   H129      1.0  0.12391  0.19716  0.82474  1.0000
  H   H130      1.0  0.07916  0.37321  0.89773  1.0000
  H   H131      1.0  0.19996  0.05936  0.71291  1.0000
  H   H132      1.0  0.00838  0.24153  0.85815  1.0000
  H   H133      1.0  0.20696  0.03179  0.81699  1.0000
  C   C158      1.0  0.13595  0.08419  0.72639  1.0000
  H   H134      1.0  0.18074  0.28370  0.90514  1.0000
  S   S37       1.0  0.05513  0.00638  0.87574  1.0000
  Fe  Fe20      1.0  0.00813  0.10394  0.89908  1.0000
  C   C159      1.0  0.23555  0.37664  0.90727  1.0000
  C   C160      1.0  0.23081  0.39269  0.88595  1.0000
  C   C161      1.0  0.12612  0.43306  0.91000  1.0000
  C   C162      1.0  0.19557  0.48555  0.85285  1.0000
  C   C163      1.0  0.18884  0.19148  0.79426  1.0000
  C   C164      1.0  0.16105  0.03642  0.91561  1.0000
  H   H135      1.0  0.16608  0.13328  0.80621  1.0000
  C   C165      1.0  0.02310  0.36827  0.87633  1.0000
  C   C166      1.0  0.23046  0.18276  0.78814  1.0000
  C   C167      1.0  0.19748  0.30853  0.87660  1.0000
  Fe  Fe21      1.0  0.24363  0.22744  0.70727  1.0000
  H   H136      1.0  0.20251  0.16101  0.76780  1.0000
  H   H137      1.0  0.20386  0.32740  0.88762  1.0000
  C   C168      1.0  0.18452  0.28373  0.88647  1.0000
  C   C169      1.0  0.18141  0.25921  0.84819  1.0000
  H   H138      1.0  0.24685  0.02664  0.87865  1.0000
  C   C170      1.0  0.13422  0.18528  0.83813  1.0000
  H   H139      1.0  0.09020  0.38905  0.94549  1.0000
  C   C171      1.0  0.24503  0.34251  0.72891  1.0000
  H   H140      1.0  0.02825  0.15657  0.75490  1.0000
  Fe  Fe22      1.0  0.23420  0.20583  0.65660  1.0000
  H   H141      1.0  0.03184  0.36117  0.68177  1.0000
  C   C172      1.0  0.16998  0.17958  0.86150  1.0000
  C   C173      1.0  0.01461  0.21589  0.71635  1.0000
  H   H142      1.0  0.23326  0.29725  0.71630  1.0000
  C   C174      1.0  0.04601  0.28383  0.68339  1.0000
  H   H143      1.0  0.10726  0.29938  0.77129  1.0000
  C   C175      1.0  0.18198  0.06579  0.71681  1.0000
  C   C176      1.0  0.20687  0.17682  0.78207  1.0000
  H   H144      1.0  0.08349  0.38583  0.83713  1.0000
  H   H145      1.0  0.14499  0.28094  0.75483  1.0000
  H   H146      1.0  0.12818  0.35048  0.82976  1.0000
  C   C177      1.0  0.08192  0.46482  0.82906  1.0000
  H   H147      1.0  0.22969  0.35464  0.72209  1.0000
  C   C178      1.0  0.23828  0.19232  0.52348  1.0000
  H   H148      1.0  0.12437  0.26715  0.97089  1.0000
  H   H149      1.0  0.21215  0.32843  0.84499  1.0000
  H   H150      1.0  0.06691  0.42584  0.80999  1.0000
  C   C179      1.0  0.12812  0.38780  0.94617  1.0000
  C   C180      1.0  0.10629  0.39819  0.93775  1.0000
  C   C181      1.0  0.25178  0.05938  0.77373  1.0000
  C   C182      1.0  0.12468  0.15844  0.84890  1.0000
  C   C183      1.0  0.19396  0.28464  0.83835  1.0000
  C   C184      1.0  0.06560  0.20750  0.68591  1.0000
  H   H151      1.0  0.18755  0.18749  0.86654  1.0000
  C   C185      1.0  0.21318  0.14633  0.54847  1.0000
  H   H152      1.0  0.19727  0.28562  0.81963  1.0000
  C   C186      1.0  0.16041  0.15267  0.87221  1.0000
  H   H153      1.0  0.06143  0.33563  0.93830  1.0000
  H   H154      1.0  0.11577  0.08885  0.91507  1.0000
  P   P6        1.0  0.14276  0.08714  0.77487  1.0000
  C   C187      1.0  0.16720  0.08469  0.79548  1.0000
  C   C188      1.0  0.13121  0.12650  0.77426  1.0000
  C   C189      1.0  0.11159  0.13452  0.78775  1.0000
  C   C190      1.0  0.10298  0.16510  0.78697  1.0000
  C   C191      1.0  0.11370  0.18791  0.77274  1.0000
  C   C192      1.0  0.13317  0.18010  0.75923  1.0000
  C   C193      1.0  0.14195  0.14958  0.75999  1.0000
  C   C194      1.0  0.17839  0.05583  0.79930  1.0000
  C   C195      1.0  0.23686  0.01037  0.88957  1.0000
  C   C196      1.0  0.12087  0.05900  0.78495  1.0000
  C   C197      1.0  0.10942  0.03849  0.76921  1.0000
  C   C198      1.0  0.09584  0.29818  0.97871  1.0000
  H   H155      1.0  0.07349  0.99947  0.80737  1.0000
  C   C199      1.0  0.09807  0.03611  0.81701  1.0000
  C   C200      1.0  0.11524  0.05737  0.80899  1.0000
  H   H156      1.0  0.10269  0.11742  0.79880  1.0000
  H   H157      1.0  0.08798  0.17103  0.79757  1.0000
  H   H158      1.0  0.10689  0.21160  0.77209  1.0000
  H   H159      1.0  0.14155  0.19773  0.74815  1.0000
  H   H160      1.0  0.15711  0.14412  0.74935  1.0000
  H   H161      1.0  0.17252  0.03512  0.78991  1.0000
  C   C201      1.0  0.18759  0.45457  0.85528  1.0000
  H   H162      1.0  0.11345  0.03877  0.75067  1.0000
  H   H163      1.0  0.04334  0.20627  0.98024  1.0000
  H   H164      1.0  0.22006  0.35984  0.77871  1.0000
  H   H165      1.0  0.02648  0.19773  0.64040  1.0000
  H   H166      1.0  0.12382  0.07290  0.82150  1.0000
  H   H167      1.0  0.14559  0.12040  0.93675  1.0000
  C   C202      1.0  0.20219  0.30904  0.85256  1.0000
  C   C203      1.0  0.08709  0.41044  0.84030  1.0000
  H   H168      1.0  0.22241  0.23258  0.83353  1.0000
  H   H169      1.0  0.11817  0.09201  0.72977  1.0000
  H   H170      1.0  0.09682  0.28630  0.81225  1.0000
  C   C204      1.0  0.15572  0.25682  0.78658  1.0000
  H   H171      1.0  0.23665  0.21939  0.55534  1.0000
  C   C205      1.0  0.12885  0.26050  0.81930  1.0000
  C   C206      1.0  0.02071  0.33564  0.87525  1.0000
  C   C207      1.0  0.13780  0.14208  0.86588  1.0000
  C   C208      1.0  0.15688  0.19622  0.84447  1.0000
  H   H172      1.0  0.06135  0.17368  0.62286  1.0000
  C   C209      1.0  0.17519  0.07040  0.74011  1.0000
  H   H173      1.0  0.18840  0.06786  0.75386  1.0000
  H   H174      1.0  0.12512  0.03583  0.90170  1.0000
  C   C210      1.0  0.11912  0.28527  0.78201  1.0000
  H   H175      1.0  0.07635  0.49115  0.89093  1.0000
  H   H176      1.0  0.24162  0.14386  0.61667  1.0000
  C   C211      1.0  0.11330  0.27798  0.80523  1.0000
  C   C212      1.0  0.02447  0.18784  0.72498  1.0000
  C   C213      1.0  0.15000  0.09715  0.93068  1.0000
  P   P7        1.0  0.17041  0.22886  0.82901  1.0000
  C   C214      1.0  0.06249  0.18301  0.64051  1.0000
  C   C215      1.0  0.08384  0.18178  0.65303  1.0000
  H   H177      1.0  0.09929  0.17167  0.64511  1.0000
  C   C216      1.0  0.17764  0.05433  0.92846  1.0000
  C   C217      1.0  0.04411  0.20914  0.67337  1.0000
  H   H178      1.0  0.22926  0.24910  0.91843  1.0000
  C   C218      1.0  0.19419  0.21210  0.81263  1.0000
  H   H179      1.0  0.20056  0.12957  0.83278  1.0000
  P   P8        1.0  0.12405  0.46380  0.88802  1.0000
  H   H180      1.0  0.00586  0.07359  0.96413  1.0000
  H   H181      1.0  0.17224  0.24960  0.77905  1.0000
  C   C219      1.0  0.02942  0.33594  0.68243  1.0000
  H   H182      1.0  0.10701  0.15039  0.84414  1.0000
  C   C220      1.0  0.08672  0.01598  0.80118  1.0000
  C   C221      1.0  0.14290  0.07981  0.70313  1.0000
  H   H183      1.0  0.13026  0.12150  0.87441  1.0000
  H   H184      1.0  0.10212  0.19342  0.68521  1.0000
  C   C222      1.0  0.01840  0.49225  0.80983  1.0000
  C   C223      1.0  0.21983  0.14079  0.52524  1.0000
  H   H185      1.0  0.17154  0.06782  0.68030  1.0000
  C   C224      1.0  0.14034  0.27481  0.77274  1.0000
  H   H186      1.0  0.06714  0.21728  0.70339  1.0000
  C   C225      1.0  0.19430  0.10895  0.82352  1.0000
  C   C226      1.0  0.08539  0.19399  0.67572  1.0000
  H   H187      1.0  0.15394  0.00501  0.95735  1.0000
  H   H188      1.0  0.17067  0.18679  0.78944  1.0000
  C   C227      1.0  0.02328  0.27049  0.68522  1.0000
  C   C228      1.0  0.21788  0.21736  0.81906  1.0000
  H   H189      1.0  0.16611  0.24042  0.88038  1.0000
  C   C229      1.0  0.14992  0.24924  0.80994  1.0000
  H   H190      1.0  0.17036  0.14030  0.88573  1.0000
  C   C230      1.0  0.24612  0.28734  0.89983  1.0000
  H   H191      1.0  0.18502  0.09837  0.94565  1.0000
  C   C231      1.0  0.13866  0.04915  0.91082  1.0000
  C   C232      1.0  0.07116  0.21169  0.89887  1.0000
  C   C233      1.0  0.07527  0.20313  0.87565  1.0000
  C   C234      1.0  0.08119  0.22602  0.85895  1.0000
  C   C235      1.0  0.08365  0.25734  0.86562  1.0000
  C   C236      1.0  0.08103  0.26590  0.88920  1.0000
  C   C237      1.0  0.07386  0.24289  0.90562  1.0000
  P   P9        1.0  0.08569  0.30607  0.89833  1.0000
  C   C238      1.0  0.09040  0.30497  0.92983  1.0000
  C   C239      1.0  0.11094  0.32407  0.88396  1.0000
  C   C240      1.0  0.13094  0.33371  0.89697  1.0000
  C   C241      1.0  0.14976  0.34905  0.88585  1.0000
  C   C242      1.0  0.14901  0.35448  0.86157  1.0000
  C   C243      1.0  0.12902  0.34562  0.84852  1.0000
  C   C244      1.0  0.10987  0.33112  0.85974  1.0000
  C   C245      1.0  0.07548  0.32102  0.94507  1.0000
  C   C246      1.0  0.17220  0.08467  0.93571  1.0000
  C   C247      1.0  0.16593  0.07060  0.69834  1.0000
  H   H192      1.0  0.10846  0.40187  0.87102  1.0000
  C   C248      1.0  0.10806  0.28553  0.93934  1.0000
  C   C249      1.0  0.06069  0.32983  0.89038  1.0000
  C   C250      1.0  0.03945  0.31638  0.88219  1.0000
  C   C251      1.0  0.13323  0.07937  0.91834  1.0000
  H   H193      1.0  0.09403  0.32613  0.84955  1.0000
  C   C252      1.0  0.04417  0.38171  0.88460  1.0000
  C   C253      1.0  0.06287  0.36256  0.89160  1.0000
  H   H194      1.0  0.06613  0.19407  0.91182  1.0000
  H   H195      1.0  0.07325  0.17888  0.87045  1.0000
  H   H196      1.0  0.08327  0.21952  0.84073  1.0000
  H   H197      1.0  0.08728  0.27468  0.85229  1.0000
  H   H198      1.0  0.07040  0.24872  0.92374  1.0000
  H   H199      1.0  0.13207  0.33006  0.91576  1.0000
  H   H200      1.0  0.16505  0.35646  0.89616  1.0000
  H   H201      1.0  0.16385  0.36578  0.85294  1.0000
  S   S38       1.0  0.23550  0.10776  0.70313  1.0000
  H   H202      1.0  0.00451  0.32521  0.86845  1.0000
  C   C254      1.0  0.07835  0.31775  0.96947  1.0000
  C   C255      1.0  0.01294  0.14602  0.98820  1.0000
  H   H203      1.0  0.24139  0.30463  0.91280  1.0000
  H   H204      1.0  0.19470  0.04482  0.93322  1.0000
  H   H205      1.0  0.19830  0.43559  0.84892  1.0000
  H   H206      1.0  0.08821  0.42925  0.91384  1.0000
  H   H207      1.0  0.21248  0.49046  0.84473  1.0000
  H   H208      1.0  0.21440  0.17876  0.57738  1.0000
  C   C256      1.0  0.00601  0.19558  0.76273  1.0000
  C   C257      1.0  0.15219  0.47258  0.87464  1.0000
  H   H209      1.0  0.07412  0.48220  0.81741  1.0000
  C   C258      1.0  0.10528  0.42087  0.91983  1.0000
  C   C259      1.0  0.02257  0.45959  0.85231  1.0000
  H   H210      1.0  0.06695  0.33019  0.98131  1.0000
  H   H211      1.0  0.22137  0.07884  0.83792  1.0000
  C   C260      1.0  0.11072  0.28217  0.96368  1.0000
  C   C261      1.0  0.07772  0.43299  0.82495  1.0000
  C   C262      1.0  0.16592  0.44810  0.86598  1.0000
  H   H212      1.0  0.21546  0.11836  0.51749  1.0000
  C   C263      1.0  0.23943  0.10601  0.75171  1.0000
  C   C264      1.0  0.09234  0.01720  0.77732  1.0000
  C   C265      1.0  0.10094  0.41969  0.85962  1.0000
  C   C266      1.0  0.23249  0.16376  0.51256  1.0000
  H   H213      1.0  0.20385  0.03357  0.88343  1.0000
  H   H214      1.0  0.02395  0.44694  0.86880  1.0000
  C   C267      1.0  0.24403  0.09059  0.77329  1.0000
  S   S39       1.0  0.01556  0.29124  0.82494  1.0000
  C   C268      1.0  0.14897  0.40033  0.93688  1.0000
  C   C269      1.0  0.09574  0.47418  0.84834  1.0000
  C   C270      1.0  0.21905  0.17476  0.55919  1.0000
  C   C271      1.0  0.24967  0.05889  0.73102  1.0000
  C   C272      1.0  0.23132  0.31315  0.78805  1.0000
  H   H215      1.0  0.04614  0.40696  0.88540  1.0000
  C   C273      1.0  0.24219  0.09014  0.73055  1.0000
  C   C274      1.0  0.19773  0.05377  0.81473  1.0000
  H   H216      1.0  0.09333  0.03535  0.83549  1.0000
  C   C275      1.0  0.14804  0.42312  0.91902  1.0000
  C   C276      1.0  0.24918  0.40160  0.87051  1.0000
  C   C277      1.0  0.21251  0.01409  0.89222  1.0000
  C   C278      1.0  0.23928  0.25602  0.90301  1.0000
  C   C279      1.0  0.02139  0.44299  0.83095  1.0000
  H   H217      1.0  0.08318  0.00180  0.76507  1.0000
  H   H218      1.0  0.15992  0.42399  0.86765  1.0000
  S   S40       1.0  0.01654  0.08475  0.86324  1.0000
  H   H219      1.0  0.22057  0.30199  0.77455  1.0000
  C   C280      1.0  0.01425  0.09280  0.97344  1.0000
  H   H220      1.0  0.23353  0.12997  0.75132  1.0000
  H   H221      1.0  0.16447  0.43310  0.91275  1.0000
  S   S41       1.0  0.02094  0.44020  0.78187  1.0000
  C   C281      1.0  0.24506  0.36021  0.80754  1.0000
  C   C282      1.0  0.04270  0.19669  0.65058  1.0000
  C   C283      1.0  0.23093  0.34572  0.79043  1.0000
  C   C284      1.0  0.02563  0.20097  0.84433  1.0000
  C   C285      1.0  0.24701  0.31000  0.72562  1.0000
  H   H222      1.0  0.21068  0.49493  0.65974  1.0000
  H   H223      1.0  0.02222  0.41765  0.83101  1.0000
  C   C286      1.0  0.24606  0.29510  0.80258  1.0000
  H   H224      1.0  0.24521  0.41410  0.85432  1.0000
  C   C287      1.0  0.00678  0.32297  0.68442  1.0000
  H   H225      1.0  0.02090  0.18618  0.85906  1.0000
  H   H226      1.0  0.24172  0.10288  0.78965  1.0000
  C   C288      1.0  0.03731  0.08978  0.98207  1.0000
  H   H227      1.0  0.24606  0.26995  0.80044  1.0000
  H   H228      1.0  0.24483  0.38547  0.80934  1.0000
  H   H229      1.0  0.23959  0.20958  0.88867  1.0000
  H   H230      1.0  0.24838  0.21016  0.51420  1.0000
  C   C289      1.0  0.23161  0.19773  0.54671  1.0000
  C   C290      1.0  0.24505  0.23380  0.88617  1.0000
  H   H231      1.0  0.04694  0.06840  0.97911  1.0000
  H   H232      1.0  0.00868  0.38310  0.87053  1.0000
  C   C291      1.0  0.03233  0.99933  0.83260  1.0000
  H   H233      1.0  0.25406  0.45579  0.71743  1.0000
  S   S42       1.0  0.25225  0.21127  0.62064  1.0000
  C   C292      1.0  0.25346  0.49001  0.68932  1.0000
  H   H234      1.0  0.00615  0.16766  0.94214  1.0000
  H   H235      1.0  0.12485  0.87935  0.22868  1.0000
  H   H236      1.0  0.23424  0.92526  0.26640  1.0000
  S   S43       1.0  0.22101  0.78510  0.03330  1.0000
  Fe  Fe23      1.0  0.19032  0.59888  0.28033  1.0000
  S   S44       1.0  0.21209  0.57822  0.25159  1.0000
  S   S45       1.0  0.15524  0.61682  0.26505  1.0000
  Fe  Fe24      1.0  0.23170  0.59170  0.31686  1.0000
  C   C293      1.0  0.06830  0.98885  0.28312  1.0000
  P   P10       1.0  0.13910  0.97486  0.27513  1.0000
  Fe  Fe25      1.0  0.22289  0.54273  0.27880  1.0000
  C   C294      1.0  0.17810  0.97524  0.24545  1.0000
  S   S46       1.0  0.22000  0.63107  0.29245  1.0000
  S   S47       1.0  0.19972  0.56168  0.30733  1.0000
  Fe  Fe26      1.0  0.01900  0.57726  0.25155  1.0000
  S   S48       1.0  0.02628  0.55783  0.21595  1.0000
  S   S49       1.0  0.04707  0.57925  0.28067  1.0000
  S   S50       1.0  0.05320  0.78301  0.08714  1.0000
  C   C295      1.0  0.24964  0.72498  0.24813  1.0000
  C   C296      1.0  0.17017  0.88457  0.14308  1.0000
  C   C297      1.0  0.04657  0.68026  0.22159  1.0000
  C   C298      1.0  0.16536  0.81306  0.10653  1.0000
  H   H237      1.0  0.08751  0.76345  0.00904  1.0000
  H   H238      1.0  0.06976  0.60369  0.19216  1.0000
  C   C299      1.0  0.17607  0.80971  0.08466  1.0000
  C   C300      1.0  0.12597  0.60219  0.26893  1.0000
  C   C301      1.0  0.10947  0.60560  0.25038  1.0000
  C   C302      1.0  0.08542  0.59775  0.25352  1.0000
  C   C303      1.0  0.07747  0.58715  0.27544  1.0000
  C   C304      1.0  0.09401  0.58332  0.29389  1.0000
  C   C305      1.0  0.11816  0.59044  0.29060  1.0000
  H   H239      1.0  0.11525  0.61492  0.23361  1.0000
  H   H240      1.0  0.07284  0.60103  0.23929  1.0000
  H   H241      1.0  0.08806  0.57512  0.31092  1.0000
  H   H242      1.0  0.13056  0.58806  0.30512  1.0000
  S   S51       1.0  0.18396  0.85148  0.99743  1.0000
  C   C306      1.0  0.18752  0.72267  0.07773  1.0000
  C   C307      1.0  0.05951  0.88250  0.13288  1.0000
  C   C308      1.0  0.24745  0.59073  0.46916  1.0000
  H   H243      1.0  0.07167  0.86833  0.03105  1.0000
  C   C309      1.0  0.05273  0.68216  0.27046  1.0000
  C   C310      1.0  0.23359  0.80524  0.05795  1.0000
  C   C311      1.0  0.18478  0.90370  0.18061  1.0000
  H   H244      1.0  0.17646  0.82439  0.04834  1.0000
  P   P11       1.0  0.04938  0.71688  0.00516  1.0000
  C   C312      1.0  0.23056  0.83740  0.06131  1.0000
  P   P12       1.0  0.13413  0.83957  0.13798  1.0000
  H   H245      1.0  0.22044  0.85089  0.04861  1.0000
  C   C313      1.0  0.09854  0.83287  0.03138  1.0000
  C   C314      1.0  0.10575  0.80454  0.04159  1.0000
  C   C315      1.0  0.09160  0.78943  0.05854  1.0000
  C   C316      1.0  0.07008  0.80241  0.06535  1.0000
  C   C317      1.0  0.06291  0.83082  0.05524  1.0000
  C   C318      1.0  0.07719  0.84610  0.03847  1.0000
  H   H246      1.0  0.12229  0.79431  0.03658  1.0000
  H   H247      1.0  0.09738  0.76761  0.06644  1.0000
  H   H248      1.0  0.04648  0.84120  0.06052  1.0000
  C   C319      1.0  0.13197  0.92088  0.24898  1.0000
  C   C320      1.0  0.08120  0.55574  0.19517  1.0000
  H   H249      1.0  0.24303  0.67353  0.44079  1.0000
  H   H250      1.0  0.13281  0.84277  0.26202  1.0000
  H   H251      1.0  0.12839  0.93663  0.23432  1.0000
  C   C321      1.0  0.15041  0.98546  0.30384  1.0000
  H   H252      1.0  0.04393  0.67878  0.20270  1.0000
  C   C322      1.0  0.21505  0.77335  0.18528  1.0000
  H   H253      1.0  0.21511  0.81211  0.20927  1.0000
  H   H254      1.0  0.24984  0.77860  0.99300  1.0000
  C   C323      1.0  0.01930  0.72551  0.30384  1.0000
  Fe  Fe27      1.0  0.14794  0.82894  0.99503  1.0000
  C   C324      1.0  0.15382  0.86494  0.15465  1.0000
  H   H255      1.0  0.21540  0.75635  0.19950  1.0000
  H   H256      1.0  0.23910  0.66247  0.16422  1.0000
  C   C325      1.0  0.15123  0.79007  0.16578  1.0000
  C   C326      1.0  0.16817  0.82717  0.06528  1.0000
  H   H257      1.0  0.01353  0.56200  0.15748  1.0000
  C   C327      1.0  0.08940  0.69786  0.03025  1.0000
  C   C328      1.0  0.18170  0.98251  0.33340  1.0000
  C   C329      1.0  0.12999  0.88848  0.24573  1.0000
  H   H258      1.0  0.14339  0.86377  0.30136  1.0000
  C   C330      1.0  0.07559  0.89325  0.14988  1.0000
  H   H259      1.0  0.20969  0.97672  0.22462  1.0000
  H   H260      1.0  0.09432  0.73926  0.15940  1.0000
  C   C331      1.0  0.03281  0.77724  0.01392  1.0000
  C   C332      1.0  0.08647  0.50741  0.24717  1.0000
  H   H261      1.0  0.05520  0.98477  0.29659  1.0000
  H   H262      1.0  0.02427  0.51947  0.13029  1.0000
  H   H263      1.0  0.00854  0.73362  0.14190  1.0000
  C   C333      1.0  0.13432  0.86789  0.26454  1.0000
  H   H264      1.0  0.05357  0.85060  0.10431  1.0000
  Fe  Fe28      1.0  0.24205  0.60797  0.26531  1.0000
  C   C334      1.0  0.22761  0.72062  0.47023  1.0000
  C   C335      1.0  0.04546  0.65171  0.99987  1.0000
  H   H265      1.0  0.08209  0.66271  0.22087  1.0000
  H   H266      1.0  0.09661  0.96909  0.30357  1.0000
  C   C336      1.0  0.01003  0.53521  0.12566  1.0000
  C   C337      1.0  0.14192  0.91213  0.29011  1.0000
  H   H267      1.0  0.12807  0.71982  0.18353  1.0000
  C   C338      1.0  0.03933  0.74490  0.30121  1.0000
  C   C339      1.0  0.04843  0.76161  0.32040  1.0000
  C   C340      1.0  0.03753  0.75922  0.34231  1.0000
  C   C341      1.0  0.07397  0.50806  0.26822  1.0000
  S   S52       1.0  0.24951  0.60673  0.35169  1.0000
  C   C342      1.0  0.06802  0.67119  0.23180  1.0000
  H   H268      1.0  0.08152  0.51968  0.28346  1.0000
  C   C343      1.0  0.14028  0.87972  0.28670  1.0000
  C   C344      1.0  0.01748  0.74017  0.34502  1.0000
  C   C345      1.0  0.12925  0.74246  0.17474  1.0000
  H   H269      1.0  0.14590  0.92073  0.30757  1.0000
  H   H270      1.0  0.02175  0.63980  0.29114  1.0000
  C   C346      1.0  0.25083  0.69231  0.25122  1.0000
  H   H271      1.0  0.22820  0.50992  0.33008  1.0000
  C   C347      1.0  0.15920  0.99244  0.25431  1.0000
  C   C348      1.0  0.24075  0.85226  0.08114  1.0000
  C   C349      1.0  0.23714  0.62433  0.43616  1.0000
  C   C350      1.0  0.24848  0.93958  0.25945  1.0000
  C   C351      1.0  0.21580  0.76407  0.16166  1.0000
  H   H272      1.0  0.14383  0.86218  0.05282  1.0000
  H   H273      1.0  0.16739  0.80364  0.16746  1.0000
  H   H274      1.0  0.04786  0.74721  0.28429  1.0000
  H   H275      1.0  0.06394  0.77642  0.31828  1.0000
  H   H276      1.0  0.04459  0.77215  0.35718  1.0000
  H   H277      1.0  0.04246  0.60163  0.99559  1.0000
  P   P13       1.0  0.00744  0.70425  0.27894  1.0000
  S   S53       1.0  0.22940  0.98708  0.28501  1.0000
  C   C352      1.0  0.02825  0.69062  0.23576  1.0000
  H   H278      1.0  0.19841  0.91852  0.14700  1.0000
  H   H279      1.0  0.06060  0.64975  0.01152  1.0000
  H   H280      1.0  0.05525  0.68184  0.28939  1.0000
  C   C353      1.0  0.14981  0.84844  0.06785  1.0000
  C   C354      1.0  0.11162  0.78282  0.15010  1.0000
  H   H281      1.0  0.11029  0.88929  0.16474  1.0000
  C   C355      1.0  0.13199  0.80169  0.15263  1.0000
  C   C356      1.0  0.21037  0.69331  0.19752  1.0000
  C   C357      1.0  0.20052  0.69899  0.17506  1.0000
  H   H282      1.0  0.02812  0.68194  0.14513  1.0000
  C   C358      1.0  0.13913  0.85200  0.08973  1.0000
  H   H283      1.0  0.21774  0.83678  0.13591  1.0000
  C   C359      1.0  0.08517  0.75775  0.99065  1.0000
  H   H284      1.0  0.17068  0.73913  0.13339  1.0000
  P   P14       1.0  0.21658  0.72303  0.15397  1.0000
  H   H285      1.0  0.21840  0.78102  0.12555  1.0000
  H   H286      1.0  0.24937  0.76337  0.07241  1.0000
  C   C360      1.0  0.20466  0.72013  0.12435  1.0000
  C   C361      1.0  0.09827  0.88057  0.15138  1.0000
  C   C362      1.0  0.11026  0.75343  0.16121  1.0000
  H   H287      1.0  0.17196  0.79965  0.12137  1.0000
  C   C363      1.0  0.06606  0.70843  0.03166  1.0000
  C   C364      1.0  0.02686  0.74529  0.01164  1.0000
  C   C365      1.0  0.10247  0.69166  0.05078  1.0000
  C   C366      1.0  0.09232  0.69596  0.07282  1.0000
  C   C367      1.0  0.06909  0.70639  0.07433  1.0000
  C   C368      1.0  0.05597  0.71260  0.05385  1.0000
  C   C369      1.0  0.16858  0.88427  0.19228  1.0000
  C   C370      1.0  0.21957  0.74887  0.46050  1.0000
  C   C371      1.0  0.25275  0.67954  0.16002  1.0000
  H   H288      1.0  0.08309  0.55684  0.21411  1.0000
  C   C372      1.0  0.09181  0.98044  0.28710  1.0000
  C   C373      1.0  0.14976  0.76074  0.17697  1.0000
  H   H289      1.0  0.19695  0.91837  0.19061  1.0000
  H   H290      1.0  0.12523  0.86902  0.09132  1.0000
  H   H291      1.0  0.09338  0.82801  0.10663  1.0000
  H   H292      1.0  0.09751  0.69451  0.01329  1.0000
  C   C374      1.0  0.08876  0.84636  0.11876  1.0000
  C   C375      1.0  0.07565  0.55389  0.14625  1.0000
  H   H293      1.0  0.04183  0.89210  0.13183  1.0000
  H   H294      1.0  0.20106  0.75144  0.45591  1.0000
  C   C376      1.0  0.07385  0.58245  0.18275  1.0000
  H   H295      1.0  0.12051  0.68368  0.04956  1.0000
  H   H296      1.0  0.10248  0.69151  0.08874  1.0000
  H   H297      1.0  0.06133  0.71052  0.09138  1.0000
  H   H298      1.0  0.03816  0.72125  0.05550  1.0000
  H   H299      1.0  0.01175  0.69713  0.22738  1.0000
  C   C377      1.0  0.13931  0.51518  0.19568  1.0000
  C   C378      1.0  0.21677  0.78726  0.14389  1.0000
  C   C379      1.0  0.19860  0.67411  0.21379  1.0000
  C   C380      1.0  0.21637  0.81903  0.14964  1.0000
  H   H300      1.0  0.16828  0.88393  0.21134  1.0000
  C   C381      1.0  0.21040  0.71224  0.08245  1.0000
  H   H301      1.0  0.08761  0.66467  0.26419  1.0000
  C   C382      1.0  0.16705  0.66551  0.18550  1.0000
  S   S54       1.0  0.15964  0.77977  0.00276  1.0000
  C   C383      1.0  0.07075  0.58142  0.15836  1.0000
  Fe  Fe29      1.0  0.19615  0.80187  0.00360  1.0000
  H   H302      1.0  0.15547  0.74021  0.09249  1.0000
  S   S55       1.0  0.11572  0.85241  0.00980  1.0000
  H   H303      1.0  0.24604  0.54039  0.36645  1.0000
  H   H304      1.0  0.13286  0.53073  0.18195  1.0000
  H   H305      1.0  0.22743  0.70322  0.20239  1.0000
  H   H306      1.0  0.07030  0.91131  0.16197  1.0000
  H   H307      1.0  0.17108  0.68737  0.15180  1.0000
  H   H308      1.0  0.21513  0.70158  0.47325  1.0000
  H   H309      1.0  0.23691  0.70328  0.10873  1.0000
  C   C384      1.0  0.13809  0.93293  0.27116  1.0000
  C   C385      1.0  0.08517  0.52761  0.18331  1.0000
  H   H310      1.0  0.23831  0.87715  0.08347  1.0000
  H   H311      1.0  0.23746  0.73826  0.25855  1.0000
  C   C386      1.0  0.18171  0.73077  0.11939  1.0000
  H   H312      1.0  0.18077  0.95107  0.25074  1.0000
  C   C387      1.0  0.10506  0.85691  0.13583  1.0000
  C   C388      1.0  0.18560  0.90378  0.15603  1.0000
  C   C389      1.0  0.17308  0.73161  0.09623  1.0000
  H   H313      1.0  0.23135  0.62688  0.41798  1.0000
  H   H314      1.0  0.14061  0.85012  0.18866  1.0000
  H   H315      1.0  0.20644  0.66948  0.23097  1.0000
  C   C390      1.0  0.21532  0.82796  0.17316  1.0000
  H   H316      1.0  0.06430  0.60192  0.14895  1.0000
  H   H317      1.0  0.16795  0.64525  0.22047  1.0000
  H   H318      1.0  0.17120  0.88504  0.12405  1.0000
  C   C391      1.0  0.21475  0.80517  0.19096  1.0000
  C   C392      1.0  0.03119  0.69166  0.26035  1.0000
  C   C393      1.0  0.15308  0.86504  0.17938  1.0000
  H   H319      1.0  0.15041  0.65428  0.18086  1.0000
  C   C394      1.0  0.21894  0.71082  0.10565  1.0000
  C   C395      1.0  0.17691  0.66033  0.20783  1.0000
  H   H320      1.0  0.23966  0.68074  0.26396  1.0000
  C   C396      1.0  0.25427  0.83538  0.09784  1.0000
  C   C397      1.0  0.23534  0.77386  0.45690  1.0000
  H   H321      1.0  0.18274  0.95941  0.30008  1.0000
  H   H322      1.0  0.17469  0.53447  0.19428  1.0000
  C   C398      1.0  0.14664  0.83397  0.10921  1.0000
  H   H323      1.0  0.22172  0.70595  0.06801  1.0000
  C   C399      1.0  0.19456  0.98971  0.23058  1.0000
  H   H324      1.0  0.19067  0.79377  0.08269  1.0000
  H   H325      1.0  0.09664  0.79058  0.13970  1.0000
  C   C400      1.0  0.06614  0.85913  0.11733  1.0000
  C   C401      1.0  0.17245  0.97418  0.31139  1.0000
  C   C402      1.0  0.17883  0.68457  0.16911  1.0000
  H   H326      1.0  0.23436  0.57388  0.43582  1.0000
  H   H327      1.0  0.16452  0.75217  0.18742  1.0000
  S   S56       1.0  0.01806  0.62724  0.17328  1.0000
  H   H328      1.0  0.10357  0.51903  0.24651  1.0000
  H   H329      1.0  0.21598  0.85255  0.17763  1.0000
  H   H330      1.0  0.18121  0.72444  0.05967  1.0000
  C   C403      1.0  0.24705  0.71078  0.15450  1.0000
  H   H331      1.0  0.08679  0.50608  0.14895  1.0000
  C   C404      1.0  0.08304  0.52713  0.15864  1.0000
  C   C405      1.0  0.24686  0.78824  0.07478  1.0000
  C   C406      1.0  0.07113  0.67230  0.25621  1.0000
  C   C407      1.0  0.01541  0.79932  0.01826  1.0000
  C   C408      1.0  0.23885  0.59438  0.44619  1.0000
  C   C409      1.0  0.16308  0.51739  0.20258  1.0000
  H   H332      1.0  0.05086  0.78539  0.01298  1.0000
  H   H333      1.0  0.07340  0.55324  0.12731  1.0000
  H   H334      1.0  0.00460  0.68800  0.09386  1.0000
  H   H335      1.0  0.24975  0.56738  0.47651  1.0000
  S   S57       1.0  0.01057  0.82018  0.13359  1.0000
  Fe  Fe30      1.0  0.01706  0.80035  0.09769  1.0000
  H   H336      1.0  0.19900  0.97428  0.33879  1.0000
  H   H337      1.0  0.22908  0.79580  0.44948  1.0000
  C   C410      1.0  0.24372  0.65072  0.44923  1.0000
  C   C411      1.0  0.25023  0.97137  0.26561  1.0000
  H   H338      1.0  0.02019  0.82380  0.02047  1.0000
  C   C412      1.0  0.01228  0.68625  0.15501  1.0000
  C   C413      1.0  0.10898  0.98696  0.27003  1.0000
  C   C414      1.0  0.03634  0.68113  0.99355  1.0000
  C   C415      1.0  0.00834  0.72341  0.32587  1.0000
  H   H339      1.0  0.00899  0.73835  0.36199  1.0000
  C   C416      1.0  0.03516  0.62425  0.99092  1.0000
  H   H340      1.0  0.19013  0.50040  0.22642  1.0000
  C   C417      1.0  0.25157  0.71701  0.47609  1.0000
  H   H341      1.0  0.00510  0.77306  0.27291  1.0000
  C   C418      1.0  0.25155  0.64732  0.47268  1.0000
  C   C419      1.0  0.25382  0.61707  0.48235  1.0000
  C   C420      1.0  0.17182  0.49820  0.22068  1.0000
  C   C421      1.0  0.06926  0.73188  0.87250  1.0000
  H   H342      1.0  0.19854  0.90785  0.88292  1.0000
  C   C422      1.0  0.20510  0.98030  0.77098  1.0000
  Fe  Fe31      1.0  0.18738  0.84143  0.95845  1.0000
  S   S58       1.0  0.20212  0.79325  0.96467  1.0000
  S   S59       1.0  0.19385  0.87523  0.92725  1.0000
  Fe  Fe32      1.0  0.16447  0.77565  0.96361  1.0000
  S   S60       1.0  0.15324  0.74012  0.93579  1.0000
  H   H343      1.0  0.17294  0.81595  0.68749  1.0000
  S   S61       1.0  0.15005  0.82343  0.95602  1.0000
  H   H344      1.0  0.04446  0.80580  0.92677  1.0000
  Fe  Fe33      1.0  0.22592  0.66421  0.70625  1.0000
  S   S62       1.0  0.20936  0.67887  0.67172  1.0000
  H   H345      1.0  0.21975  0.68628  0.58025  1.0000
  H   H346      1.0  0.23314  0.92220  0.85823  1.0000
  S   S63       1.0  0.23316  0.74774  0.68008  1.0000
  Fe  Fe34      1.0  0.19929  0.72308  0.69102  1.0000
  S   S64       1.0  0.16270  0.74567  0.68618  1.0000
  Fe  Fe35      1.0  0.24453  0.70176  0.66423  1.0000
  S   S65       1.0  0.21354  0.70639  0.72602  1.0000
  Fe  Fe36      1.0  0.04750  0.81974  0.75821  1.0000
  S   S66       1.0  0.04257  0.84051  0.79431  1.0000
  S   S67       1.0  0.08534  0.79966  0.75702  1.0000
  H   H347      1.0  0.14550  0.50687  0.92187  1.0000
  Fe  Fe37      1.0  0.02228  0.87881  0.77634  1.0000
  C   C423      1.0  0.00887  0.74999  0.82666  1.0000
  H   H348      1.0  0.24292  0.98954  0.98303  1.0000
  C   C424      1.0  0.16654  0.98542  0.85901  1.0000
  S   S68       1.0  0.02875  0.86009  0.73987  1.0000
  C   C425      1.0  0.24833  0.98531  0.90065  1.0000
  Fe  Fe38      1.0  0.02723  0.56563  0.88360  1.0000
  C   C426      1.0  0.19897  0.57235  0.78369  1.0000
  C   C427      1.0  0.01421  0.75606  0.94206  1.0000
  Fe  Fe39      1.0  0.05164  0.61767  0.91295  1.0000
  S   S69       1.0  0.03058  0.65547  0.89556  1.0000
  S   S70       1.0  0.07679  0.62982  0.94311  1.0000
  C   C428      1.0  0.15630  0.96986  0.93014  1.0000
  Fe  Fe40      1.0  0.03717  0.62956  0.86232  1.0000
  S   S71       1.0  0.04778  0.65684  0.83024  1.0000
  S   S72       1.0  0.01983  0.58652  0.91914  1.0000
  S   S73       1.0  0.06082  0.59377  0.87919  1.0000
  C   C429      1.0  0.13072  0.97424  0.83685  1.0000
  H   H349      1.0  0.09893  0.49896  0.85114  1.0000
  H   H350      1.0  0.19870  0.94221  0.79502  1.0000
  C   C430      1.0  0.03210  0.69212  0.82843  1.0000
  C   C431      1.0  0.04001  0.71601  0.81339  1.0000
  C   C432      1.0  0.02865  0.74501  0.81272  1.0000
  H   H351      1.0  0.22096  0.78253  0.84306  1.0000
  C   C433      1.0  0.07943  0.52863  0.91554  1.0000
  H   H352      1.0  0.05506  0.71219  0.80237  1.0000
  H   H353      1.0  0.03539  0.76358  0.80153  1.0000
  C   C434      1.0  0.03233  0.95056  0.81014  1.0000
  H   H354      1.0  0.16296  0.57796  0.83061  1.0000
  C   C435      1.0  0.14342  0.95958  0.97022  1.0000
  H   H355      1.0  0.00670  0.85373  0.83346  1.0000
  C   C436      1.0  0.05119  0.95323  0.84878  1.0000
  C   C437      1.0  0.04471  0.93600  0.82861  1.0000
  C   C438      1.0  0.20158  0.99213  0.74822  1.0000
  H   H356      1.0  0.21572  0.99356  0.78349  1.0000
  H   H357      1.0  0.06080  0.53414  0.91438  1.0000
  S   S74       1.0  0.22163  0.61296  0.71590  1.0000
  C   C439      1.0  0.14119  0.75977  0.70632  1.0000
  C   C440      1.0  0.11945  0.77088  0.69746  1.0000
  C   C441      1.0  0.10212  0.78301  0.71256  1.0000
  C   C442      1.0  0.10633  0.78442  0.73685  1.0000
  C   C443      1.0  0.12805  0.77326  0.74574  1.0000
  C   C444      1.0  0.14529  0.76088  0.73065  1.0000
  H   H358      1.0  0.11598  0.77016  0.67870  1.0000
  H   H359      1.0  0.08556  0.79136  0.70535  1.0000
  H   H360      1.0  0.13139  0.77379  0.76448  1.0000
  H   H361      1.0  0.16176  0.75221  0.73777  1.0000
  C   C445      1.0  0.13161  0.71004  0.93873  1.0000
  C   C446      1.0  0.12606  0.69624  0.96046  1.0000
  C   C447      1.0  0.10930  0.67154  0.96156  1.0000
  C   C448      1.0  0.09736  0.66129  0.94115  1.0000
  C   C449      1.0  0.10242  0.67578  0.91959  1.0000
  C   C450      1.0  0.11994  0.69940  0.91834  1.0000
  H   H362      1.0  0.13497  0.70418  0.97628  1.0000
  H   H363      1.0  0.10545  0.66042  0.97829  1.0000
  H   H364      1.0  0.09307  0.66837  0.90386  1.0000
  H   H365      1.0  0.12427  0.70993  0.90158  1.0000
  H   H366      1.0  0.16932  0.50667  0.66920  1.0000
  H   H367      1.0  0.22769  0.59392  0.66266  1.0000
  C   C451      1.0  0.16839  0.57959  0.81248  1.0000
  C   C452      1.0  0.07992  0.74355  0.94304  1.0000
  Fe  Fe41      1.0  0.00810  0.81437  0.79484  1.0000
  H   H368      1.0  0.03327  0.79160  0.88699  1.0000
  C   C453      1.0  0.09926  0.85538  0.87937  1.0000
  H   H369      1.0  0.07836  0.73747  0.92463  1.0000
  H   H370      1.0  0.12573  0.54868  0.76992  1.0000
  C   C454      1.0  0.01219  0.69695  0.84232  1.0000
  C   C455      1.0  0.21880  0.88243  0.90907  1.0000
  C   C456      1.0  0.21592  0.89989  0.88805  1.0000
  C   C457      1.0  0.23553  0.90809  0.87399  1.0000
  H   H371      1.0  0.14270  0.89241  0.93845  1.0000
  C   C458      1.0  0.22244  0.54348  0.66078  1.0000
  C   C459      1.0  0.17279  0.83155  0.70248  1.0000
  H   H372      1.0  0.22310  0.89089  0.77382  1.0000
  C   C460      1.0  0.18094  0.66924  0.86652  1.0000
  C   C461      1.0  0.06915  0.73415  0.98378  1.0000
  C   C462      1.0  0.23549  0.96415  0.91454  1.0000
  H   H373      1.0  0.12702  0.65923  0.83172  1.0000
  C   C463      1.0  0.18318  0.93288  0.76063  1.0000
  C   C464      1.0  0.22044  0.85769  0.82812  1.0000
  H   H374      1.0  0.18075  0.70040  0.80212  1.0000
  H   H375      1.0  0.09597  0.88104  0.92392  1.0000
  H   H376      1.0  0.15701  0.92897  0.90780  1.0000
  C   C465      1.0  0.14137  0.89717  0.77822  1.0000
  C   C466      1.0  0.09309  0.90012  0.78874  1.0000
  C   C467      1.0  0.10605  0.92767  0.78480  1.0000
  C   C468      1.0  0.21184  0.75305  0.80202  1.0000
  S   S75       1.0  0.02538  0.51245  0.87970  1.0000
  C   C469      1.0  0.09794  0.77466  0.97383  1.0000
  C   C470      1.0  0.19564  0.95099  0.77731  1.0000
  C   C471      1.0  0.05541  0.82325  0.93527  1.0000
  C   C472      1.0  0.01712  0.68255  0.97767  1.0000
  H   H377      1.0  0.12215  0.83430  0.90584  1.0000
  H   H378      1.0  0.12709  0.66549  0.87471  1.0000
  H   H379      1.0  0.18806  0.64450  0.81031  1.0000
  C   C473      1.0  0.06273  0.55125  0.79559  1.0000
  H   H380      1.0  0.18079  0.80429  0.75456  1.0000
  C   C474      1.0  0.16082  0.59212  0.77139  1.0000
  H   H381      1.0  0.03024  0.76217  0.95146  1.0000
  H   H382      1.0  0.04802  0.89468  0.90437  1.0000
  H   H383      1.0  0.16125  0.79409  0.79199  1.0000
  H   H384      1.0  0.09879  0.97131  0.85704  1.0000
  H   H385      1.0  0.06097  0.94188  0.86286  1.0000
  C   C475      1.0  0.19132  0.57059  0.80692  1.0000
  H   H386      1.0  0.15848  0.85995  0.89124  1.0000
  H   H387      1.0  0.08711  0.56415  0.94126  1.0000
  C   C476      1.0  0.13014  0.92632  0.77961  1.0000
  C   C477      1.0  0.22946  0.66160  0.52436  1.0000
  C   C478      1.0  0.12715  0.51327  0.91953  1.0000
  C   C479      1.0  0.24646  0.70499  0.55724  1.0000
  C   C480      1.0  0.10234  0.57348  0.79323  1.0000
  C   C481      1.0  0.11922  0.88996  0.85147  1.0000
  C   C482      1.0  0.23647  0.53273  0.58287  1.0000
  C   C483      1.0  0.01568  0.86234  0.84909  1.0000
  P   P15       1.0  0.07241  0.83748  0.89057  1.0000
  C   C484      1.0  0.17749  0.71292  0.83888  1.0000
  H   H388      1.0  0.11623  0.55946  0.84095  1.0000
  H   H389      1.0  0.17142  0.79778  0.91325  1.0000
  C   C485      1.0  0.18609  0.77555  0.85789  1.0000
  C   C486      1.0  0.09094  0.74772  0.87307  1.0000
  C   C487      1.0  0.09521  0.76774  0.94998  1.0000
  C   C488      1.0  0.03534  0.84654  0.85818  1.0000
  H   H390      1.0  0.10545  0.78050  0.93697  1.0000
  C   C489      1.0  0.14017  0.92784  0.96501  1.0000
  C   C490      1.0  0.21107  0.96732  0.91676  1.0000
  C   C491      1.0  0.09324  0.64891  0.78285  1.0000
  C   C492      1.0  0.22313  0.75983  0.78080  1.0000
  H   H391      1.0  0.04135  0.82583  0.84921  1.0000
  H   H392      1.0  0.23772  0.80811  0.87820  1.0000
  H   H393      1.0  0.06575  0.85321  0.98969  1.0000
  C   C493      1.0  0.06733  0.72632  0.95991  1.0000
  C   C494      1.0  0.04961  0.77971  0.88337  1.0000
  C   C495      1.0  0.11809  0.53775  0.93280  1.0000
  H   H394      1.0  0.21718  0.53168  0.61494  1.0000
  H   H395      1.0  0.10980  0.79330  0.97939  1.0000
  C   C496      1.0  0.23461  0.53270  0.60739  1.0000
  C   C497      1.0  0.21522  0.57454  0.66385  1.0000
  H   H396      1.0  0.03188  0.73554  0.87752  1.0000
  C   C498      1.0  0.14175  0.86418  0.88234  1.0000
  H   H397      1.0  0.09403  0.84971  0.78998  1.0000
  H   H398      1.0  0.02967  0.71768  0.92328  1.0000
  C   C499      1.0  0.15301  0.59078  0.79477  1.0000
  H   H399      1.0  0.24036  0.75023  0.77736  1.0000
  H   H400      1.0  0.20151  0.94982  0.92688  1.0000
  H   H401      1.0  0.12941  0.55047  0.94499  1.0000
  H   H402      1.0  0.12178  0.97013  0.82024  1.0000
  H   H403      1.0  0.22070  0.53194  0.57190  1.0000
  H   H404      1.0  0.22238  0.64489  0.51188  1.0000
  H   H405      1.0  0.00988  0.70485  0.97232  1.0000
  C   C500      1.0  0.18846  0.97482  0.73180  1.0000
  H   H406      1.0  0.16220  0.86426  0.81490  1.0000
  C   C501      1.0  0.19369  0.85976  0.73331  1.0000
  P   P16       1.0  0.12353  0.60343  0.80179  1.0000
  H   H407      1.0  0.21677  0.56551  0.77950  1.0000
  C   C502      1.0  0.19595  0.85565  0.83060  1.0000
  H   H408      1.0  0.14926  0.60032  0.75735  1.0000
  H   H409      1.0  0.04501  0.55218  0.80239  1.0000
  C   C503      1.0  0.12168  0.60886  0.83314  1.0000
  C   C504      1.0  0.11865  0.58274  0.84813  1.0000
  C   C505      1.0  0.11894  0.58648  0.87254  1.0000
  C   C506      1.0  0.12199  0.61629  0.88215  1.0000
  C   C507      1.0  0.12478  0.64239  0.86731  1.0000
  C   C508      1.0  0.12464  0.63875  0.84288  1.0000
  H   H410      1.0  0.20330  0.56226  0.82055  1.0000
  H   H411      1.0  0.04954  0.91165  0.82720  1.0000
  H   H412      1.0  0.07425  0.90123  0.79188  1.0000
  H   H413      1.0  0.23207  0.85055  0.84244  1.0000
  C   C509      1.0  0.04699  0.85758  0.87849  1.0000
  H   H414      1.0  0.11619  0.56641  0.88405  1.0000
  H   H415      1.0  0.12180  0.61918  0.90111  1.0000
  C   C510      1.0  0.19050  0.87807  0.79133  1.0000
  H   H416      1.0  0.18963  0.58401  0.74786  1.0000
  C   C511      1.0  0.08843  0.50432  0.90208  1.0000
  H   H417      1.0  0.10687  0.73542  0.86861  1.0000
  H   H418      1.0  0.06833  0.70730  0.86771  1.0000
  C   C512      1.0  0.11680  0.63978  0.78638  1.0000
  H   H419      1.0  0.15415  0.77181  0.87854  1.0000
  C   C513      1.0  0.11776  0.97487  0.85759  1.0000
  C   C514      1.0  0.08802  0.67666  0.77065  1.0000
  C   C515      1.0  0.15146  0.98056  0.95288  1.0000
  H   H420      1.0  0.13504  0.83625  0.70191  1.0000
  H   H421      1.0  0.22040  0.78285  0.74696  1.0000
  C   C516      1.0  0.01384  0.73095  0.92641  1.0000
  C   C517      1.0  0.18480  0.66026  0.82475  1.0000
  H   H422      1.0  0.10204  0.71714  0.75246  1.0000
  H   H423      1.0  0.05574  0.51036  0.77442  1.0000
  C   C518      1.0  0.15288  0.93795  0.92503  1.0000
  C   C519      1.0  0.07949  0.57365  0.80260  1.0000
  H   H424      1.0  0.24903  0.87180  0.80553  1.0000
  S   S76       1.0  0.01374  0.79116  0.76028  1.0000
  C   C520      1.0  0.15142  0.84285  0.71070  1.0000
  C   C521      1.0  0.15513  0.97921  0.83756  1.0000
  H   H425      1.0  0.01844  0.53407  0.83126  1.0000
  C   C522      1.0  0.24119  0.56106  0.73643  1.0000
  H   H426      1.0  0.01648  0.50502  0.79340  1.0000
  H   H427      1.0  0.15703  0.56171  0.67525  1.0000
  H   H428      1.0  0.18789  0.53411  0.85886  1.0000
  C   C523      1.0  0.12820  0.86958  0.78251  1.0000
  C   C524      1.0  0.09424  0.54546  0.93077  1.0000
  C   C525      1.0  0.12972  0.68760  0.76629  1.0000
  C   C526      1.0  0.10421  0.87114  0.78774  1.0000
  C   C527      1.0  0.24122  0.59398  0.73551  1.0000
  C   C528      1.0  0.00687  0.65509  0.96876  1.0000
  C   C529      1.0  0.09851  0.87560  0.85969  1.0000
  H   H429      1.0  0.20457  0.64787  0.55109  1.0000
  H   H430      1.0  0.24382  0.85878  0.93141  1.0000
  C   C530      1.0  0.23406  0.89950  0.97729  1.0000
  C   C531      1.0  0.19933  0.99225  0.90551  1.0000
  C   C532      1.0  0.05342  0.82738  0.95954  1.0000
  C   C533      1.0  0.09156  0.52708  0.77072  1.0000
  H   H431      1.0  0.24043  0.64550  0.61751  1.0000
  C   C534      1.0  0.18216  0.52560  0.66772  1.0000
  C   C535      1.0  0.17926  0.94530  0.73795  1.0000
  C   C536      1.0  0.14480  0.91710  0.94240  1.0000
  P   P17       1.0  0.25268  0.53509  0.65346  1.0000
  H   H432      1.0  0.13414  0.87082  0.73591  1.0000
  H   H433      1.0  0.07854  0.78426  0.81147  1.0000
  H   H434      1.0  0.14935  0.52314  0.87706  1.0000
  H   H435      1.0  0.22053  0.73801  0.81484  1.0000
  C   C537      1.0  0.20567  0.51904  0.66252  1.0000
  H   H436      1.0  0.10508  0.82444  0.82909  1.0000
  C   C538      1.0  0.04867  0.74784  0.87791  1.0000
  H   H437      1.0  0.09619  0.50888  0.75847  1.0000
  H   H438      1.0  0.16943  0.93201  0.72489  1.0000
  H   H439      1.0  0.08199  0.88041  0.85063  1.0000
  H   H440      1.0  0.21039  0.83153  0.70700  1.0000
  C   C539      1.0  0.11147  0.80094  0.82651  1.0000
  C   C540      1.0  0.09646  0.77830  0.81664  1.0000
  C   C541      1.0  0.09207  0.77948  0.87897  1.0000
  H   H441      1.0  0.10913  0.79094  0.87933  1.0000
  C   C542      1.0  0.08254  0.86919  0.95793  1.0000
  H   H442      1.0  0.05629  0.70693  0.95425  1.0000
  H   H443      1.0  0.23122  0.87452  0.97537  1.0000
  H   H444      1.0  0.21034  0.86621  0.74142  1.0000
  H   H445      1.0  0.06978  0.68324  0.76769  1.0000
  C   C543      1.0  0.06710  0.85018  0.97086  1.0000
  H   H446      1.0  0.24452  0.60910  0.58386  1.0000
  H   H447      1.0  0.18086  0.66041  0.88449  1.0000
  C   C544      1.0  0.18369  0.58289  0.76592  1.0000
  C   C545      1.0  0.03902  0.88509  0.88911  1.0000
  H   H448      1.0  0.24433  0.94451  0.92294  1.0000
  H   H449      1.0  0.21323  0.81492  0.91353  1.0000
  C   C546      1.0  0.10470  0.74807  0.81283  1.0000
  C   C547      1.0  0.13473  0.79336  0.83260  1.0000
  H   H450      1.0  0.09322  0.73078  0.80470  1.0000
  H   H451      1.0  0.14633  0.81145  0.83957  1.0000
  C   C548      1.0  0.24139  0.87235  0.91543  1.0000
  H   H452      1.0  0.09709  0.94995  0.78511  1.0000
  H   H453      1.0  0.18861  0.84679  0.84693  1.0000
  H   H454      1.0  0.07873  0.63480  0.78937  1.0000
  H   H455      1.0  0.19743  0.91014  0.97059  1.0000
  C   C549      1.0  0.19390  0.84026  0.71361  1.0000
  C   C550      1.0  0.07134  0.79599  0.88377  1.0000
  H   H456      1.0  0.17425  0.71635  0.87687  1.0000
  C   C551      1.0  0.07131  0.84169  0.92216  1.0000
  C   C552      1.0  0.21517  0.88013  0.78918  1.0000
  C   C553      1.0  0.01956  0.50879  0.83120  1.0000
  C   C554      1.0  0.12792  0.74037  0.81880  1.0000
  C   C555      1.0  0.14308  0.76288  0.82891  1.0000
  C   C556      1.0  0.21198  0.77841  0.76371  1.0000
  C   C557      1.0  0.10622  0.69585  0.76218  1.0000
  C   C558      1.0  0.06874  0.52791  0.77972  1.0000
  C   C559      1.0  0.12110  0.84970  0.89057  1.0000
  H   H457      1.0  0.14380  0.70256  0.75966  1.0000
  H   H458      1.0  0.07446  0.59134  0.81515  1.0000
  H   H459      1.0  0.13617  0.84673  0.78068  1.0000
  H   H460      1.0  0.13407  0.71708  0.81493  1.0000
  C   C560      1.0  0.21943  0.80031  0.87801  1.0000
  C   C561      1.0  0.10829  0.54982  0.77733  1.0000
  P   P18       1.0  0.17159  0.89451  0.76843  1.0000
  P   P19       1.0  0.17400  0.75442  0.83305  1.0000
  C   C562      1.0  0.18935  0.76514  0.80641  1.0000
  H   H461      1.0  0.15675  0.89605  0.85678  1.0000
  C   C563      1.0  0.20560  0.80447  0.89787  1.0000
  C   C564      1.0  0.23002  0.86975  0.80737  1.0000
  H   H462      1.0  0.04135  0.81291  0.96966  1.0000
  C   C565      1.0  0.18086  0.69208  0.82021  1.0000
  C   C566      1.0  0.17223  0.78029  0.87787  1.0000
  C   C567      1.0  0.18101  0.86564  0.81228  1.0000
  H   H463      1.0  0.15334  0.65410  0.78150  1.0000
  H   H464      1.0  0.22988  0.54802  0.72450  1.0000
  C   C568      1.0  0.17717  0.70112  0.86207  1.0000
  H   H465      1.0  0.18584  0.98403  0.71412  1.0000
  C   C569      1.0  0.18974  0.79071  0.76804  1.0000
  C   C570      1.0  0.17854  0.78441  0.78934  1.0000
  C   C571      1.0  0.14079  0.88445  0.86289  1.0000
  C   C572      1.0  0.13502  0.65988  0.77854  1.0000
  H   H466      1.0  0.18809  0.62425  0.85144  1.0000
  C   C573      1.0  0.17217  0.87025  0.74234  1.0000
  C   C574      1.0  0.18199  0.79480  0.89770  1.0000
  C   C575      1.0  0.15107  0.86226  0.73035  1.0000
  H   H467      1.0  0.18646  0.60502  0.67196  1.0000
  C   C576      1.0  0.18492  0.64886  0.84790  1.0000
  H   H468      1.0  0.11846  0.90559  0.83634  1.0000
  H   H469      1.0  0.13965  0.94794  0.77596  1.0000
  C   C577      1.0  0.08446  0.86530  0.93362  1.0000
  C   C578      1.0  0.17519  0.55657  0.67104  1.0000
  C   C579      1.0  0.19170  0.58099  0.66902  1.0000
  C   C580      1.0  0.20977  0.78579  0.85809  1.0000
  Fe  Fe42      1.0  0.24770  0.72878  0.71412  1.0000
  C   C581      1.0  0.01579  0.62594  0.97553  1.0000
  H   H470      1.0  0.24788  0.85989  0.71194  1.0000
  H   H471      1.0  0.09300  0.88698  0.96687  1.0000
  C   C582      1.0  0.21908  0.66345  0.54654  1.0000
  H   H472      1.0  0.25040  0.80206  0.70863  1.0000
  H   H473      1.0  0.18543  0.98910  0.85897  1.0000
  C   C583      1.0  0.02613  0.98223  0.81230  1.0000
  H   H474      1.0  0.00780  0.60465  0.96867  1.0000
  C   C584      1.0  0.12911  0.98077  0.87907  1.0000
  S   S77       1.0  0.02609  0.93126  0.78323  1.0000
  H   H475      1.0  0.16519  0.97857  0.82146  1.0000
  C   C585      1.0  0.04518  0.98502  0.85082  1.0000
  H   H476      1.0  0.13424  0.91150  0.97855  1.0000
  H   H477      1.0  0.00567  0.67841  0.85369  1.0000
  H   H478      1.0  0.01667  0.99375  0.79805  1.0000
  C   C586      1.0  0.21483  0.91963  0.97456  1.0000
  C   C587      1.0  0.21798  0.95200  0.97671  1.0000
  P   P20       1.0  0.16764  0.99634  0.90781  1.0000
  H   H479      1.0  0.20301  0.96741  0.97452  1.0000
  C   C588      1.0  0.15998  0.50373  0.87146  1.0000
  C   C589      1.0  0.15355  0.98679  0.87995  1.0000
  C   C590      1.0  0.18171  0.51012  0.86084  1.0000
  H   H480      1.0  0.24342  0.50646  0.69948  1.0000
  H   H481      1.0  0.01374  0.92256  0.88775  1.0000
  C   C591      1.0  0.22756  0.68515  0.56294  1.0000
  C   C592      1.0  0.01947  0.90093  0.87983  1.0000
  H   H482      1.0  0.11864  0.98115  0.89493  1.0000
  C   C593      1.0  0.00778  0.88953  0.85985  1.0000
  H   H483      1.0  0.13972  0.96789  0.98775  1.0000
  C   C594      1.0  0.24043  0.96441  0.98146  1.0000
  C   C595      1.0  0.24861  0.68130  0.51855  1.0000
  H   H484      1.0  0.25445  0.51966  0.75422  1.0000
  H   H485      1.0  0.25322  0.72143  0.57018  1.0000
  C   C596      1.0  0.27522  0.03575  0.40428  1.0000
  C   C597      1.0  0.26737  0.12494  0.10021  1.0000
  S   S78       1.0  0.30119  0.03164  0.44552  1.0000
  H   H486      1.0  0.27735  0.13668  0.06465  1.0000
  H   H487      1.0  0.35598  0.42568  0.20298  1.0000
  H   H488      1.0  0.40302  0.44425  0.11556  1.0000
  S   S79       1.0  0.46441  0.36158  0.23186  1.0000
  C   C598      1.0  0.48357  0.30362  0.43654  1.0000
  S   S80       1.0  0.47833  0.05484  0.43452  1.0000
  Fe  Fe43      1.0  0.28940  0.33417  0.16259  1.0000
  H   H489      1.0  0.48899  0.22505  0.44504  1.0000
  H   H490      1.0  0.48011  0.29184  0.37067  1.0000
  Fe  Fe44      1.0  0.33149  0.31740  0.19604  1.0000
  S   S81       1.0  0.31218  0.33187  0.22843  1.0000
  S   S82       1.0  0.36787  0.29481  0.19948  1.0000
  Fe  Fe45      1.0  0.28100  0.30685  0.21203  1.0000
  C   C599      1.0  0.26294  0.29216  0.09896  1.0000
  Fe  Fe46      1.0  0.30069  0.37346  0.20667  1.0000
  S   S83       1.0  0.30458  0.42390  0.21871  1.0000
  S   S84       1.0  0.30071  0.28953  0.18076  1.0000
  S   S85       1.0  0.32193  0.36051  0.17507  1.0000
  H   H491      1.0  0.28272  0.13823  0.18438  1.0000
  H   H492      1.0  0.35995  0.09620  0.44556  1.0000
  C   C600      1.0  0.28095  0.44215  0.23298  1.0000
  C   C601      1.0  0.28243  0.47442  0.23757  1.0000
  H   H493      1.0  0.32693  0.12333  0.42542  1.0000
  H   H494      1.0  0.48781  0.10958  0.48421  1.0000
  H   H495      1.0  0.38116  0.39069  0.18008  1.0000
  H   H496      1.0  0.27102  0.27835  0.11285  1.0000
  H   H497      1.0  0.46560  0.26321  0.42214  1.0000
  C   C602      1.0  0.36872  0.06863  0.41544  1.0000
  H   H498      1.0  0.35968  0.46133  0.33385  1.0000
  C   C603      1.0  0.28523  0.19214  0.24130  1.0000
  C   C604      1.0  0.28146  0.22371  0.23493  1.0000
  C   C605      1.0  0.34771  0.35278  0.10807  1.0000
  H   H499      1.0  0.30192  0.18139  0.23744  1.0000
  H   H500      1.0  0.29516  0.23706  0.22610  1.0000
  C   C606      1.0  0.43724  0.34186  0.22539  1.0000
  C   C607      1.0  0.41655  0.35962  0.22256  1.0000
  C   C608      1.0  0.39499  0.34535  0.21563  1.0000
  C   C609      1.0  0.39404  0.31332  0.21053  1.0000
  C   C610      1.0  0.41467  0.29553  0.21355  1.0000
  C   C611      1.0  0.43607  0.30960  0.22121  1.0000
  H   H501      1.0  0.41726  0.38460  0.22559  1.0000
  H   H502      1.0  0.37915  0.35912  0.21389  1.0000
  H   H503      1.0  0.41414  0.27072  0.20975  1.0000
  H   H504      1.0  0.45183  0.29566  0.22309  1.0000
  H   H505      1.0  0.31545  0.18824  0.44112  1.0000
  C   C612      1.0  0.28445  0.05233  0.42367  1.0000
  H   H506      1.0  0.38293  0.05652  0.42452  1.0000
  H   H507      1.0  0.47903  0.20923  0.48822  1.0000
  C   C613      1.0  0.34178  0.44940  0.17246  1.0000
  H   H508      1.0  0.37337  0.04421  0.38305  1.0000
  C   C614      1.0  0.27989  0.08445  0.42518  1.0000
  S   S86       1.0  0.27348  0.34514  0.12606  1.0000
  C   C615      1.0  0.44271  0.32941  0.15298  1.0000
  C   C616      1.0  0.26755  0.17443  0.25258  1.0000
  H   H509      1.0  0.28676  0.09758  0.43998  1.0000
  C   C617      1.0  0.41570  0.10484  0.46775  1.0000
  C   C618      1.0  0.43233  0.12243  0.45481  1.0000
  C   C619      1.0  0.45183  0.10772  0.44447  1.0000
  C   C620      1.0  0.45473  0.07531  0.44710  1.0000
  C   C621      1.0  0.43827  0.05797  0.46022  1.0000
  C   C622      1.0  0.41893  0.07258  0.47054  1.0000
  H   H510      1.0  0.43000  0.14743  0.45259  1.0000
  H   H511      1.0  0.46444  0.12134  0.43436  1.0000
  H   H512      1.0  0.27835  0.01087  0.40308  1.0000
  H   H513      1.0  0.29684  0.47629  0.37091  1.0000
  H   H514      1.0  0.39012  0.01918  0.29094  1.0000
  C   C623      1.0  0.35523  0.41185  0.28755  1.0000
  H   H515      1.0  0.28997  0.42894  0.32446  1.0000
  H   H516      1.0  0.42403  0.47188  0.37358  1.0000
  C   C624      1.0  0.33346  0.42121  0.27834  1.0000
  C   C625      1.0  0.27433  0.17789  0.08597  1.0000
  C   C626      1.0  0.42573  0.39002  0.15933  1.0000
  Fe  Fe47      1.0  0.32016  0.05151  0.47810  1.0000
  H   H517      1.0  0.40516  0.37695  0.04483  1.0000
  H   H518      1.0  0.27924  0.19397  0.07189  1.0000
  C   C627      1.0  0.50134  0.31422  0.45184  1.0000
  C   C628      1.0  0.41336  0.36925  0.14449  1.0000
  H   H519      1.0  0.44917  0.30581  0.15079  1.0000
  H   H520      1.0  0.30822  0.04684  0.31121  1.0000
  C   C629      1.0  0.33726  0.10649  0.41592  1.0000
  H   H521      1.0  0.38135  0.41889  0.31479  1.0000
  C   C630      1.0  0.43059  0.46592  0.33653  1.0000
  C   C631      1.0  0.26211  0.13651  0.12250  1.0000
  H   H522      1.0  0.47387  0.03526  0.26723  1.0000
  C   C632      1.0  0.45593  0.49558  0.36294  1.0000
  H   H523      1.0  0.32717  0.01707  0.38178  1.0000
  C   C633      1.0  0.36544  0.32387  0.14049  1.0000
  C   C634      1.0  0.36634  0.06283  0.33459  1.0000
  H   H524      1.0  0.41675  0.44877  0.24306  1.0000
  C   C635      1.0  0.34123  0.45096  0.14788  1.0000
  C   C636      1.0  0.37050  0.40977  0.14627  1.0000
  H   H525      1.0  0.25983  0.40017  0.23686  1.0000
  C   C637      1.0  0.49558  0.48233  0.23382  1.0000
  C   C638      1.0  0.27327  0.14563  0.08191  1.0000
  C   C639      1.0  0.30001  0.21139  0.16631  1.0000
  C   C640      1.0  0.32235  0.21236  0.17710  1.0000
  C   C641      1.0  0.33018  0.18687  0.19056  1.0000
  C   C642      1.0  0.38434  0.47438  0.24365  1.0000
  C   C643      1.0  0.25676  0.08288  0.38832  1.0000
  C   C644      1.0  0.40445  0.39167  0.06024  1.0000
  C   C645      1.0  0.46699  0.01906  0.28034  1.0000
  C   C646      1.0  0.38657  0.08045  0.34075  1.0000
  H   H526      1.0  0.31615  0.33206  0.09297  1.0000
  C   C647      1.0  0.40553  0.46359  0.25347  1.0000
  C   C648      1.0  0.47309  0.02294  0.30406  1.0000
  C   C649      1.0  0.41122  0.42324  0.05868  1.0000
  H   H527      1.0  0.44049  0.03300  0.46238  1.0000
  C   C650      1.0  0.49051  0.18941  0.48575  1.0000
  C   C651      1.0  0.28513  0.18520  0.16943  1.0000
  H   H528      1.0  0.35249  0.02718  0.31103  1.0000
  C   C652      1.0  0.36561  0.34996  0.12526  1.0000
  P   P21       1.0  0.38665  0.38156  0.12954  1.0000
  C   C653      1.0  0.39557  0.39805  0.10166  1.0000
  H   H529      1.0  0.41508  0.45125  0.33386  1.0000
  C   C654      1.0  0.46595  0.49141  0.32175  1.0000
  H   H530      1.0  0.46968  0.34197  0.17841  1.0000
  H   H531      1.0  0.33355  0.23302  0.17530  1.0000
  H   H532      1.0  0.34732  0.18792  0.19923  1.0000
  H   H533      1.0  0.26952  0.13615  0.33298  1.0000
  H   H534      1.0  0.29429  0.23111  0.15564  1.0000
  C   C655      1.0  0.34819  0.30041  0.13804  1.0000
  C   C656      1.0  0.35542  0.43108  0.13479  1.0000
  S   S87       1.0  0.35897  0.04176  0.48382  1.0000
  C   C657      1.0  0.26925  0.18949  0.10826  1.0000
  H   H535      1.0  0.45504  0.39574  0.18361  1.0000
  C   C658      1.0  0.36779  0.04071  0.31650  1.0000
  C   C659      1.0  0.46192  0.46645  0.26796  1.0000
  C   C660      1.0  0.26411  0.48960  0.24933  1.0000
  H   H536      1.0  0.45939  0.43664  0.44640  1.0000
  H   H537      1.0  0.41618  0.46647  0.07751  1.0000
  H   H538      1.0  0.34806  0.28063  0.15016  1.0000
  H   H539      1.0  0.35401  0.43165  0.11577  1.0000
  C   C661      1.0  0.40923  0.05345  0.31143  1.0000
  C   C662      1.0  0.31795  0.01346  0.36522  1.0000
  H   H540      1.0  0.32599  0.40945  0.26309  1.0000
  C   C663      1.0  0.33059  0.30319  0.12074  1.0000
  H   H541      1.0  0.29022  0.17046  0.30420  1.0000
  H   H542      1.0  0.31233  0.48975  0.41012  1.0000
  C   C664      1.0  0.47828  0.44219  0.41404  1.0000
  H   H543      1.0  0.42573  0.04994  0.30242  1.0000
  C   C665      1.0  0.40794  0.07561  0.32930  1.0000
  C   C666      1.0  0.33026  0.46031  0.30904  1.0000
  C   C667      1.0  0.31996  0.03527  0.34665  1.0000
  C   C668      1.0  0.26169  0.05090  0.38658  1.0000
  H   H544      1.0  0.30389  0.45163  0.28177  1.0000
  H   H545      1.0  0.47366  0.32029  0.42595  1.0000
  H   H546      1.0  0.41956  0.41365  0.16191  1.0000
  C   C669      1.0  0.33035  0.32938  0.10578  1.0000
  H   H547      1.0  0.41373  0.32313  0.12882  1.0000
  C   C670      1.0  0.35219  0.45066  0.31826  1.0000
  S   S88       1.0  0.39141  0.12360  0.48079  1.0000
  H   H548      1.0  0.38579  0.09807  0.35434  1.0000
  H   H549      1.0  0.31724  0.11202  0.38411  1.0000
  C   C671      1.0  0.36459  0.42652  0.30752  1.0000
  C   C672      1.0  0.33181  0.09990  0.39240  1.0000
  C   C673      1.0  0.42115  0.36313  0.28532  1.0000
  C   C674      1.0  0.43762  0.34933  0.30055  1.0000
  C   C675      1.0  0.45423  0.36804  0.31237  1.0000
  C   C676      1.0  0.45460  0.40048  0.30873  1.0000
  C   C677      1.0  0.43789  0.41465  0.29372  1.0000
  C   C678      1.0  0.42122  0.39566  0.28192  1.0000
  P   P22       1.0  0.43934  0.45661  0.28902  1.0000
  C   C679      1.0  0.41204  0.47146  0.27663  1.0000
  H   H550      1.0  0.31671  0.28561  0.11937  1.0000
  H   H551      1.0  0.25465  0.03769  0.37188  1.0000
  C   C680      1.0  0.32155  0.18403  0.47848  1.0000
  C   C681      1.0  0.30710  0.03019  0.32571  1.0000
  C   C682      1.0  0.39687  0.37900  0.08171  1.0000
  C   C683      1.0  0.27348  0.16726  0.48117  1.0000
  H   H552      1.0  0.50103  0.45064  0.38460  1.0000
  C   C684      1.0  0.45438  0.34980  0.16841  1.0000
  C   C685      1.0  0.47477  0.44293  0.25686  1.0000
  H   H553      1.0  0.48905  0.34835  0.36341  1.0000
  H   H554      1.0  0.40873  0.34847  0.27563  1.0000
  H   H555      1.0  0.43790  0.32404  0.30270  1.0000
  H   H556      1.0  0.46743  0.35736  0.32372  1.0000
  H   H557      1.0  0.46824  0.41439  0.31738  1.0000
  H   H558      1.0  0.40847  0.40549  0.26979  1.0000
  H   H559      1.0  0.34020  0.18987  0.47741  1.0000
  H   H560      1.0  0.41710  0.43303  0.04204  1.0000
  H   H561      1.0  0.46328  0.43554  0.40312  1.0000
  H   H562      1.0  0.32187  0.14040  0.20347  1.0000
  H   H563      1.0  0.32918  0.46680  0.13899  1.0000
  H   H564      1.0  0.47833  0.49654  0.30787  1.0000
  C   C686      1.0  0.40305  0.42950  0.10014  1.0000
  H   H565      1.0  0.47190  0.41836  0.26109  1.0000
  H   H566      1.0  0.37813  0.32202  0.15480  1.0000
  C   C687      1.0  0.30763  0.18295  0.45804  1.0000
  C   C688      1.0  0.37078  0.40820  0.17094  1.0000
  S   S89       1.0  0.26772  0.35003  0.19314  1.0000
  C   C689      1.0  0.35656  0.42804  0.18398  1.0000
  C   C690      1.0  0.29240  0.00380  0.32341  1.0000
  C   C691      1.0  0.44604  0.38019  0.17140  1.0000
  C   C692      1.0  0.28371  0.17461  0.45934  1.0000
  C   C693      1.0  0.47614  0.44297  0.43852  1.0000
  C   C694      1.0  0.43568  0.47730  0.35906  1.0000
  H   H567      1.0  0.50339  0.02450  0.46969  1.0000
  C   C695      1.0  0.31586  0.16015  0.19294  1.0000
  C   C696      1.0  0.32205  0.49690  0.39458  1.0000
  H   H568      1.0  0.33004  0.46381  0.18261  1.0000
  C   C697      1.0  0.36979  0.49381  0.25662  1.0000
  C   C698      1.0  0.35576  0.09101  0.42737  1.0000
  H   H569      1.0  0.25818  0.12012  0.13664  1.0000
  C   C699      1.0  0.49144  0.45091  0.23978  1.0000
  C   C700      1.0  0.44553  0.47324  0.31762  1.0000
  C   C701      1.0  0.28802  0.13239  0.32930  1.0000
  C   C702      1.0  0.29972  0.15184  0.31322  1.0000
  C   C703      1.0  0.32348  0.14678  0.30831  1.0000
  C   C704      1.0  0.33557  0.12220  0.31945  1.0000
  C   C705      1.0  0.32379  0.10219  0.33536  1.0000
  C   C706      1.0  0.29991  0.10750  0.34016  1.0000
  C   C707      1.0  0.29348  0.15920  0.18230  1.0000
  P   P23       1.0  0.33875  0.06961  0.34941  1.0000
  S   S90       1.0  0.27235  0.13424  0.25870  1.0000
  H   H570      1.0  0.25536  0.25238  0.07665  1.0000
  C   C708      1.0  0.26616  0.09955  0.40761  1.0000
  H   H571      1.0  0.39205  0.35436  0.08272  1.0000
  C   C709      1.0  0.28315  0.47892  0.32545  1.0000
  C   C710      1.0  0.50190  0.33355  0.37222  1.0000
  S   S91       1.0  0.49614  0.32411  0.28712  1.0000
  H   H572      1.0  0.42348  0.08922  0.33421  1.0000
  C   C711      1.0  0.49536  0.13309  0.48397  1.0000
  C   C712      1.0  0.34496  0.07775  0.38010  1.0000
  C   C713      1.0  0.36327  0.06185  0.39194  1.0000
  S   S92       1.0  0.25704  0.06949  0.30620  1.0000
  C   C714      1.0  0.41064  0.44210  0.07865  1.0000
  S   S93       1.0  0.32291  0.10278  0.48611  1.0000
  H   H573      1.0  0.50105  0.43258  0.23107  1.0000
  C   C715      1.0  0.25696  0.09402  0.48588  1.0000
  H   H574      1.0  0.33237  0.16171  0.29558  1.0000
  H   H575      1.0  0.35391  0.11873  0.31524  1.0000
  H   H576      1.0  0.29035  0.09218  0.35212  1.0000
  C   C716      1.0  0.32102  0.44529  0.28898  1.0000
  H   H577      1.0  0.34672  0.37341  0.09687  1.0000
  H   H578      1.0  0.36462  0.39290  0.27935  1.0000
  C   C717      1.0  0.46419  0.00215  0.32101  1.0000
  P   P24       1.0  0.49198  0.45366  0.48417  1.0000
  C   C718      1.0  0.42247  0.33921  0.14079  1.0000
  C   C719      1.0  0.31330  0.48933  0.37222  1.0000
  C   C720      1.0  0.25563  0.06216  0.48038  1.0000
  H   H579      1.0  0.28207  0.00039  0.30742  1.0000
  H   H580      1.0  0.26291  0.12436  0.40887  1.0000
  C   C721      1.0  0.47902  0.27146  0.43442  1.0000
  H   H581      1.0  0.46906  0.00523  0.33937  1.0000
  C   C722      1.0  0.26154  0.32474  0.10132  1.0000
  C   C723      1.0  0.49689  0.30181  0.37634  1.0000
  H   H582      1.0  0.26708  0.09988  0.09720  1.0000
  C   C724      1.0  0.38917  0.03607  0.30499  1.0000
  H   H583      1.0  0.26926  0.04637  0.48647  1.0000
  H   H584      1.0  0.25605  0.23661  0.18813  1.0000
  C   C725      1.0  0.48088  0.15906  0.48683  1.0000
  C   C726      1.0  0.49968  0.45047  0.40359  1.0000
  C   C727      1.0  0.26236  0.16896  0.12649  1.0000
  P   P25       1.0  0.31368  0.49109  0.32294  1.0000
  C   C728      1.0  0.39762  0.49176  0.28931  1.0000
  H   H585      1.0  0.48490  0.04190  0.30934  1.0000
  H   H586      1.0  0.27085  0.21449  0.11124  1.0000
  C   C729      1.0  0.26001  0.23790  0.24014  1.0000
  C   C730      1.0  0.49535  0.45246  0.45268  1.0000
  C   C731      1.0  0.27674  0.44697  0.32546  1.0000
  C   C732      1.0  0.49216  0.24986  0.44768  1.0000
  Fe  Fe48      1.0  0.49786  0.34298  0.25011  1.0000
  H   H587      1.0  0.27017  0.01426  0.26125  1.0000
  H   H588      1.0  0.37917  0.46762  0.22598  1.0000
  H   H589      1.0  0.27345  0.17359  0.44323  1.0000
  C   C733      1.0  0.26105  0.42508  0.24019  1.0000
  P   P26       1.0  0.25639  0.18403  0.15537  1.0000
  H   H590      1.0  0.29771  0.48774  0.23186  1.0000
  H   H591      1.0  0.40678  0.05883  0.48096  1.0000
  H   H592      1.0  0.46210  0.15562  0.48966  1.0000
  Fe  Fe49      1.0  0.28271  0.42665  0.77079  1.0000
  S   S94       1.0  0.31315  0.40586  0.79069  1.0000
  S   S95       1.0  0.25866  0.18946  0.68516  1.0000
  H   H593      1.0  0.27601  0.41667  0.69470  1.0000
  H   H594      1.0  0.28618  0.27220  0.78663  1.0000
  C   C734      1.0  0.35693  0.35059  0.62352  1.0000
  C   C735      1.0  0.47214  0.46501  0.67697  1.0000
  H   H595      1.0  0.32769  0.05338  0.57466  1.0000
  Fe  Fe50      1.0  0.29839  0.43138  0.82189  1.0000
  H   H596      1.0  0.39686  0.35247  0.57889  1.0000
  C   C736      1.0  0.31505  0.02911  0.72228  1.0000
  H   H597      1.0  0.32814  0.46725  0.71553  1.0000
  C   C737      1.0  0.48850  0.34891  0.50508  1.0000
  Fe  Fe51      1.0  0.35052  0.03314  0.52194  1.0000
  S   S96       1.0  0.35498  0.08370  0.53242  1.0000
  H   H598      1.0  0.25513  0.10395  0.58839  1.0000
  Fe  Fe52      1.0  0.31631  0.08932  0.52420  1.0000
  S   S97       1.0  0.28789  0.10508  0.55027  1.0000
  S   S98       1.0  0.31147  0.03801  0.51561  1.0000
  Fe  Fe53      1.0  0.46769  0.08952  0.73645  1.0000
  S   S99       1.0  0.45671  0.11088  0.70168  1.0000
  S   S100      1.0  0.43657  0.08143  0.76163  1.0000
  Fe  Fe54      1.0  0.48522  0.14677  0.70774  1.0000
  S   S101      1.0  0.48070  0.19955  0.70356  1.0000
  Fe  Fe55      1.0  0.48516  0.08081  0.68683  1.0000
  C   C738      1.0  0.43130  0.03368  0.55956  1.0000
  S   S102      1.0  0.49480  0.12803  0.74368  1.0000
  C   C739      1.0  0.38900  0.48296  0.76121  1.0000
  Fe  Fe56      1.0  0.45330  0.37578  0.57380  1.0000
  S   S103      1.0  0.47688  0.41165  0.59065  1.0000
  S   S104      1.0  0.42788  0.38871  0.54415  1.0000
  Fe  Fe57      1.0  0.47739  0.32152  0.60051  1.0000
  S   S105      1.0  0.47782  0.26840  0.60367  1.0000
  Fe  Fe58      1.0  0.47136  0.38384  0.62388  1.0000
  S   S106      1.0  0.46308  0.40687  0.65823  1.0000
  C   C740      1.0  0.32325  0.46751  0.60208  1.0000
  S   S107      1.0  0.44522  0.35021  0.60762  1.0000
  S   S108      1.0  0.48339  0.34400  0.56497  1.0000
  C   C741      1.0  0.47958  0.21822  0.67565  1.0000
  C   C742      1.0  0.47959  0.20107  0.65480  1.0000
  C   C743      1.0  0.47878  0.21680  0.63289  1.0000
  C   C744      1.0  0.47821  0.24970  0.63162  1.0000
  C   C745      1.0  0.47809  0.26684  0.65248  1.0000
  C   C746      1.0  0.47866  0.25112  0.67440  1.0000
  H   H599      1.0  0.37431  0.46098  0.58393  1.0000
  H   H600      1.0  0.48301  0.03614  0.50632  1.0000
  H   H601      1.0  0.29269  0.37725  0.62428  1.0000
  C   C747      1.0  0.47869  0.44256  0.66046  1.0000
  S   S109      1.0  0.25919  0.39998  0.74527  1.0000
  H   H602      1.0  0.37703  0.38769  0.60632  1.0000
  H   H603      1.0  0.45787  0.45995  0.68899  1.0000
  H   H604      1.0  0.32786  0.38914  0.59385  1.0000
  C   C748      1.0  0.37009  0.46352  0.54617  1.0000
  C   C749      1.0  0.38047  0.45244  0.56725  1.0000
  C   C750      1.0  0.39875  0.43030  0.56688  1.0000
  C   C751      1.0  0.40618  0.41818  0.54545  1.0000
  C   C752      1.0  0.39566  0.42903  0.52442  1.0000
  C   C753      1.0  0.37798  0.45201  0.52473  1.0000
  H   H605      1.0  0.28794  0.21185  0.58473  1.0000
  H   H606      1.0  0.40670  0.42198  0.58311  1.0000
  C   C754      1.0  0.27269  0.39476  0.87626  1.0000
  H   H607      1.0  0.39952  0.00878  0.60732  1.0000
  H   H608      1.0  0.31486  0.18067  0.70663  1.0000
  C   C755      1.0  0.46765  0.36578  0.50221  1.0000
  H   H609      1.0  0.31907  0.48867  0.59225  1.0000
  C   C756      1.0  0.27987  0.13469  0.57077  1.0000
  C   C757      1.0  0.28940  0.16516  0.57028  1.0000
  C   C758      1.0  0.26474  0.27428  0.86288  1.0000
  H   H610      1.0  0.35939  0.36381  0.86416  1.0000
  H   H611      1.0  0.30203  0.08698  0.59835  1.0000
  H   H612      1.0  0.30262  0.17130  0.55743  1.0000
  C   C759      1.0  0.45386  0.47014  0.51208  1.0000
  Fe  Fe59      1.0  0.29063  0.49101  0.79229  1.0000
  C   C760      1.0  0.47451  0.01650  0.65161  1.0000
  S   S110      1.0  0.32130  0.47423  0.81450  1.0000
  C   C761      1.0  0.35783  0.05890  0.59785  1.0000
  C   C762      1.0  0.28456  0.31107  0.74629  1.0000
  C   C763      1.0  0.28240  0.34346  0.74992  1.0000
  C   C764      1.0  0.43736  0.47875  0.62554  1.0000
  C   C765      1.0  0.36399  0.29822  0.60876  1.0000
  S   S111      1.0  0.26691  0.45027  0.80216  1.0000
  C   C766      1.0  0.31679  0.15712  0.69997  1.0000
  C   C767      1.0  0.33450  0.06387  0.59073  1.0000
  C   C768      1.0  0.27281  0.47515  0.65336  1.0000
  C   C769      1.0  0.33798  0.48287  0.70404  1.0000
  H   H613      1.0  0.29548  0.37297  0.90213  1.0000
  C   C770      1.0  0.29358  0.32419  0.68004  1.0000
  C   C771      1.0  0.38203  0.08222  0.67539  1.0000
  C   C772      1.0  0.42175  0.01847  0.76097  1.0000
  C   C773      1.0  0.41665  0.04939  0.76708  1.0000
  C   C774      1.0  0.39508  0.05524  0.77829  1.0000
  C   C775      1.0  0.37878  0.03073  0.78320  1.0000
  H   H614      1.0  0.26007  0.01945  0.75260  1.0000
  C   C776      1.0  0.29326  0.36278  0.64000  1.0000
  H   H615      1.0  0.39098  0.07895  0.78332  1.0000
  H   H616      1.0  0.36241  0.03570  0.79197  1.0000
  C   C777      1.0  0.31630  0.20591  0.82261  1.0000
  S   S112      1.0  0.29677  0.40559  0.85764  1.0000
  H   H617      1.0  0.33989  0.30804  0.63646  1.0000
  H   H618      1.0  0.48015  0.17571  0.65557  1.0000
  C   C778      1.0  0.33597  0.21992  0.65155  1.0000
  C   C779      1.0  0.31287  0.22821  0.65692  1.0000
  C   C780      1.0  0.30844  0.24503  0.67734  1.0000
  C   C781      1.0  0.32705  0.25380  0.69238  1.0000
  C   C782      1.0  0.35039  0.24595  0.68693  1.0000
  C   C783      1.0  0.35463  0.22849  0.66660  1.0000
  P   P27       1.0  0.37470  0.25569  0.70658  1.0000
  C   C784      1.0  0.39689  0.27983  0.69219  1.0000
  C   C785      1.0  0.36403  0.27887  0.73070  1.0000
  C   C786      1.0  0.35940  0.31087  0.72696  1.0000
  C   C787      1.0  0.35106  0.32924  0.74529  1.0000
  C   C788      1.0  0.34744  0.31594  0.76751  1.0000
  C   C789      1.0  0.35192  0.28415  0.77143  1.0000
  C   C790      1.0  0.36021  0.26563  0.75312  1.0000
  C   C791      1.0  0.41555  0.29266  0.70563  1.0000
  C   C792      1.0  0.43232  0.31248  0.69512  1.0000
  C   C793      1.0  0.43052  0.31990  0.67118  1.0000
  C   C794      1.0  0.41191  0.30755  0.65772  1.0000
  C   C795      1.0  0.39507  0.28777  0.66817  1.0000
  C   C796      1.0  0.38640  0.21873  0.71721  1.0000
  C   C797      1.0  0.41076  0.21271  0.71729  1.0000
  C   C798      1.0  0.41922  0.18382  0.72551  1.0000
  C   C799      1.0  0.40353  0.16059  0.73339  1.0000
  C   C800      1.0  0.37928  0.16621  0.73307  1.0000
  C   C801      1.0  0.37076  0.19517  0.72510  1.0000
  H   H619      1.0  0.33926  0.20640  0.63589  1.0000
  H   H620      1.0  0.29831  0.22123  0.64543  1.0000
  H   H621      1.0  0.29041  0.25090  0.68165  1.0000
  H   H622      1.0  0.32294  0.26622  0.70833  1.0000
  H   H623      1.0  0.37238  0.22131  0.66252  1.0000
  H   H624      1.0  0.36241  0.32172  0.70993  1.0000
  H   H625      1.0  0.34745  0.35388  0.74236  1.0000
  H   H626      1.0  0.34115  0.33037  0.78167  1.0000
  H   H627      1.0  0.34905  0.27389  0.78871  1.0000
  H   H628      1.0  0.36373  0.24119  0.75672  1.0000
  H   H629      1.0  0.41710  0.28736  0.72427  1.0000
  H   H630      1.0  0.44676  0.32214  0.70553  1.0000
  H   H631      1.0  0.44354  0.33533  0.66308  1.0000
  H   H632      1.0  0.41053  0.31338  0.63915  1.0000
  H   H633      1.0  0.38067  0.27915  0.65740  1.0000
  H   H634      1.0  0.42340  0.22990  0.71090  1.0000
  H   H635      1.0  0.43802  0.17929  0.72572  1.0000
  H   H636      1.0  0.41023  0.13820  0.73969  1.0000
  H   H637      1.0  0.36714  0.14809  0.73910  1.0000
  H   H638      1.0  0.35194  0.19928  0.72522  1.0000
  C   C802      1.0  0.29400  0.25360  0.79700  1.0000
  H   H639      1.0  0.38548  0.04166  0.72737  1.0000
  H   H640      1.0  0.34123  0.32763  0.89339  1.0000
  H   H641      1.0  0.30771  0.29360  0.88199  1.0000
  H   H642      1.0  0.42080  0.00807  0.64555  1.0000
  C   C803      1.0  0.45589  0.03593  0.56139  1.0000
  H   H643      1.0  0.42521  0.03025  0.71208  1.0000
  C   C804      1.0  0.41892  0.05382  0.54448  1.0000
  H   H644      1.0  0.40159  0.14222  0.68383  1.0000
  H   H645      1.0  0.36998  0.46011  0.50842  1.0000
  C   C805      1.0  0.33644  0.14941  0.68653  1.0000
  H   H646      1.0  0.48365  0.45599  0.74384  1.0000
  H   H647      1.0  0.28072  0.16070  0.51844  1.0000
  C   C806      1.0  0.33840  0.11927  0.67714  1.0000
  H   H648      1.0  0.48772  0.32444  0.51029  1.0000
  C   C807      1.0  0.31540  0.30912  0.86891  1.0000
  C   C808      1.0  0.31525  0.20463  0.79804  1.0000
  H   H649      1.0  0.40127  0.41973  0.50777  1.0000
  H   H650      1.0  0.30467  0.04683  0.73085  1.0000
  C   C809      1.0  0.27249  0.32914  0.66768  1.0000
  H   H651      1.0  0.49174  0.27668  0.55240  1.0000
  H   H652      1.0  0.34990  0.16698  0.68330  1.0000
  H   H653      1.0  0.42178  0.01607  0.56960  1.0000
  H   H654      1.0  0.29365  0.30920  0.69551  1.0000
  P   P28       1.0  0.28111  0.28673  0.83722  1.0000
  C   C810      1.0  0.39306  0.18304  0.62306  1.0000
  S   S113      1.0  0.49508  0.05733  0.72106  1.0000
  H   H655      1.0  0.30014  0.29908  0.75256  1.0000
  H   H656      1.0  0.42134  0.09229  0.51979  1.0000
  S   S114      1.0  0.30322  0.46934  0.75907  1.0000
  C   C811      1.0  0.25998  0.34227  0.82191  1.0000
  C   C812      1.0  0.27186  0.43922  0.68673  1.0000
  H   H657      1.0  0.33081  0.39697  0.69085  1.0000
  H   H658      1.0  0.29093  0.02409  0.69297  1.0000
  H   H659      1.0  0.32153  0.07362  0.67415  1.0000
  S   S115      1.0  0.27021  0.25360  0.73020  1.0000
  C   C813      1.0  0.41388  0.46878  0.62723  1.0000
  C   C814      1.0  0.28778  0.16774  0.50155  1.0000
  C   C815      1.0  0.26258  0.35930  0.74125  1.0000
  C   C816      1.0  0.37508  0.06936  0.69717  1.0000
  C   C817      1.0  0.27740  0.37845  0.89747  1.0000
  P   P29       1.0  0.34168  0.37673  0.64290  1.0000
  C   C818      1.0  0.38460  0.34283  0.59171  1.0000
  H   H660      1.0  0.41120  0.08676  0.65106  1.0000
  H   H661      1.0  0.26201  0.22523  0.85342  1.0000
  C   C819      1.0  0.33532  0.44167  0.63838  1.0000
  H   H662      1.0  0.43837  0.01337  0.75273  1.0000
  H   H663      1.0  0.35594  0.40862  0.72545  1.0000
  H   H664      1.0  0.35803  0.07414  0.70454  1.0000
  C   C820      1.0  0.25941  0.46122  0.69956  1.0000
  H   H665      1.0  0.42312  0.21173  0.63315  1.0000
  H   H666      1.0  0.30731  0.23181  0.85343  1.0000
  H   H667      1.0  0.40911  0.44487  0.62282  1.0000
  H   H668      1.0  0.37871  0.48109  0.63671  1.0000
  C   C821      1.0  0.29410  0.25445  0.82171  1.0000
  H   H669      1.0  0.39990  0.05172  0.54287  1.0000
  C   C822      1.0  0.39887  0.15360  0.66690  1.0000
  H   H670      1.0  0.39344  0.37839  0.65057  1.0000
  C   C823      1.0  0.47182  0.99938  0.67258  1.0000
  H   H671      1.0  0.31732  0.11240  0.63402  1.0000
  H   H672      1.0  0.38892  0.29523  0.58041  1.0000
  H   H673      1.0  0.41807  0.39110  0.68513  1.0000
  H   H674      1.0  0.41381  0.45756  0.74028  1.0000
  C   C824      1.0  0.32274  0.43867  0.59070  1.0000
  H   H675      1.0  0.31007  0.33217  0.81147  1.0000
  H   H676      1.0  0.31830  0.43771  0.57207  1.0000
  H   H677      1.0  0.25629  0.31790  0.67360  1.0000
  H   H678      1.0  0.36914  0.04476  0.58706  1.0000
  H   H679      1.0  0.28774  0.42884  0.65354  1.0000
  C   C825      1.0  0.49242  0.11165  0.58294  1.0000
  C   C826      1.0  0.41396  0.17827  0.66029  1.0000
  C   C827      1.0  0.43373  0.48737  0.51726  1.0000
  C   C828      1.0  0.37802  0.15819  0.62955  1.0000
  C   C829      1.0  0.38486  0.38470  0.66674  1.0000
  H   H680      1.0  0.46011  0.45280  0.52470  1.0000
  S   S116      1.0  0.48121  0.05696  0.65156  1.0000
  H   H681      1.0  0.34006  0.44345  0.65683  1.0000
  C   C830      1.0  0.35242  0.31812  0.62421  1.0000
  C   C831      1.0  0.33482  0.41252  0.62703  1.0000
  C   C832      1.0  0.36013  0.38600  0.66814  1.0000
  H   H682      1.0  0.42820  0.18564  0.67201  1.0000
  C   C833      1.0  0.38006  0.31057  0.59252  1.0000
  Fe  Fe60      1.0  0.36131  0.09245  0.49389  1.0000
  C   C834      1.0  0.33630  0.34937  0.83583  1.0000
  H   H683      1.0  0.32314  0.18522  0.78891  1.0000
  C   C835      1.0  0.38099  0.14305  0.65143  1.0000
  C   C836      1.0  0.39896  0.39181  0.68639  1.0000
  C   C837      1.0  0.32048  0.09694  0.68145  1.0000
  H   H684      1.0  0.34188  0.02844  0.74940  1.0000
  H   H685      1.0  0.37174  0.46552  0.71550  1.0000
  C   C838      1.0  0.39674  0.48939  0.63517  1.0000
  H   H686      1.0  0.28693  0.08763  0.69791  1.0000
  H   H687      1.0  0.33073  0.33363  0.68198  1.0000
  H   H688      1.0  0.25601  0.35173  0.63785  1.0000
  C   C839      1.0  0.26677  0.29419  0.73438  1.0000
  C   C840      1.0  0.25842  0.29655  0.87965  1.0000
  C   C841      1.0  0.32949  0.46902  0.62588  1.0000
  C   C842      1.0  0.31454  0.33835  0.67241  1.0000
  C   C843      1.0  0.34980  0.39498  0.68940  1.0000
  C   C844      1.0  0.28110  0.18811  0.58593  1.0000
  C   C845      1.0  0.42003  0.05688  0.68019  1.0000
  C   C846      1.0  0.41305  0.04437  0.70178  1.0000
  C   C847      1.0  0.27236  0.34829  0.64760  1.0000
  C   C848      1.0  0.33461  0.32813  0.87543  1.0000
  C   C849      1.0  0.48364  0.49441  0.67753  1.0000
  C   C850      1.0  0.30597  0.23086  0.83440  1.0000
  C   C851      1.0  0.31446  0.35841  0.65264  1.0000
  S   S117      1.0  0.34629  0.49001  0.54760  1.0000
  H   H689      1.0  0.39941  0.40569  0.72284  1.0000
  C   C852      1.0  0.36258  0.48167  0.70392  1.0000
  H   H690      1.0  0.36030  0.27322  0.60919  1.0000
  C   C853      1.0  0.39062  0.05071  0.71030  1.0000
  H   H691      1.0  0.49237  0.26434  0.51007  1.0000
  H   H692      1.0  0.30361  0.22794  0.76616  1.0000
  C   C854      1.0  0.33602  0.01875  0.73275  1.0000
  C   C855      1.0  0.37324  0.36275  0.60724  1.0000
  C   C856      1.0  0.26022  0.49736  0.66617  1.0000
  S   S118      1.0  0.36971  0.44984  0.76485  1.0000
  H   H693      1.0  0.28385  0.14055  0.71462  1.0000
  C   C857      1.0  0.32844  0.41127  0.60307  1.0000
  C   C858      1.0  0.46824  0.05859  0.54816  1.0000
  C   C859      1.0  0.45564  0.07898  0.53319  1.0000
  C   C860      1.0  0.43105  0.07654  0.53136  1.0000
  C   C861      1.0  0.40481  0.07607  0.66718  1.0000
  H   H694      1.0  0.48509  0.14886  0.60700  1.0000
  H   H695      1.0  0.27079  0.35405  0.83502  1.0000
  C   C862      1.0  0.47210  0.00108  0.63007  1.0000
  C   C863      1.0  0.27849  0.44615  0.66361  1.0000
  C   C864      1.0  0.34496  0.34839  0.85894  1.0000
  H   H696      1.0  0.39099  0.19423  0.60596  1.0000
  C   C865      1.0  0.30423  0.22859  0.78525  1.0000
  H   H697      1.0  0.29613  0.35619  0.75920  1.0000
  H   H698      1.0  0.46477  0.09684  0.52299  1.0000
  H   H699      1.0  0.50101  0.19580  0.80760  1.0000
  C   C866      1.0  0.40981  0.47989  0.74804  1.0000
  H   H700      1.0  0.47761  0.29218  0.65172  1.0000
  C   C867      1.0  0.38851  0.40006  0.70759  1.0000
  Fe  Fe61      1.0  0.33293  0.45068  0.78142  1.0000
  H   H701      1.0  0.27792  0.47979  0.63537  1.0000
  H   H702      1.0  0.47855  0.26454  0.69047  1.0000
  C   C868      1.0  0.31698  0.33056  0.82928  1.0000
  C   C869      1.0  0.41114  0.19292  0.63835  1.0000
  C   C870      1.0  0.29920  0.13464  0.70437  1.0000
  H   H703      1.0  0.36440  0.15050  0.61728  1.0000
  C   C871      1.0  0.36396  0.40163  0.70907  1.0000
  C   C872      1.0  0.50142  0.04289  0.50470  1.0000
  C   C873      1.0  0.30614  0.31069  0.84589  1.0000
  C   C874      1.0  0.49039  0.41299  0.49329  1.0000
  H   H704      1.0  0.34409  0.36559  0.82326  1.0000
  H   H705      1.0  0.43757  0.05245  0.67385  1.0000
  C   C875      1.0  0.32003  0.08286  0.60409  1.0000
  H   H706      1.0  0.38461  0.06784  0.62373  1.0000
  C   C876      1.0  0.30098  0.10465  0.69500  1.0000
  C   C877      1.0  0.36652  0.07215  0.61869  1.0000
  C   C878      1.0  0.35194  0.09084  0.63251  1.0000
  C   C879      1.0  0.32879  0.09688  0.62457  1.0000
  P   P30       1.0  0.36322  0.10902  0.65912  1.0000
  C   C880      1.0  0.25783  0.24282  0.86622  1.0000
  H   H707      1.0  0.50262  0.43186  0.63254  1.0000
  H   H708      1.0  0.49298  0.19554  0.76456  1.0000
  H   H709      1.0  0.45071  0.35437  0.50515  1.0000
  H   H710      1.0  0.32253  0.17634  0.51600  1.0000
  H   H711      1.0  0.42453  0.48311  0.53360  1.0000
  H   H712      1.0  0.45071  0.46260  0.61976  1.0000
  H   H713      1.0  0.46504  0.01997  0.57313  1.0000
  H   H714      1.0  0.47341  0.01434  0.61385  1.0000
  H   H715      1.0  0.32522  0.18760  0.83252  1.0000
  C   C881      1.0  0.26379  0.18076  0.60282  1.0000
  H   H716      1.0  0.48289  0.09437  0.59340  1.0000
  H   H717      1.0  0.47856  0.20348  0.61683  1.0000
  S   S119      1.0  0.50308  0.35350  0.61918  1.0000
  H   H718      1.0  0.26306  0.35727  0.92919  1.0000
  C   C882      1.0  0.38393  0.99980  0.77720  1.0000
  C   C883      1.0  0.31160  0.17650  0.50023  1.0000
  H   H719      1.0  0.27145  0.10243  0.49676  1.0000
  C   C884      1.0  0.26270  0.12734  0.58779  1.0000
  C   C885      1.0  0.50113  0.45348  0.73651  1.0000
  C   C886      1.0  0.49710  0.44926  0.64497  1.0000
  C   C887      1.0  0.25503  0.14997  0.60396  1.0000
  C   C888      1.0  0.26122  0.30966  0.81900  1.0000
  C   C889      1.0  0.30729  0.01621  0.70102  1.0000
  H   H720      1.0  0.26310  0.32105  0.87715  1.0000
  H   H721      1.0  0.49051  0.41680  0.71269  1.0000
  P   P31       1.0  0.49981  0.06342  0.55124  1.0000
  H   H722      1.0  0.47309  0.01112  0.68931  1.0000
  C   C890      1.0  0.49333  0.14272  0.59056  1.0000
  S   S120      1.0  0.25731  0.04030  0.80092  1.0000
  C   C891      1.0  0.25901  0.36940  0.91285  1.0000
  H   H723      1.0  0.50060  0.45819  0.56054  1.0000
  H   H724      1.0  0.32983  0.49146  0.63454  1.0000
  S   S121      1.0  0.36697  0.99972  0.54910  1.0000
  C   C892      1.0  0.25456  0.04362  0.75250  1.0000
  C   C893      1.0  0.50318  0.10316  0.56179  1.0000
  C   C894      1.0  0.50432  0.16585  0.57680  1.0000
  H   H725      1.0  0.45209  0.41016  0.49411  1.0000
  C   C895      1.0  0.46853  0.39767  0.49624  1.0000
  C   C896      1.0  0.46560  0.47517  0.49073  1.0000
  Fe  Fe62      1.0  0.30972  0.54920  0.47433  1.0000
  C   C897      1.0  0.28687  0.68126  0.31343  1.0000
  S   S122      1.0  0.28910  0.53156  0.44200  1.0000
  H   H726      1.0  0.48501  0.57127  0.47450  1.0000
  S   S123      1.0  0.34735  0.53435  0.48194  1.0000
  H   H727      1.0  0.26530  0.51450  0.25269  1.0000
  S   S124      1.0  0.44915  0.83423  0.26427  1.0000
  S   S125      1.0  0.26115  0.78154  0.22823  1.0000
  S   S126      1.0  0.44976  0.56279  0.40155  1.0000
  Fe  Fe63      1.0  0.28739  0.84384  0.15647  1.0000
  C   C898      1.0  0.28876  0.72233  0.14890  1.0000
  H   H728      1.0  0.35053  0.95538  0.32043  1.0000
  Fe  Fe64      1.0  0.33284  0.82681  0.18507  1.0000
  S   S127      1.0  0.31629  0.83718  0.21967  1.0000
  S   S128      1.0  0.37135  0.81117  0.18334  1.0000
  Fe  Fe65      1.0  0.28447  0.81190  0.20489  1.0000
  H   H729      1.0  0.36993  0.72352  0.19103  1.0000
  Fe  Fe66      1.0  0.30175  0.87994  0.20163  1.0000
  S   S129      1.0  0.30560  0.92843  0.21754  1.0000
  S   S130      1.0  0.30167  0.79829  0.17107  1.0000
  S   S131      1.0  0.32011  0.87116  0.16745  1.0000
  C   C899      1.0  0.31324  0.58391  0.30302  1.0000
  H   H730      1.0  0.39366  0.96178  0.24494  1.0000
  C   C900      1.0  0.47695  0.87581  0.48658  1.0000
  C   C901      1.0  0.29430  0.69143  0.15496  1.0000
  H   H731      1.0  0.40174  0.90475  0.24325  1.0000
  P   P32       1.0  0.42702  0.93832  0.28134  1.0000
  H   H732      1.0  0.31308  0.55222  0.24834  1.0000
  C   C902      1.0  0.26601  0.53674  0.39909  1.0000
  H   H733      1.0  0.44641  0.83348  0.34103  1.0000
  C   C903      1.0  0.40681  0.77652  0.30423  1.0000
  H   H734      1.0  0.43058  0.62930  0.38769  1.0000
  C   C904      1.0  0.28095  0.69037  0.22151  1.0000
  C   C905      1.0  0.27969  0.72314  0.21832  1.0000
  C   C906      1.0  0.45624  0.96012  0.47369  1.0000
  H   H735      1.0  0.29312  0.67703  0.21115  1.0000
  H   H736      1.0  0.29067  0.73486  0.20543  1.0000
  C   C907      1.0  0.42806  0.82734  0.24139  1.0000
  C   C908      1.0  0.43434  0.81676  0.21911  1.0000
  C   C909      1.0  0.41678  0.81169  0.20164  1.0000
  C   C910      1.0  0.39279  0.81743  0.20610  1.0000
  C   C911      1.0  0.38654  0.82778  0.22848  1.0000
  C   C912      1.0  0.40405  0.83251  0.24599  1.0000
  H   H737      1.0  0.45271  0.81263  0.21528  1.0000
  H   H738      1.0  0.42184  0.80363  0.18444  1.0000
  H   H739      1.0  0.36823  0.83219  0.23227  1.0000
  H   H740      1.0  0.39898  0.84074  0.26313  1.0000
  C   C913      1.0  0.44257  0.85368  0.33003  1.0000
  C   C914      1.0  0.27968  0.55252  0.41624  1.0000
  C   C915      1.0  0.37658  0.50284  0.27931  1.0000
  C   C916      1.0  0.43956  0.97595  0.48692  1.0000
  H   H741      1.0  0.29509  0.59699  0.42578  1.0000
  P   P33       1.0  0.33934  0.75443  0.28290  1.0000
  C   C917      1.0  0.38604  0.77312  0.29094  1.0000
  H   H742      1.0  0.41448  0.88539  0.20488  1.0000
  C   C918      1.0  0.46701  0.91497  0.22460  1.0000
  C   C919      1.0  0.29980  0.79250  0.27774  1.0000
  H   H743      1.0  0.43517  0.62295  0.47365  1.0000
  C   C920      1.0  0.40429  0.59683  0.46242  1.0000
  C   C921      1.0  0.42794  0.60694  0.46072  1.0000
  C   C922      1.0  0.44226  0.59651  0.44229  1.0000
  C   C923      1.0  0.43292  0.57606  0.42538  1.0000
  C   C924      1.0  0.40931  0.56599  0.42712  1.0000
  C   C925      1.0  0.39508  0.57623  0.44558  1.0000
  S   S132      1.0  0.38653  0.61069  0.48544  1.0000
  H   H744      1.0  0.46038  0.60456  0.44101  1.0000
  H   H745      1.0  0.40196  0.55024  0.41408  1.0000
  H   H746      1.0  0.37684  0.56861  0.44650  1.0000
  H   H747      1.0  0.37590  0.71263  0.26602  1.0000
  H   H748      1.0  0.35621  0.52444  0.33921  1.0000
  C   C926      1.0  0.26397  0.74053  0.23166  1.0000
  C   C927      1.0  0.25715  0.80316  0.09458  1.0000
  C   C928      1.0  0.45818  0.66417  0.38491  1.0000
  C   C929      1.0  0.31460  0.52574  0.28083  1.0000
  H   H749      1.0  0.27416  0.66435  0.32038  1.0000
  C   C930      1.0  0.34804  0.74327  0.25372  1.0000
  H   H750      1.0  0.43054  0.53282  0.46786  1.0000
  C   C931      1.0  0.26871  0.98973  0.25665  1.0000
  C   C932      1.0  0.46042  0.87554  0.32497  1.0000
  H   H751      1.0  0.29992  0.99049  0.23519  1.0000
  C   C933      1.0  0.27949  0.90219  0.03413  1.0000
  C   C934      1.0  0.50006  0.81812  0.37206  1.0000
  C   C935      1.0  0.27571  0.60040  0.39272  1.0000
  H   H752      1.0  0.29372  0.65437  0.28253  1.0000
  C   C936      1.0  0.31404  0.55338  0.26738  1.0000
  H   H753      1.0  0.35254  0.73426  0.33160  1.0000
  C   C937      1.0  0.41980  0.90895  0.23795  1.0000
  H   H754      1.0  0.31256  0.68410  0.15544  1.0000
  C   C938      1.0  0.33630  0.75520  0.23377  1.0000
  H   H755      1.0  0.38555  0.78224  0.27306  1.0000
  H   H756      1.0  0.48545  0.91637  0.21974  1.0000
  S   S133      1.0  0.26800  0.63353  0.24119  1.0000
  H   H757      1.0  0.29689  0.68679  0.45298  1.0000
  H   H758      1.0  0.36543  0.51825  0.28924  1.0000
  H   H759      1.0  0.31176  0.60367  0.26790  1.0000
  C   C939      1.0  0.46582  0.49796  0.26153  1.0000
  H   H760      1.0  0.26930  0.82145  0.27216  1.0000
  C   C940      1.0  0.49373  0.91344  0.39625  1.0000
  C   C941      1.0  0.38395  0.94849  0.30337  1.0000
  H   H761      1.0  0.33555  0.75782  0.19590  1.0000
  C   C942      1.0  0.30086  0.84934  0.27727  1.0000
  H   H762      1.0  0.27676  0.91239  0.07118  1.0000
  C   C943      1.0  0.45240  0.99397  0.27349  1.0000
  C   C944      1.0  0.31363  0.55628  0.31651  1.0000
  H   H763      1.0  0.33523  0.87075  0.28103  1.0000
  Fe  Fe67      1.0  0.48888  0.57299  0.39710  1.0000
  C   C945      1.0  0.28474  0.58443  0.41275  1.0000
  H   H764      1.0  0.50402  0.56187  0.27602  1.0000
  H   H765      1.0  0.31158  0.60633  0.31165  1.0000
  C   C946      1.0  0.32532  0.84886  0.28070  1.0000
  C   C947      1.0  0.47102  0.50262  0.34431  1.0000
  H   H766      1.0  0.46866  0.81299  0.39290  1.0000
  C   C948      1.0  0.28471  0.89769  0.05805  1.0000
  C   C949      1.0  0.31924  0.72530  0.29500  1.0000
  H   H767      1.0  0.48859  0.98445  0.43800  1.0000
  C   C950      1.0  0.28942  0.88260  0.01721  1.0000
  H   H768      1.0  0.49411  0.60517  0.24803  1.0000
  H   H769      1.0  0.48581  0.53019  0.23985  1.0000
  H   H770      1.0  0.50185  0.73588  0.27118  1.0000
  C   C951      1.0  0.38445  0.95958  0.26148  1.0000
  H   H771      1.0  0.25583  0.83297  0.00626  1.0000
  C   C952      1.0  0.28377  0.94447  0.23569  1.0000
  H   H772      1.0  0.45993  0.60207  0.32801  1.0000
  C   C953      1.0  0.43289  0.90555  0.30081  1.0000
  H   H773      1.0  0.28243  0.71384  0.34163  1.0000
  H   H774      1.0  0.48549  0.69782  0.37670  1.0000
  C   C954      1.0  0.34412  0.74775  0.21128  1.0000
  H   H775      1.0  0.31430  0.50361  0.27183  1.0000
  H   H776      1.0  0.26366  0.90169  0.23976  1.0000
  C   C955      1.0  0.36699  0.72270  0.25086  1.0000
  C   C956      1.0  0.31414  0.69739  0.28289  1.0000
  C   C957      1.0  0.29809  0.67548  0.29217  1.0000
  H   H777      1.0  0.44294  0.96113  0.32762  1.0000
  C   C958      1.0  0.30450  0.85841  0.02467  1.0000
  C   C959      1.0  0.30956  0.85391  0.04862  1.0000
  H   H778      1.0  0.38986  0.70032  0.22616  1.0000
  C   C960      1.0  0.48773  0.81532  0.39318  1.0000
  C   C961      1.0  0.26636  0.67478  0.23782  1.0000
  C   C962      1.0  0.37483  0.71546  0.22832  1.0000
  C   C963      1.0  0.26510  0.92619  0.24440  1.0000
  C   C964      1.0  0.32434  0.79173  0.28159  1.0000
  C   C965      1.0  0.41998  0.85745  0.32030  1.0000
  H   H779      1.0  0.39788  0.88502  0.29744  1.0000
  C   C966      1.0  0.45976  0.92681  0.24620  1.0000
  C   C967      1.0  0.40807  0.76431  0.32709  1.0000
  C   C968      1.0  0.34288  0.51447  0.39700  1.0000
  H   H780      1.0  0.31207  0.84267  0.01201  1.0000
  H   H781      1.0  0.31218  0.55796  0.33547  1.0000
  C   C969      1.0  0.36354  0.72828  0.20853  1.0000
  H   H782      1.0  0.29188  0.87152  0.27496  1.0000
  C   C970      1.0  0.48989  0.96431  0.42659  1.0000
  H   H783      1.0  0.34045  0.68266  0.45375  1.0000
  H   H784      1.0  0.45630  0.89080  0.19302  1.0000
  C   C971      1.0  0.26551  0.50150  0.32772  1.0000
  C   C972      1.0  0.48734  0.96878  0.40229  1.0000
  H   H785      1.0  0.48762  0.94695  0.36824  1.0000
  C   C973      1.0  0.31338  0.58245  0.27844  1.0000
  C   C974      1.0  0.48630  0.60444  0.26536  1.0000
  H   H786      1.0  0.30320  0.86968  0.08392  1.0000
  C   C975      1.0  0.49178  0.57998  0.28098  1.0000
  C   C976      1.0  0.33062  0.68037  0.46994  1.0000
  C   C977      1.0  0.48923  0.94337  0.38712  1.0000
  C   C978      1.0  0.43597  0.92451  0.25284  1.0000
  C   C979      1.0  0.26169  0.58474  0.37578  1.0000
  H   H787      1.0  0.37136  0.53786  0.37893  1.0000
  H   H788      1.0  0.45211  0.95503  0.45548  1.0000
  H   H789      1.0  0.45582  0.51640  0.26964  1.0000
  C   C980      1.0  0.31460  0.52690  0.30552  1.0000
  H   H790      1.0  0.35602  0.82064  0.28475  1.0000
  C   C981      1.0  0.45736  0.49843  0.47504  1.0000
  C   C982      1.0  0.30752  0.73122  0.31614  1.0000
  H   H791      1.0  0.26996  0.52622  0.32845  1.0000
  C   C983      1.0  0.49617  0.90885  0.42059  1.0000
  C   C984      1.0  0.36744  0.74613  0.32367  1.0000
  C   C985      1.0  0.44015  0.64500  0.37595  1.0000
  C   C986      1.0  0.43706  0.51529  0.48018  1.0000
  C   C987      1.0  0.47113  0.68356  0.36974  1.0000
  C   C988      1.0  0.46632  0.68354  0.34553  1.0000
  C   C989      1.0  0.44819  0.66435  0.33631  1.0000
  C   C990      1.0  0.43515  0.64506  0.35179  1.0000
  P   P34       1.0  0.44393  0.66052  0.30481  1.0000
  C   C991      1.0  0.41309  0.65254  0.29846  1.0000
  C   C992      1.0  0.45257  0.69609  0.28924  1.0000
  C   C993      1.0  0.43550  0.71564  0.27873  1.0000
  C   C994      1.0  0.44238  0.74210  0.26563  1.0000
  C   C995      1.0  0.46627  0.74952  0.26313  1.0000
  C   C996      1.0  0.48334  0.73025  0.27343  1.0000
  C   C997      1.0  0.47660  0.70364  0.28642  1.0000
  C   C998      1.0  0.40644  0.63240  0.28007  1.0000
  C   C999      1.0  0.38254  0.62749  0.27457  1.0000
  C   C1000     1.0  0.36515  0.64269  0.28732  1.0000
  C   C1001     1.0  0.37161  0.66280  0.30561  1.0000
  C   C1002     1.0  0.39549  0.66781  0.31113  1.0000
  C   C1003     1.0  0.46186  0.62832  0.29510  1.0000
  C   C1004     1.0  0.47131  0.62846  0.27231  1.0000
  C   C1005     1.0  0.28814  0.82117  0.27576  1.0000
  H   H792      1.0  0.28963  0.77100  0.27559  1.0000
  H   H793      1.0  0.40630  0.84015  0.32374  1.0000
  C   C1006     1.0  0.46694  0.60313  0.31040  1.0000
  H   H794      1.0  0.27931  0.62521  0.39054  1.0000
  H   H795      1.0  0.42432  0.76662  0.33723  1.0000
  C   C1007     1.0  0.41520  0.88311  0.30555  1.0000
  H   H796      1.0  0.47728  0.69792  0.33419  1.0000
  H   H797      1.0  0.42174  0.62905  0.34515  1.0000
  H   H798      1.0  0.41688  0.71064  0.28042  1.0000
  H   H799      1.0  0.42925  0.75712  0.25742  1.0000
  H   H800      1.0  0.47154  0.77024  0.25317  1.0000
  H   H801      1.0  0.26756  0.78984  0.10713  1.0000
  H   H802      1.0  0.49023  0.68890  0.29406  1.0000
  H   H803      1.0  0.41966  0.62067  0.26984  1.0000
  H   H804      1.0  0.37746  0.61194  0.26035  1.0000
  H   H805      1.0  0.34665  0.63895  0.28299  1.0000
  H   H806      1.0  0.35808  0.67453  0.31547  1.0000
  H   H807      1.0  0.40027  0.68379  0.32515  1.0000
  H   H808      1.0  0.46749  0.64738  0.26004  1.0000
  H   H809      1.0  0.46003  0.50421  0.38041  1.0000
  H   H810      1.0  0.31052  0.75307  0.32533  1.0000
  H   H811      1.0  0.32086  0.83491  0.05435  1.0000
  H   H812      1.0  0.46250  0.66343  0.40355  1.0000
  C   C1008     1.0  0.39617  0.94904  0.28197  1.0000
  H   H813      1.0  0.30273  0.73883  0.14444  1.0000
  C   C1009     1.0  0.29046  0.98224  0.34197  1.0000
  Fe  Fe68      1.0  0.48968  0.83659  0.26628  1.0000
  H   H814      1.0  0.48636  0.56043  0.31555  1.0000
  H   H815      1.0  0.42200  0.78856  0.29668  1.0000
  C   C1010     1.0  0.38840  0.74914  0.33681  1.0000
  H   H816      1.0  0.32197  0.69269  0.26601  1.0000
  H   H817      1.0  0.38939  0.73973  0.35459  1.0000
  C   C1011     1.0  0.29155  0.70916  0.32539  1.0000
  H   H818      1.0  0.35114  0.97353  0.24595  1.0000
  S   S134      1.0  0.26842  0.85589  0.18983  1.0000
  H   H819      1.0  0.32126  0.77044  0.23544  1.0000
  C   C1012     1.0  0.33706  0.82022  0.28274  1.0000
  H   H820      1.0  0.47810  0.87233  0.33201  1.0000
  P   P35       1.0  0.49899  0.92904  0.46741  1.0000
  H   H821      1.0  0.40248  0.49926  0.30683  1.0000
  H   H822      1.0  0.26189  0.51211  0.40157  1.0000
  C   C1013     1.0  0.36605  0.75820  0.30059  1.0000
  C   C1014     1.0  0.29966  0.87353  0.06529  1.0000
  C   C1015     1.0  0.36041  0.96682  0.26204  1.0000
  C   C1016     1.0  0.45570  0.90117  0.31019  1.0000
  C   C1017     1.0  0.28554  0.97623  0.24191  1.0000
  H   H823      1.0  0.49065  0.81804  0.35537  1.0000
  C   C1018     1.0  0.30599  0.68267  0.46958  1.0000
  C   C1019     1.0  0.35999  0.95625  0.30394  1.0000
  H   H824      1.0  0.46999  0.91722  0.30583  1.0000
  H   H825      1.0  0.49051  0.81316  0.43105  1.0000
  C   C1020     1.0  0.42703  0.89760  0.21620  1.0000
  C   C1021     1.0  0.49440  0.93431  0.43599  1.0000
  H   H826      1.0  0.48684  0.51656  0.34738  1.0000
  H   H827      1.0  0.26741  0.92056  0.02911  1.0000
  H   H828      1.0  0.33285  0.89661  0.99600  1.0000
  S   S135      1.0  0.25508  0.57014  0.28990  1.0000
  C   C1022     1.0  0.48274  0.50586  0.24465  1.0000
  H   H829      1.0  0.28057  0.64612  0.16542  1.0000
  H   H830      1.0  0.42300  0.98313  0.47890  1.0000
  C   C1023     1.0  0.34814  0.96497  0.28321  1.0000
  C   C1024     1.0  0.30331  0.98699  0.36281  1.0000
  C   C1025     1.0  0.48187  0.57918  0.30335  1.0000
  C   C1026     1.0  0.49724  0.88807  0.47573  1.0000
  H   H831      1.0  0.49566  0.89390  0.38434  1.0000
  H   H832      1.0  0.27129  0.79023  0.46071  1.0000
  H   H833      1.0  0.28561  0.74077  0.47812  1.0000
  H   H834      1.0  0.49967  0.88550  0.42722  1.0000
  C   C1027     1.0  0.35527  0.52409  0.37699  1.0000
  C   C1028     1.0  0.27630  0.67004  0.16049  1.0000
  S   S136      1.0  0.26739  0.85606  0.12196  1.0000
  C   C1029     1.0  0.50003  0.81544  0.41465  1.0000
  S   S137      1.0  0.50222  0.81932  0.30188  1.0000
  C   C1030     1.0  0.47759  0.95044  0.48413  1.0000
  C   C1031     1.0  0.32546  0.49921  0.35201  1.0000
  C   C1032     1.0  0.44416  0.97226  0.29032  1.0000
  S   S138      1.0  0.50175  0.59794  0.36463  1.0000
  H   H835      1.0  0.47287  0.93706  0.25791  1.0000
  C   C1033     1.0  0.26724  0.74244  0.47288  1.0000
  S   S139      1.0  0.31516  0.59986  0.48356  1.0000
  C   C1034     1.0  0.34662  0.51647  0.35456  1.0000
  C   C1035     1.0  0.25914  0.77068  0.46317  1.0000
  H   H836      1.0  0.34920  0.52090  0.41441  1.0000
  H   H837      1.0  0.39287  0.94181  0.31959  1.0000
  H   H838      1.0  0.32946  0.97040  0.28348  1.0000
  P   P36       1.0  0.26135  0.68084  0.48954  1.0000
  H   H839      1.0  0.30147  0.97062  0.37740  1.0000
  C   C1036     1.0  0.45062  0.90051  0.20955  1.0000
  H   H840      1.0  0.35329  0.50191  0.24899  1.0000
  H   H841      1.0  0.44797  0.99118  0.25502  1.0000
  C   C1037     1.0  0.25708  0.55269  0.37902  1.0000
  H   H842      1.0  0.26139  0.75625  0.14432  1.0000
  C   C1038     1.0  0.44957  0.97708  0.31423  1.0000
  H   H843      1.0  0.27867  0.96217  0.34028  1.0000
  H   H844      1.0  0.46650  0.50365  0.45878  1.0000
  H   H845      1.0  0.48416  0.99214  0.39525  1.0000
  C   C1039     1.0  0.26525  0.73209  0.14880  1.0000
  H   H846      1.0  0.46179  0.89041  0.48973  1.0000
  Fe  Fe69      1.0  0.28037  0.93045  0.77674  1.0000
  S   S140      1.0  0.30986  0.91549  0.80074  1.0000
  C   C1040     1.0  0.30098  0.88986  0.68791  1.0000
  C   C1041     1.0  0.27271  0.67067  0.61036  1.0000
  C   C1042     1.0  0.27693  0.59253  0.65209  1.0000
  H   H847      1.0  0.40985  0.97015  0.76141  1.0000
  C   C1043     1.0  0.25578  0.64713  0.60638  1.0000
  C   C1044     1.0  0.44545  0.83434  0.67350  1.0000
  Fe  Fe70      1.0  0.28808  0.93645  0.82968  1.0000
  C   C1045     1.0  0.48894  0.58394  0.53368  1.0000
  C   C1046     1.0  0.44375  0.50926  0.63190  1.0000
  C   C1047     1.0  0.46858  0.96849  0.62937  1.0000
  C   C1048     1.0  0.41136  0.90118  0.73614  1.0000
  Fe  Fe71      1.0  0.33611  0.52603  0.51936  1.0000
  S   S141      1.0  0.34349  0.57548  0.53077  1.0000
  H   H848      1.0  0.33913  0.66390  0.52807  1.0000
  Fe  Fe72      1.0  0.30603  0.58597  0.52107  1.0000
  S   S142      1.0  0.27840  0.60405  0.54691  1.0000
  S   S143      1.0  0.29804  0.53597  0.51102  1.0000
  Fe  Fe73      1.0  0.47455  0.57784  0.73269  1.0000
  S   S144      1.0  0.47008  0.59037  0.69444  1.0000
  S   S145      1.0  0.44140  0.56663  0.75434  1.0000
  H   H849      1.0  0.36537  0.98772  0.73056  1.0000
  H   H850      1.0  0.48070  0.84123  0.72208  1.0000
  C   C1049     1.0  0.25952  0.79512  0.98204  1.0000
  C   C1050     1.0  0.37377  0.86165  0.60709  1.0000
  Fe  Fe74      1.0  0.48978  0.63529  0.70226  1.0000
  C   C1051     1.0  0.29171  0.58911  0.69915  1.0000
  Fe  Fe75      1.0  0.46109  0.87282  0.56557  1.0000
  C   C1052     1.0  0.41337  0.52601  0.57090  1.0000
  S   S146      1.0  0.43626  0.88483  0.53524  1.0000
  Fe  Fe76      1.0  0.48318  0.82091  0.59643  1.0000
  H   H851      1.0  0.28822  0.79906  0.92986  1.0000
  Fe  Fe77      1.0  0.47461  0.88597  0.61610  1.0000
  C   C1053     1.0  0.25551  0.61087  0.75121  1.0000
  C   C1054     1.0  0.26838  0.78548  0.96049  1.0000
  S   S147      1.0  0.45036  0.84989  0.59976  1.0000
  S   S148      1.0  0.49182  0.84058  0.56041  1.0000
  C   C1055     1.0  0.48110  0.70846  0.66923  1.0000
  C   C1056     1.0  0.46652  0.65115  0.59600  1.0000
  H   H852      1.0  0.27914  0.60803  0.78119  1.0000
  C   C1057     1.0  0.26884  0.59486  0.76846  1.0000
  C   C1058     1.0  0.27898  0.53575  0.58645  1.0000
  S   S149      1.0  0.26129  0.68477  0.69793  1.0000
  P   P37       1.0  0.28182  0.88656  0.98630  1.0000
  C   C1059     1.0  0.47085  0.62960  0.57816  1.0000
  H   H853      1.0  0.29564  0.85281  0.94319  1.0000
  C   C1060     1.0  0.46695  0.95113  0.65028  1.0000
  C   C1061     1.0  0.33906  0.52448  0.67473  1.0000
  S   S150      1.0  0.48742  0.76818  0.60167  1.0000
  C   C1062     1.0  0.38418  0.51207  0.77112  1.0000
  C   C1063     1.0  0.42038  0.72145  0.63683  1.0000
  C   C1064     1.0  0.38636  0.96816  0.54411  1.0000
  C   C1065     1.0  0.40007  0.95699  0.56309  1.0000
  C   C1066     1.0  0.41571  0.93201  0.56035  1.0000
  C   C1067     1.0  0.41724  0.91705  0.53870  1.0000
  C   C1068     1.0  0.40328  0.92774  0.51967  1.0000
  C   C1069     1.0  0.38809  0.95351  0.52227  1.0000
  C   C1070     1.0  0.43163  0.57459  0.54286  1.0000
  H   H854      1.0  0.42625  0.92389  0.57515  1.0000
  H   H855      1.0  0.40438  0.91625  0.50284  1.0000
  C   C1071     1.0  0.25664  0.91179  0.98222  1.0000
  H   H856      1.0  0.36840  0.51485  0.78141  1.0000
  C   C1072     1.0  0.25505  0.54501  0.75324  1.0000
  C   C1073     1.0  0.29522  0.65118  0.57689  1.0000
  C   C1074     1.0  0.27766  0.62870  0.57211  1.0000
  C   C1075     1.0  0.42668  0.52999  0.63982  1.0000
  C   C1076     1.0  0.37549  0.50137  0.68902  1.0000
  H   H857      1.0  0.47589  0.50304  0.54865  1.0000
  C   C1077     1.0  0.49691  0.71727  0.63007  1.0000
  C   C1078     1.0  0.46780  0.96678  0.67189  1.0000
  H   H858      1.0  0.28529  0.88631  0.69836  1.0000
  C   C1079     1.0  0.36699  0.84078  0.69868  1.0000
  C   C1080     1.0  0.27891  0.84467  0.76218  1.0000
  C   C1081     1.0  0.28044  0.81186  0.76021  1.0000
  C   C1082     1.0  0.39848  0.54287  0.55582  1.0000
  C   C1083     1.0  0.47614  0.59831  0.58387  1.0000
  C   C1084     1.0  0.36384  0.52271  0.67410  1.0000
  H   H859      1.0  0.28694  0.85647  0.77706  1.0000
  H   H860      1.0  0.28967  0.79852  0.77364  1.0000
  C   C1085     1.0  0.31455  0.73153  0.78524  1.0000
  C   C1086     1.0  0.40298  0.52016  0.64161  1.0000
  H   H861      1.0  0.38243  0.90776  0.59378  1.0000
  H   H862      1.0  0.42937  0.74707  0.60523  1.0000
  H   H863      1.0  0.48198  0.84707  0.67855  1.0000
  H   H864      1.0  0.31546  0.93635  0.91522  1.0000
  H   H865      1.0  0.35636  0.93872  0.93134  1.0000
  H   H866      1.0  0.46211  0.51662  0.63113  1.0000
  H   H867      1.0  0.32951  0.54098  0.66373  1.0000
  C   C1087     1.0  0.42120  0.53424  0.75563  1.0000
  C   C1088     1.0  0.40020  0.53743  0.76842  1.0000
  C   C1089     1.0  0.26998  0.79631  0.74100  1.0000
  S   S151      1.0  0.36428  0.96763  0.78327  1.0000
  P   P38       1.0  0.47718  0.56928  0.56107  1.0000
  H   H868      1.0  0.39648  0.55957  0.77668  1.0000
  C   C1090     1.0  0.48145  0.95569  0.50826  1.0000
  H   H869      1.0  0.31408  0.98287  0.67392  1.0000
  S   S152      1.0  0.28406  0.91052  0.86512  1.0000
  P   P39       1.0  0.38077  0.54574  0.65335  1.0000
  H   H870      1.0  0.43230  0.55324  0.64504  1.0000
  H   H871      1.0  0.46954  0.63726  0.55996  1.0000
  H   H872      1.0  0.43404  0.90068  0.70587  1.0000
  H   H873      1.0  0.41729  0.88118  0.65811  1.0000
  C   C1091     1.0  0.37077  0.96851  0.66177  1.0000
  C   C1092     1.0  0.26095  0.88048  0.90135  1.0000
  C   C1093     1.0  0.37882  0.93203  0.70656  1.0000
  C   C1094     1.0  0.41952  0.62842  0.68911  1.0000
  C   C1095     1.0  0.43744  0.53335  0.57194  1.0000
  H   H874      1.0  0.29373  0.85057  0.66535  1.0000
  H   H875      1.0  0.46633  0.78094  0.64741  1.0000
  C   C1096     1.0  0.41702  0.90744  0.71267  1.0000
  C   C1097     1.0  0.44389  0.82778  0.72245  1.0000
  C   C1098     1.0  0.40758  0.56719  0.54187  1.0000
  H   H876      1.0  0.29270  0.63879  0.65203  1.0000
  C   C1099     1.0  0.25968  0.94441  0.98424  1.0000
  C   C1100     1.0  0.27726  0.53598  0.61102  1.0000
  C   C1101     1.0  0.34125  0.98174  0.70105  1.0000
  H   H877      1.0  0.37989  0.53711  0.55491  1.0000
  H   H878      1.0  0.46103  0.74691  0.68277  1.0000
  H   H879      1.0  0.35741  0.77322  0.66814  1.0000
  C   C1102     1.0  0.25816  0.62648  0.58726  1.0000
  S   S153      1.0  0.30621  0.98380  0.82577  1.0000
  Fe  Fe78      1.0  0.32535  0.96410  0.79458  1.0000
  H   H880      1.0  0.31050  0.65299  0.56572  1.0000
  H   H881      1.0  0.37936  0.86014  0.70049  1.0000
  C   C1103     1.0  0.37298  0.92460  0.72991  1.0000
  C   C1104     1.0  0.38547  0.89066  0.60770  1.0000
  S   S154      1.0  0.28288  0.54296  0.79345  1.0000
  H   H882      1.0  0.46708  0.95693  0.61263  1.0000
  C   C1105     1.0  0.40118  0.89748  0.62614  1.0000
  H   H883      1.0  0.39858  0.75379  0.68638  1.0000
  C   C1106     1.0  0.38929  0.90958  0.74470  1.0000
  C   C1107     1.0  0.28952  0.61751  0.66217  1.0000
  H   H884      1.0  0.34127  0.95882  0.63817  1.0000
  C   C1108     1.0  0.39289  0.98352  0.66377  1.0000
  C   C1109     1.0  0.42355  0.82213  0.70887  1.0000
  H   H885      1.0  0.33008  0.85853  0.64188  1.0000
  C   C1110     1.0  0.37163  0.81611  0.68327  1.0000
  H   H886      1.0  0.29599  0.53728  0.57801  1.0000
  H   H887      1.0  0.46721  0.97419  0.54023  1.0000
  H   H888      1.0  0.30583  0.69030  0.59858  1.0000
  C   C1111     1.0  0.46492  0.83695  0.71158  1.0000
  C   C1112     1.0  0.34629  0.84066  0.71189  1.0000
  H   H889      1.0  0.38488  0.90512  0.76298  1.0000
  C   C1113     1.0  0.28119  0.80658  0.94652  1.0000
  H   H890      1.0  0.36828  0.52375  0.60557  1.0000
  H   H891      1.0  0.30580  0.63553  0.69372  1.0000
  S   S155      1.0  0.48328  0.91060  0.58215  1.0000
  H   H892      1.0  0.26539  0.76160  0.95471  1.0000
  H   H893      1.0  0.29649  0.58830  0.71769  1.0000
  C   C1114     1.0  0.26839  0.56193  0.76975  1.0000
  C   C1115     1.0  0.29688  0.61577  0.68568  1.0000
  C   C1116     1.0  0.41174  0.72343  0.65972  1.0000
  C   C1117     1.0  0.40494  0.77923  0.65391  1.0000
  C   C1118     1.0  0.32042  0.99278  0.69033  1.0000
  C   C1119     1.0  0.42155  0.74827  0.62255  1.0000
  S   S156      1.0  0.46445  0.90991  0.64991  1.0000
  C   C1120     1.0  0.33407  0.79187  0.69380  1.0000
  H   H894      1.0  0.28316  0.91486  0.93941  1.0000
  H   H895      1.0  0.43824  0.59395  0.53222  1.0000
  H   H896      1.0  0.42296  0.64770  0.65423  1.0000
  H   H897      1.0  0.39863  0.96764  0.58008  1.0000
  H   H898      1.0  0.41050  0.91985  0.62648  1.0000
  C   C1121     1.0  0.42408  0.82599  0.68429  1.0000
  H   H899      1.0  0.37747  0.96165  0.50753  1.0000
  H   H900      1.0  0.39603  0.58037  0.53021  1.0000
  C   C1122     1.0  0.46569  0.84015  0.68711  1.0000
  S   S157      1.0  0.49258  0.62398  0.74089  1.0000
  H   H901      1.0  0.27461  0.54444  0.70035  1.0000
  S   S158      1.0  0.29694  0.97736  0.76856  1.0000
  C   C1123     1.0  0.36137  0.56065  0.63058  1.0000
  C   C1124     1.0  0.34811  0.58776  0.63459  1.0000
  C   C1125     1.0  0.33261  0.59909  0.61722  1.0000
  C   C1126     1.0  0.33010  0.58327  0.59593  1.0000
  C   C1127     1.0  0.34292  0.55608  0.59205  1.0000
  C   C1128     1.0  0.35858  0.54482  0.60919  1.0000
  C   C1129     1.0  0.37777  0.83938  0.62491  1.0000
  C   C1130     1.0  0.44678  0.55743  0.55771  1.0000
  H   H902      1.0  0.41453  0.60277  0.72153  1.0000
  H   H903      1.0  0.34955  0.59996  0.65119  1.0000
  H   H904      1.0  0.32243  0.62005  0.62021  1.0000
  H   H905      1.0  0.31809  0.59188  0.58242  1.0000
  H   H906      1.0  0.34065  0.54362  0.57569  1.0000
  S   S159      1.0  0.26963  0.69942  0.63268  1.0000
  Fe  Fe79      1.0  0.35225  0.58450  0.49278  1.0000
  H   H907      1.0  0.42969  0.64707  0.69733  1.0000
  C   C1131     1.0  0.33673  0.91979  0.67964  1.0000
  C   C1132     1.0  0.31652  0.91449  0.69330  1.0000
  H   H908      1.0  0.28383  0.70310  0.77749  1.0000
  H   H909      1.0  0.42407  0.88994  0.74775  1.0000
  H   H910      1.0  0.49709  0.94700  0.51710  1.0000
  C   C1133     1.0  0.27913  0.56413  0.68916  1.0000
  H   H911      1.0  0.36176  0.85638  0.59264  1.0000
  C   C1134     1.0  0.30258  0.70649  0.77462  1.0000
  H   H912      1.0  0.42712  0.69948  0.63045  1.0000
  H   H913      1.0  0.40763  0.81431  0.71760  1.0000
  H   H914      1.0  0.27841  0.87287  0.90654  1.0000
  H   H915      1.0  0.40913  0.52229  0.50489  1.0000
  H   H916      1.0  0.30510  0.74734  0.79649  1.0000
  C   C1135     1.0  0.46459  0.97124  0.52148  1.0000
  H   H917      1.0  0.44653  0.83644  0.65451  1.0000
  H   H918      1.0  0.41182  0.70293  0.67114  1.0000
  H   H919      1.0  0.47963  0.56458  0.61255  1.0000
  C   C1136     1.0  0.39902  0.57839  0.69214  1.0000
  C   C1137     1.0  0.30088  0.91579  0.94675  1.0000
  C   C1138     1.0  0.48658  0.74708  0.62874  1.0000
  C   C1139     1.0  0.35225  0.67189  0.66290  1.0000
  C   C1140     1.0  0.33257  0.69048  0.65818  1.0000
  C   C1141     1.0  0.31952  0.70233  0.67673  1.0000
  C   C1142     1.0  0.32590  0.69535  0.70005  1.0000
  C   C1143     1.0  0.34541  0.67612  0.70501  1.0000
  C   C1144     1.0  0.35864  0.66477  0.68619  1.0000
  P   P40       1.0  0.35362  0.66589  0.73504  1.0000
  C   C1145     1.0  0.38523  0.67086  0.73830  1.0000
  C   C1146     1.0  0.33862  0.69149  0.75502  1.0000
  C   C1147     1.0  0.35060  0.71657  0.76590  1.0000
  C   C1148     1.0  0.33855  0.73652  0.78093  1.0000
  H   H920      1.0  0.27698  0.95437  0.98807  1.0000
  H   H921      1.0  0.36859  0.81698  0.62419  1.0000
  C   C1149     1.0  0.31449  0.68663  0.75949  1.0000
  C   C1150     1.0  0.39837  0.65022  0.75259  1.0000
  C   C1151     1.0  0.42291  0.65364  0.75443  1.0000
  C   C1152     1.0  0.43447  0.67783  0.74226  1.0000
  C   C1153     1.0  0.42150  0.69875  0.72828  1.0000
  C   C1154     1.0  0.39695  0.69535  0.72632  1.0000
  C   C1155     1.0  0.34593  0.62551  0.74202  1.0000
  C   C1156     1.0  0.34901  0.60173  0.72543  1.0000
  C   C1157     1.0  0.34442  0.57036  0.73147  1.0000
  C   C1158     1.0  0.33633  0.56250  0.75391  1.0000
  C   C1159     1.0  0.33348  0.58590  0.77059  1.0000
  C   C1160     1.0  0.33853  0.61718  0.76482  1.0000
  H   H922      1.0  0.36252  0.66298  0.64849  1.0000
  H   H923      1.0  0.32725  0.69572  0.64017  1.0000
  H   H924      1.0  0.30416  0.71663  0.67298  1.0000
  H   H925      1.0  0.31531  0.70490  0.71395  1.0000
  H   H926      1.0  0.37394  0.65045  0.68958  1.0000
  H   H927      1.0  0.36916  0.72095  0.76281  1.0000
  H   H928      1.0  0.34776  0.75606  0.78910  1.0000
  C   C1161     1.0  0.41578  0.62867  0.66478  1.0000
  H   H929      1.0  0.39339  0.55890  0.70314  1.0000
  H   H930      1.0  0.30474  0.66777  0.75099  1.0000
  H   H931      1.0  0.38990  0.63109  0.76207  1.0000
  H   H932      1.0  0.43308  0.63708  0.76495  1.0000
  H   H933      1.0  0.45357  0.68005  0.74333  1.0000
  H   H934      1.0  0.43071  0.71717  0.71865  1.0000
  H   H935      1.0  0.38714  0.71169  0.71542  1.0000
  H   H936      1.0  0.35524  0.60711  0.70797  1.0000
  H   H937      1.0  0.34730  0.55200  0.71892  1.0000
  H   H938      1.0  0.33251  0.53824  0.75856  1.0000
  H   H939      1.0  0.32747  0.57964  0.78810  1.0000
  H   H940      1.0  0.33690  0.63463  0.77839  1.0000
  C   C1162     1.0  0.26298  0.82601  0.98948  1.0000
  C   C1163     1.0  0.42572  0.50540  0.74509  1.0000
  C   C1164     1.0  0.27156  0.56558  0.66554  1.0000
  C   C1165     1.0  0.40351  0.60390  0.65408  1.0000
  C   C1166     1.0  0.39371  0.84590  0.64337  1.0000
  H   H941      1.0  0.34277  0.85976  0.72378  1.0000
  H   H942      1.0  0.29570  0.66733  0.52753  1.0000
  S   S160      1.0  0.47408  0.68331  0.69330  1.0000
  C   C1167     1.0  0.47139  0.73870  0.66823  1.0000
  C   C1168     1.0  0.40515  0.87529  0.64401  1.0000
  C   C1169     1.0  0.26706  0.86205  0.74481  1.0000
  C   C1170     1.0  0.32622  0.87432  0.65611  1.0000
  C   C1171     1.0  0.40076  0.92255  0.69788  1.0000
  C   C1172     1.0  0.32989  0.81614  0.70953  1.0000
  H   H943      1.0  0.31378  0.81616  0.71967  1.0000
  C   C1173     1.0  0.49573  0.82527  0.49098  1.0000
  H   H944      1.0  0.40122  0.60409  0.63512  1.0000
  C   C1174     1.0  0.30576  0.86981  0.66931  1.0000
  H   H945      1.0  0.27128  0.71913  0.53081  1.0000
  P   P41       1.0  0.35737  0.95060  0.68737  1.0000
  H   H946      1.0  0.27057  0.59487  0.63413  1.0000
  C   C1175     1.0  0.35873  0.96915  0.64002  1.0000
  P   P42       1.0  0.39847  0.81693  0.66632  1.0000
  C   C1176     1.0  0.41406  0.77711  0.63109  1.0000
  H   H947      1.0  0.31267  0.92918  0.70823  1.0000
  C   C1177     1.0  0.41101  0.60341  0.70275  1.0000
  H   H948      1.0  0.44343  0.82473  0.74140  1.0000
  S   S161      1.0  0.27220  0.75521  0.73894  1.0000
  H   H949      1.0  0.41628  0.79780  0.62010  1.0000
  H   H950      1.0  0.40543  0.92664  0.67970  1.0000
  H   H951      1.0  0.32108  0.77315  0.69185  1.0000
  C   C1178     1.0  0.42510  0.50955  0.50117  1.0000
  C   C1179     1.0  0.47440  0.75811  0.64822  1.0000
  H   H952      1.0  0.29321  0.53763  0.62163  1.0000
  C   C1180     1.0  0.35478  0.79191  0.68055  1.0000
  C   C1181     1.0  0.29259  0.67224  0.59569  1.0000
  C   C1182     1.0  0.46683  0.64137  0.61954  1.0000
  C   C1183     1.0  0.34177  0.89908  0.66137  1.0000
  C   C1184     1.0  0.40424  0.75227  0.66830  1.0000
  H   H953      1.0  0.35593  0.93080  0.73691  1.0000
  C   C1185     1.0  0.39508  0.57852  0.66770  1.0000
  H   H954      1.0  0.35770  0.90203  0.65126  1.0000
  H   H955      1.0  0.46612  0.95355  0.68815  1.0000
  H   H956      1.0  0.40213  0.98443  0.68055  1.0000
  C   C1186     1.0  0.31915  0.92810  0.93302  1.0000
  H   H957      1.0  0.46303  0.65783  0.63334  1.0000
  C   C1187     1.0  0.34916  0.99527  0.72214  1.0000
  C   C1188     1.0  0.28521  0.83728  0.95413  1.0000
  C   C1189     1.0  0.34219  0.92926  0.94205  1.0000
  H   H958      1.0  0.46275  0.67542  0.59159  1.0000
  C   C1190     1.0  0.30557  0.90398  0.96950  1.0000
  H   H959      1.0  0.36484  0.91896  0.97178  1.0000
  C   C1191     1.0  0.47199  0.61030  0.62535  1.0000
  S   S162      1.0  0.26459  0.90318  0.74629  1.0000
  C   C1192     1.0  0.34695  0.91805  0.96482  1.0000
  C   C1193     1.0  0.40553  0.99392  0.76603  1.0000
  H   H960      1.0  0.46848  0.55186  0.51199  1.0000
  C   C1194     1.0  0.48153  0.57061  0.51228  1.0000
  C   C1195     1.0  0.27591  0.84740  0.97558  1.0000
  C   C1196     1.0  0.49466  0.69834  0.65042  1.0000
  C   C1197     1.0  0.25828  0.89883  0.88079  1.0000
  C   C1198     1.0  0.47639  0.58876  0.60762  1.0000
  C   C1199     1.0  0.49562  0.53677  0.56937  1.0000
  H   H961      1.0  0.44868  0.52044  0.58399  1.0000
  H   H962      1.0  0.47253  0.60284  0.64363  1.0000
  C   C1200     1.0  0.47629  0.84458  0.49430  1.0000
  C   C1201     1.0  0.25685  0.84648  0.72553  1.0000
  S   S163      1.0  0.25762  0.94845  0.80577  1.0000
  H   H963      1.0  0.26006  0.53494  0.55339  1.0000
  C   C1202     1.0  0.49063  0.50679  0.56057  1.0000
  H   H964      1.0  0.30713  0.50550  0.69001  1.0000
  H   H965      1.0  0.26710  0.98195  0.89817  1.0000
  C   C1203     1.0  0.32621  0.50438  0.68956  1.0000
  H   H966      1.0  0.35984  0.98398  0.60358  1.0000
  C   C1204     1.0  0.36913  0.98354  0.62041  1.0000
  C   C1205     1.0  0.32873  0.90536  0.97852  1.0000
  H   H967      1.0  0.44176  0.50251  0.73522  1.0000
  Fe  Fe80      1.0  0.27688  0.99418  0.79973  1.0000
  H   H968      1.0  0.39461  0.49984  0.68918  1.0000
  C   C1206     1.0  0.44386  0.98182  0.51071  1.0000
  H   H969      1.0  0.40627  0.50722  0.58174  1.0000
  H   H970      1.0  0.49534  0.80128  0.49749  1.0000
  C   C1207     1.0  0.50147  0.50140  0.66138  1.0000
  H   H971      1.0  0.46084  0.83568  0.50344  1.0000
  H   H972      1.0  0.50257  0.67536  0.65112  1.0000
  C   C1208     1.0  0.32990  0.66984  0.51186  1.0000
  H   H973      1.0  0.25552  0.63624  0.75067  1.0000
  C   C1209     1.0  0.25825  0.81375  0.72363  1.0000
  H   H974      1.0  0.47827  0.51189  0.69001  1.0000
  H   H975      1.0  0.43058  0.99339  0.52095  1.0000
  C   C1210     1.0  0.25863  0.53427  0.57242  1.0000
  C   C1211     1.0  0.30527  0.67203  0.51153  1.0000
  H   H976      1.0  0.26084  0.61381  0.49999  1.0000
  C   C1212     1.0  0.25681  0.70333  0.53506  1.0000
  C   C1213     1.0  0.25500  0.53442  0.62170  1.0000
  C   C1214     1.0  0.39150  0.99751  0.62245  1.0000
  C   C1215     1.0  0.40341  0.99734  0.64406  1.0000
  C   C1216     1.0  0.34258  0.67409  0.49108  1.0000
  C   C1217     1.0  0.29317  0.67900  0.49046  1.0000
  H   H977      1.0  0.36162  0.67153  0.49123  1.0000
  C   C1218     1.0  0.49099  0.58136  0.49101  1.0000
  Fe  Fe81      1.0  0.52708  0.29410  0.27818  1.0000
  S   S164      1.0  0.52697  0.30991  0.24005  1.0000
  H   H978      1.0  0.59698  0.32097  0.31642  1.0000
  Fe  Fe82      1.0  0.52330  0.36129  0.29498  1.0000
  S   S165      1.0  0.52402  0.38185  0.25869  1.0000
  H   H979      1.0  0.75217  0.29085  0.25885  1.0000
  H   H980      1.0  0.50966  0.25837  0.39114  1.0000
  Fe  Fe83      1.0  0.55283  0.34741  0.25201  1.0000
  S   S166      1.0  0.58844  0.35272  0.23374  1.0000
  S   S167      1.0  0.55417  0.32968  0.28941  1.0000
  C   C1219     1.0  0.66673  0.10760  0.36842  1.0000
  S   S168      1.0  0.53997  0.10372  0.42895  1.0000
  Fe  Fe84      1.0  0.53701  0.05874  0.37081  1.0000
  S   S169      1.0  0.56904  0.08735  0.38109  1.0000
  H   H981      1.0  0.55068  0.23979  0.37171  1.0000
  Fe  Fe85      1.0  0.56425  0.06567  0.41700  1.0000
  S   S170      1.0  0.59230  0.05061  0.44383  1.0000
  Fe  Fe86      1.0  0.54243  0.12309  0.39194  1.0000
  S   S171      1.0  0.54832  0.17560  0.38650  1.0000
  S   S172      1.0  0.53425  0.03435  0.40581  1.0000
  H   H982      1.0  0.59968  0.26716  0.30221  1.0000
  Fe  Fe87      1.0  0.69360  0.47336  0.20271  1.0000
  S   S173      1.0  0.72108  0.45438  0.22757  1.0000
  S   S174      1.0  0.65487  0.47210  0.21395  1.0000
  H   H983      1.0  0.58410  0.21715  0.29783  1.0000
  C   C1220     1.0  0.73883  0.44909  0.39100  1.0000
  H   H984      1.0  0.53077  0.11724  0.47868  1.0000
  H   H985      1.0  0.65039  0.39404  0.33649  1.0000
  S   S175      1.0  0.71085  0.45519  0.17002  1.0000
  C   C1221     1.0  0.69451  0.34285  0.17293  1.0000
  C   C1222     1.0  0.73677  0.09036  0.23813  1.0000
  H   H986      1.0  0.72256  0.10324  0.13246  1.0000
  H   H987      1.0  0.71444  0.02034  0.30825  1.0000
  C   C1223     1.0  0.56744  0.37822  0.47148  1.0000
  Fe  Fe88      1.0  0.66067  0.40745  0.46707  1.0000
  S   S176      1.0  0.64518  0.36206  0.45452  1.0000
  S   S177      1.0  0.65128  0.45266  0.44754  1.0000
  H   H988      1.0  0.68323  0.30865  0.29657  1.0000
  Fe  Fe89      1.0  0.68254  0.34403  0.45294  1.0000
  S   S178      1.0  0.69087  0.32365  0.41619  1.0000
  S   S179      1.0  0.69803  0.39050  0.46414  1.0000
  C   C1224     1.0  0.65974  0.09108  0.34830  1.0000
  H   H989      1.0  0.53208  0.46735  0.45260  1.0000
  C   C1225     1.0  0.73194  0.28723  0.41649  1.0000
  C   C1226     1.0  0.71421  0.30185  0.40314  1.0000
  C   C1227     1.0  0.71454  0.29852  0.37844  1.0000
  C   C1228     1.0  0.73213  0.28085  0.36728  1.0000
  C   C1229     1.0  0.50933  0.26044  0.46386  1.0000
  H   H990      1.0  0.64597  0.29338  0.41649  1.0000
  H   H991      1.0  0.70122  0.30992  0.36780  1.0000
  C   C1230     1.0  0.62957  0.31945  0.33603  1.0000
  H   H992      1.0  0.73123  0.25770  0.16899  1.0000
  H   H993      1.0  0.66227  0.31085  0.35441  1.0000
  H   H994      1.0  0.66297  0.22336  0.19856  1.0000
  C   C1231     1.0  0.52925  0.16775  0.47934  1.0000
  S   S180      1.0  0.53330  0.03567  0.33548  1.0000
  H   H995      1.0  0.53579  0.15090  0.34003  1.0000
  C   C1232     1.0  0.52561  0.42990  0.32656  1.0000
  C   C1233     1.0  0.72365  0.43226  0.40580  1.0000
  C   C1234     1.0  0.57939  0.11866  0.28936  1.0000
  C   C1235     1.0  0.62324  0.47076  0.44551  1.0000
  C   C1236     1.0  0.60613  0.46658  0.46287  1.0000
  C   C1237     1.0  0.51956  0.13745  0.48059  1.0000
  H   H996      1.0  0.52439  0.49284  0.28919  1.0000
  H   H997      1.0  0.66612  0.25703  0.33980  1.0000
  H   H998      1.0  0.60945  0.45072  0.47749  1.0000
  C   C1238     1.0  0.72660  0.38706  0.38058  1.0000
  C   C1239     1.0  0.60628  0.38651  0.22825  1.0000
  C   C1240     1.0  0.59894  0.41687  0.23335  1.0000
  C   C1241     1.0  0.61398  0.44276  0.22866  1.0000
  C   C1242     1.0  0.63663  0.43860  0.21929  1.0000
  C   C1243     1.0  0.64401  0.40820  0.21437  1.0000
  C   C1244     1.0  0.62882  0.38239  0.21870  1.0000
  H   H999      1.0  0.58162  0.42045  0.24062  1.0000
  H   H1000     1.0  0.60799  0.46620  0.23216  1.0000
  H   H1001     1.0  0.66139  0.40463  0.20723  1.0000
  H   H1002     1.0  0.63472  0.35895  0.21516  1.0000
  C   C1245     1.0  0.74213  0.40356  0.36575  1.0000
  C   C1246     1.0  0.52334  0.44695  0.30551  1.0000
  H   H1003     1.0  0.67142  0.46490  0.40216  1.0000
  C   C1247     1.0  0.74933  0.26916  0.40534  1.0000
  H   H1004     1.0  0.63738  0.17946  0.39331  1.0000
  Fe  Fe90      1.0  0.73954  0.43878  0.19503  1.0000
  C   C1248     1.0  0.55570  0.23528  0.46709  1.0000
  H   H1005     1.0  0.67106  0.48570  0.36153  1.0000
  H   H1006     1.0  0.61075  0.01522  0.40397  1.0000
  C   C1249     1.0  0.53559  0.22421  0.31471  1.0000
  C   C1250     1.0  0.61212  0.30694  0.32126  1.0000
  C   C1251     1.0  0.53763  0.17614  0.33862  1.0000
  C   C1252     1.0  0.54354  0.19363  0.35858  1.0000
  C   C1253     1.0  0.54590  0.22635  0.35638  1.0000
  C   C1254     1.0  0.54176  0.24170  0.33462  1.0000
  H   H1007     1.0  0.53564  0.46599  0.40952  1.0000
  H   H1008     1.0  0.72354  0.13689  0.23183  1.0000
  H   H1009     1.0  0.70857  0.45682  0.33667  1.0000
  Fe  Fe91      1.0  0.72050  0.00669  0.16523  1.0000
  H   H1010     1.0  0.74895  0.45540  0.27096  1.0000
  C   C1255     1.0  0.60625  0.26432  0.37671  1.0000
  C   C1256     1.0  0.62662  0.26622  0.39079  1.0000
  C   C1257     1.0  0.63005  0.29166  0.40578  1.0000
  C   C1258     1.0  0.61288  0.31482  0.40715  1.0000
  C   C1259     1.0  0.59211  0.31258  0.39362  1.0000
  C   C1260     1.0  0.58940  0.28795  0.37759  1.0000
  P   P43       1.0  0.57019  0.34273  0.39534  1.0000
  C   C1261     1.0  0.54116  0.32697  0.38898  1.0000
  C   C1262     1.0  0.56832  0.35686  0.42502  1.0000
  C   C1263     1.0  0.56386  0.38856  0.42962  1.0000
  S   S181      1.0  0.72482  0.03607  0.13128  1.0000
  C   C1264     1.0  0.55942  0.21940  0.44592  1.0000
  C   C1265     1.0  0.56999  0.34630  0.46702  1.0000
  C   C1266     1.0  0.57055  0.33563  0.44390  1.0000
  C   C1267     1.0  0.52388  0.34616  0.37874  1.0000
  S   S182      1.0  0.51068  0.09592  0.37904  1.0000
  C   C1268     1.0  0.73785  0.33255  0.31500  1.0000
  C   C1269     1.0  0.53544  0.29565  0.39458  1.0000
  C   C1270     1.0  0.57916  0.37235  0.37424  1.0000
  C   C1271     1.0  0.57264  0.36922  0.35048  1.0000
  C   C1272     1.0  0.57903  0.39232  0.33404  1.0000
  C   C1273     1.0  0.59192  0.41867  0.34120  1.0000
  C   C1274     1.0  0.59941  0.42130  0.36463  1.0000
  C   C1275     1.0  0.59359  0.39781  0.38099  1.0000
  H   H1011     1.0  0.60353  0.24483  0.36487  1.0000
  H   H1012     1.0  0.63993  0.24827  0.39000  1.0000
  H   H1013     1.0  0.66915  0.02574  0.24737  1.0000
  H   H1014     1.0  0.61580  0.33445  0.41877  1.0000
  H   H1015     1.0  0.57426  0.28689  0.36582  1.0000
  C   C1276     1.0  0.69394  0.02271  0.27623  1.0000
  C   C1277     1.0  0.51909  0.45913  0.41762  1.0000
  C   C1278     1.0  0.69068  0.35095  0.31571  1.0000
  C   C1279     1.0  0.56397  0.39927  0.45280  1.0000
  H   H1016     1.0  0.57304  0.31088  0.44078  1.0000
  H   H1017     1.0  0.52755  0.37075  0.37531  1.0000
  H   H1018     1.0  0.54802  0.28075  0.40366  1.0000
  H   H1019     1.0  0.56193  0.34947  0.34470  1.0000
  H   H1020     1.0  0.57292  0.39052  0.31593  1.0000
  H   H1021     1.0  0.59573  0.43714  0.32857  1.0000
  H   H1022     1.0  0.60965  0.44158  0.37021  1.0000
  H   H1023     1.0  0.60015  0.39990  0.39890  1.0000
  H   H1024     1.0  0.66035  0.11531  0.40528  1.0000
  H   H1025     1.0  0.66448  0.09702  0.17998  1.0000
  H   H1026     1.0  0.56167  0.42397  0.45627  1.0000
  H   H1027     1.0  0.62636  0.40965  0.30012  1.0000
  H   H1028     1.0  0.52923  0.17762  0.30148  1.0000
  C   C1280     1.0  0.65173  0.34105  0.17226  1.0000
  H   H1029     1.0  0.73201  0.27847  0.34837  1.0000
  H   H1030     1.0  0.60959  0.27138  0.47241  1.0000
  H   H1031     1.0  0.72505  0.29209  0.29630  1.0000
  C   C1281     1.0  0.51292  0.03618  0.48376  1.0000
  H   H1032     1.0  0.68419  0.08033  0.14348  1.0000
  C   C1282     1.0  0.63327  0.25760  0.31964  1.0000
  H   H1033     1.0  0.61353  0.04974  0.37142  1.0000
  H   H1034     1.0  0.69805  0.43654  0.28346  1.0000
  H   H1035     1.0  0.58133  0.06047  0.33055  1.0000
  Fe  Fe92      1.0  0.51018  0.07384  0.41508  1.0000
  H   H1036     1.0  0.73252  0.07839  0.09214  1.0000
  H   H1037     1.0  0.74361  0.47310  0.39515  1.0000
  C   C1283     1.0  0.69409  0.37184  0.16124  1.0000
  H   H1038     1.0  0.57251  0.48170  0.47593  1.0000
  S   S183      1.0  0.53066  0.24195  0.28670  1.0000
  H   H1039     1.0  0.67226  0.40842  0.14666  1.0000
  H   H1040     1.0  0.69999  0.39292  0.25564  1.0000
  C   C1284     1.0  0.59952  0.23963  0.44463  1.0000
  C   C1285     1.0  0.52668  0.47966  0.30541  1.0000
  H   H1041     1.0  0.55352  0.09775  0.31249  1.0000
  C   C1286     1.0  0.58754  0.07632  0.31688  1.0000
  H   H1042     1.0  0.53453  0.43224  0.36341  1.0000
  S   S184      1.0  0.51951  0.38940  0.32798  1.0000
  C   C1287     1.0  0.69739  0.16912  0.31146  1.0000
  C   C1288     1.0  0.71304  0.19065  0.30124  1.0000
  C   C1289     1.0  0.70490  0.21969  0.29318  1.0000
  C   C1290     1.0  0.68126  0.22775  0.29611  1.0000
  C   C1291     1.0  0.66560  0.20668  0.30715  1.0000
  C   C1292     1.0  0.67367  0.17690  0.31417  1.0000
  P   P44       1.0  0.63499  0.21690  0.31074  1.0000
  C   C1293     1.0  0.62427  0.19372  0.33535  1.0000
  C   C1294     1.0  0.60504  0.17291  0.33299  1.0000
  C   C1295     1.0  0.59732  0.15520  0.35226  1.0000
  C   C1296     1.0  0.60875  0.15783  0.37405  1.0000
  C   C1297     1.0  0.62832  0.17776  0.37647  1.0000
  C   C1298     1.0  0.63617  0.19545  0.35717  1.0000
  C   C1299     1.0  0.61895  0.20956  0.28345  1.0000
  C   C1300     1.0  0.63121  0.20183  0.26291  1.0000
  C   C1301     1.0  0.61891  0.19571  0.24192  1.0000
  C   C1302     1.0  0.59429  0.19712  0.24122  1.0000
  C   C1303     1.0  0.58197  0.20484  0.26144  1.0000
  C   C1304     1.0  0.59418  0.21123  0.28241  1.0000
  H   H1043     1.0  0.70375  0.14638  0.31719  1.0000
  H   H1044     1.0  0.73147  0.18462  0.29939  1.0000
  H   H1045     1.0  0.71699  0.23579  0.28458  1.0000
  H   H1046     1.0  0.67518  0.25027  0.28968  1.0000
  H   H1047     1.0  0.66177  0.15968  0.32183  1.0000
  H   H1048     1.0  0.59580  0.17001  0.31649  1.0000
  C   C1305     1.0  0.72032  0.31386  0.30449  1.0000
  H   H1049     1.0  0.66891  0.09536  0.33193  1.0000
  H   H1050     1.0  0.65163  0.21033  0.35928  1.0000
  H   H1051     1.0  0.65025  0.20036  0.26290  1.0000
  H   H1052     1.0  0.62845  0.18987  0.22617  1.0000
  H   H1053     1.0  0.58471  0.19242  0.22498  1.0000
  H   H1054     1.0  0.56285  0.20604  0.26085  1.0000
  C   C1306     1.0  0.51695  0.46013  0.44210  1.0000
  H   H1055     1.0  0.63543  0.03888  0.27240  1.0000
  H   H1056     1.0  0.70308  0.39143  0.33456  1.0000
  C   C1307     1.0  0.64900  0.30134  0.34250  1.0000
  C   C1308     1.0  0.67169  0.02800  0.26623  1.0000
  C   C1309     1.0  0.57372  0.25477  0.47617  1.0000
  C   C1310     1.0  0.67256  0.38558  0.15523  1.0000
  H   H1057     1.0  0.54544  0.20541  0.43788  1.0000
  H   H1058     1.0  0.54326  0.26696  0.33325  1.0000
  C   C1311     1.0  0.74961  0.26577  0.38067  1.0000
  H   H1059     1.0  0.72378  0.07919  0.22683  1.0000
  H   H1060     1.0  0.63470  0.38103  0.15625  1.0000
  C   C1312     1.0  0.65140  0.37010  0.16061  1.0000
  C   C1313     1.0  0.65487  0.10272  0.38963  1.0000
  C   C1314     1.0  0.64103  0.06923  0.34939  1.0000
  C   C1315     1.0  0.70810  0.36975  0.32632  1.0000
  C   C1316     1.0  0.58131  0.22143  0.43482  1.0000
  H   H1061     1.0  0.62828  0.49106  0.34691  1.0000
  H   H1062     1.0  0.63442  0.47156  0.27262  1.0000
  H   H1063     1.0  0.66560  0.35711  0.25031  1.0000
  H   H1064     1.0  0.58206  0.13986  0.35038  1.0000
  C   C1317     1.0  0.53198  0.44551  0.34728  1.0000
  H   H1065     1.0  0.53992  0.49004  0.36335  1.0000
  C   C1318     1.0  0.51356  0.28296  0.38778  1.0000
  H   H1066     1.0  0.54809  0.17046  0.47683  1.0000
  C   C1319     1.0  0.62516  0.48156  0.28734  1.0000
  C   C1320     1.0  0.70725  0.47659  0.32464  1.0000
  H   H1067     1.0  0.73461  0.41263  0.29694  1.0000
  H   H1068     1.0  0.60892  0.13506  0.26893  1.0000
  H   H1069     1.0  0.71053  0.38395  0.15721  1.0000
  C   C1321     1.0  0.65269  0.03582  0.28047  1.0000
  H   H1070     1.0  0.68137  0.12415  0.36761  1.0000
  H   H1071     1.0  0.61661  0.24074  0.43633  1.0000
  H   H1072     1.0  0.51833  0.43515  0.28947  1.0000
  C   C1322     1.0  0.74427  0.23990  0.17269  1.0000
  P   P45       1.0  0.63143  0.04862  0.32335  1.0000
  C   C1323     1.0  0.57175  0.09767  0.30678  1.0000
  C   C1324     1.0  0.60296  0.11857  0.28227  1.0000
  C   C1325     1.0  0.58522  0.48424  0.46196  1.0000
  C   C1326     1.0  0.67828  0.03288  0.31488  1.0000
  C   C1327     1.0  0.61883  0.09725  0.29239  1.0000
  C   C1328     1.0  0.65606  0.03945  0.30483  1.0000
  H   H1073     1.0  0.73207  0.28938  0.43545  1.0000
  C   C1329     1.0  0.74050  0.15984  0.10922  1.0000
  H   H1074     1.0  0.62878  0.36578  0.27230  1.0000
  C   C1330     1.0  0.68606  0.48276  0.31240  1.0000
  C   C1331     1.0  0.53663  0.04443  0.48092  1.0000
  C   C1332     1.0  0.61105  0.07543  0.30938  1.0000
  H   H1075     1.0  0.71658  0.44311  0.42138  1.0000
  C   C1333     1.0  0.72461  0.13471  0.16207  1.0000
  C   C1334     1.0  0.63576  0.08175  0.39062  1.0000
  P   P46       1.0  0.52709  0.23331  0.48075  1.0000
  H   H1076     1.0  0.66184  0.40900  0.41005  1.0000
  C   C1335     1.0  0.53389  0.19136  0.31678  1.0000
  H   H1077     1.0  0.60233  0.14448  0.38905  1.0000
  C   C1336     1.0  0.61871  0.49170  0.42673  1.0000
  C   C1337     1.0  0.71337  0.14425  0.18266  1.0000
  C   C1338     1.0  0.69165  0.13089  0.18903  1.0000
  C   C1339     1.0  0.68094  0.10816  0.17477  1.0000
  C   C1340     1.0  0.69195  0.09884  0.15415  1.0000
  C   C1341     1.0  0.71376  0.11192  0.14788  1.0000
  P   P47       1.0  0.75428  0.38439  0.34036  1.0000
  H   H1078     1.0  0.70858  0.01659  0.26510  1.0000
  H   H1079     1.0  0.66404  0.18033  0.16977  1.0000
  C   C1342     1.0  0.62872  0.06530  0.37052  1.0000
  C   C1343     1.0  0.61260  0.01930  0.44162  1.0000
  C   C1344     1.0  0.74859  0.06526  0.09467  1.0000
  C   C1345     1.0  0.53194  0.49542  0.32641  1.0000
  C   C1346     1.0  0.63409  0.47861  0.31043  1.0000
  C   C1347     1.0  0.62312  0.00739  0.46233  1.0000
  C   C1348     1.0  0.65097  0.27064  0.33427  1.0000
  H   H1080     1.0  0.62773  0.34294  0.34283  1.0000
  S   S185      1.0  0.70323  0.02879  0.19673  1.0000
  H   H1081     1.0  0.56066  0.40514  0.41542  1.0000
  H   H1082     1.0  0.72182  0.16106  0.19427  1.0000
  H   H1083     1.0  0.68348  0.13743  0.20538  1.0000
  C   C1349     1.0  0.71762  0.40126  0.40058  1.0000
  C   C1350     1.0  0.59563  0.25661  0.46511  1.0000
  C   C1351     1.0  0.61380  0.27614  0.31322  1.0000
  H   H1084     1.0  0.73004  0.16878  0.07313  1.0000
  H   H1085     1.0  0.67244  0.35801  0.31579  1.0000
  H   H1086     1.0  0.52792  0.30125  0.47724  1.0000
  H   H1087     1.0  0.56708  0.13518  0.28156  1.0000
  C   C1352     1.0  0.74979  0.04238  0.11273  1.0000
  C   C1353     1.0  0.66964  0.20376  0.16464  1.0000
  C   C1354     1.0  0.67721  0.20953  0.14167  1.0000
  C   C1355     1.0  0.68423  0.23980  0.13490  1.0000
  C   C1356     1.0  0.68350  0.26437  0.15102  1.0000
  C   C1357     1.0  0.67567  0.25882  0.17409  1.0000
  C   C1358     1.0  0.66898  0.22823  0.18085  1.0000
  P   P48       1.0  0.67401  0.29049  0.19493  1.0000
  C   C1359     1.0  0.64725  0.28529  0.21169  1.0000
  C   C1360     1.0  0.69900  0.29035  0.21499  1.0000
  C   C1361     1.0  0.71080  0.26237  0.22050  1.0000
  C   C1362     1.0  0.72984  0.26253  0.23639  1.0000
  C   C1363     1.0  0.73708  0.29050  0.24698  1.0000
  C   C1364     1.0  0.72519  0.31829  0.24196  1.0000
  C   C1365     1.0  0.70620  0.31827  0.22608  1.0000
  C   C1366     1.0  0.62632  0.27505  0.20054  1.0000
  C   C1367     1.0  0.60553  0.27140  0.21339  1.0000
  C   C1368     1.0  0.60548  0.27780  0.23745  1.0000
  C   C1369     1.0  0.62624  0.28781  0.24870  1.0000
  C   C1370     1.0  0.64707  0.29143  0.23595  1.0000
  C   C1371     1.0  0.67330  0.32745  0.17897  1.0000
  C   C1372     1.0  0.59871  0.99994  0.31669  1.0000
  H   H1088     1.0  0.58407  0.20882  0.41859  1.0000
  C   C1373     1.0  0.69677  0.32307  0.30479  1.0000
  C   C1374     1.0  0.74182  0.21005  0.16288  1.0000
  H   H1089     1.0  0.67758  0.19054  0.12912  1.0000
  H   H1090     1.0  0.69003  0.24430  0.11704  1.0000
  H   H1091     1.0  0.68882  0.28765  0.14527  1.0000
  H   H1092     1.0  0.68104  0.03389  0.33375  1.0000
  H   H1093     1.0  0.70556  0.24041  0.21253  1.0000
  H   H1094     1.0  0.73918  0.24100  0.24031  1.0000
  C   C1375     1.0  0.73182  0.36051  0.32623  1.0000
  H   H1095     1.0  0.73109  0.34003  0.25000  1.0000
  H   H1096     1.0  0.69732  0.34018  0.22231  1.0000
  H   H1097     1.0  0.62590  0.27055  0.18180  1.0000
  H   H1098     1.0  0.58922  0.26451  0.20462  1.0000
  H   H1099     1.0  0.58913  0.27605  0.24719  1.0000
  H   H1100     1.0  0.62592  0.29377  0.26714  1.0000
  H   H1101     1.0  0.66279  0.29951  0.24506  1.0000
  H   H1102     1.0  0.71148  0.33286  0.17751  1.0000
  H   H1103     1.0  0.74347  0.49101  0.33055  1.0000
  H   H1104     1.0  0.63506  0.32989  0.17648  1.0000
  H   H1105     1.0  0.65195  0.37355  0.37717  1.0000
  C   C1376     1.0  0.73678  0.12313  0.24079  1.0000
  P   P49       1.0  0.66086  0.45685  0.31590  1.0000
  C   C1377     1.0  0.66242  0.42549  0.29482  1.0000
  C   C1378     1.0  0.66086  0.44142  0.34573  1.0000
  C   C1379     1.0  0.65535  0.40975  0.35043  1.0000
  C   C1380     1.0  0.65595  0.39804  0.37352  1.0000
  C   C1381     1.0  0.66153  0.41800  0.39212  1.0000
  C   C1382     1.0  0.66696  0.44952  0.38765  1.0000
  C   C1383     1.0  0.66673  0.46119  0.36459  1.0000
  C   C1384     1.0  0.64277  0.40568  0.29107  1.0000
  C   C1385     1.0  0.64413  0.38067  0.27545  1.0000
  C   C1386     1.0  0.66490  0.37576  0.26302  1.0000
  C   C1387     1.0  0.68424  0.39599  0.26600  1.0000
  C   C1388     1.0  0.68303  0.42080  0.28183  1.0000
  H   H1106     1.0  0.63710  0.09789  0.28698  1.0000
  C   C1389     1.0  0.53505  0.47820  0.34726  1.0000
  C   C1390     1.0  0.75153  0.42352  0.30063  1.0000
  H   H1107     1.0  0.62633  0.07823  0.40699  1.0000
  Fe  Fe93      1.0  0.73286  0.00739  0.21760  1.0000
  H   H1108     1.0  0.54527  0.03987  0.46440  1.0000
  H   H1109     1.0  0.72168  0.36301  0.37696  1.0000
  H   H1110     1.0  0.72309  0.16439  0.11593  1.0000
  H   H1111     1.0  0.70601  0.38808  0.41212  1.0000
  H   H1112     1.0  0.72675  0.20492  0.15166  1.0000
  H   H1113     1.0  0.63186  0.49526  0.41329  1.0000
  C   C1391     1.0  0.51468  0.19403  0.48133  1.0000
  C   C1392     1.0  0.69720  0.02488  0.30056  1.0000
  H   H1114     1.0  0.57209  0.32986  0.48146  1.0000
  H   H1115     1.0  0.59181  0.01344  0.30195  1.0000
  C   C1393     1.0  0.61893  0.00665  0.41999  1.0000
  C   C1394     1.0  0.75359  0.07220  0.25002  1.0000
  H   H1116     1.0  0.61846  0.01714  0.47914  1.0000
  C   C1395     1.0  0.74816  0.43480  0.37112  1.0000
  C   C1396     1.0  0.72711  0.49580  0.32120  1.0000
  H   H1117     1.0  0.64152  0.00065  0.35940  1.0000
  S   S186      1.0  0.75439  0.17973  0.25568  1.0000
  S   S187      1.0  0.75316  0.38919  0.19071  1.0000
  H   H1118     1.0  0.50865  0.48835  0.22068  1.0000
  C   C1397     1.0  0.62186  0.49258  0.32896  1.0000
  C   C1398     1.0  0.75392  0.13821  0.25480  1.0000
  C   C1399     1.0  0.51412  0.29273  0.46552  1.0000
  C   C1400     1.0  0.74439  0.16254  0.08499  1.0000
  C   C1401     1.0  0.61758  0.01140  0.33047  1.0000
  H   H1119     1.0  0.56809  0.38659  0.48943  1.0000
  P   P50       1.0  0.75423  0.14796  0.15588  1.0000
  H   H1120     1.0  0.50524  0.33912  0.45302  1.0000
  C   C1402     1.0  0.60414  0.49760  0.28296  1.0000
  S   S188      1.0  0.72309  0.38589  0.52905  1.0000
  H   H1121     1.0  0.69475  0.48789  0.51303  1.0000
  S   S189      1.0  0.51263  0.11871  0.68983  1.0000
  Fe  Fe94      1.0  0.72746  0.10200  0.83386  1.0000
  Fe  Fe95      1.0  0.68078  0.09562  0.80478  1.0000
  S   S190      1.0  0.69755  0.11408  0.77192  1.0000
  S   S191      1.0  0.64185  0.08112  0.80682  1.0000
  Fe  Fe96      1.0  0.72826  0.08335  0.78166  1.0000
  C   C1403     1.0  0.57563  0.17656  0.70959  1.0000
  Fe  Fe97      1.0  0.71484  0.15002  0.79529  1.0000
  S   S192      1.0  0.71255  0.20129  0.78391  1.0000
  S   S193      1.0  0.71046  0.06231  0.81320  1.0000
  S   S194      1.0  0.69609  0.13351  0.82802  1.0000
  H   H1122     1.0  0.56782  0.06388  0.49722  1.0000
  C   C1404     1.0  0.65431  0.00238  0.82812  1.0000
  S   S195      1.0  0.56181  0.09771  0.72762  1.0000
  P   P51       1.0  0.72574  0.34343  0.78864  1.0000
  S   S196      1.0  0.54075  0.39970  0.57050  1.0000
  C   C1405     1.0  0.60744  0.49689  0.70296  1.0000
  H   H1123     1.0  0.74349  0.44607  0.82531  1.0000
  C   C1406     1.0  0.51571  0.47520  0.49843  1.0000
  H   H1124     1.0  0.54083  0.33436  0.55497  1.0000
  S   S197      1.0  0.74533  0.08766  0.86895  1.0000
  H   H1125     1.0  0.57169  0.03223  0.73537  1.0000
  C   C1407     1.0  0.61990  0.08526  0.78447  1.0000
  C   C1408     1.0  0.59611  0.07922  0.78998  1.0000
  C   C1409     1.0  0.57800  0.08339  0.77300  1.0000
  C   C1410     1.0  0.58357  0.09350  0.75022  1.0000
  C   C1411     1.0  0.60741  0.09935  0.74469  1.0000
  C   C1412     1.0  0.62548  0.09515  0.76164  1.0000
  H   H1126     1.0  0.59162  0.07156  0.80761  1.0000
  H   H1127     1.0  0.55980  0.07862  0.77751  1.0000
  H   H1128     1.0  0.61201  0.10755  0.72729  1.0000
  H   H1129     1.0  0.64369  0.09999  0.75718  1.0000
  C   C1413     1.0  0.67484  0.44606  0.57093  1.0000
  H   H1130     1.0  0.65663  0.01000  0.84615  1.0000
  C   C1414     1.0  0.70687  0.26816  0.83012  1.0000
  H   H1131     1.0  0.58820  0.47481  0.60938  1.0000
  C   C1415     1.0  0.64443  0.44694  0.61290  1.0000
  C   C1416     1.0  0.69013  0.41298  0.61485  1.0000
  C   C1417     1.0  0.56773  0.20659  0.71526  1.0000
  H   H1132     1.0  0.69796  0.06616  0.73356  1.0000
  C   C1418     1.0  0.73229  0.36803  0.55614  1.0000
  C   C1419     1.0  0.68970  0.04513  0.72655  1.0000
  H   H1133     1.0  0.66194  0.22489  0.75756  1.0000
  C   C1420     1.0  0.52750  0.24467  0.51127  1.0000
  C   C1421     1.0  0.72363  0.33881  0.56370  1.0000
  C   C1422     1.0  0.59832  0.06729  0.68155  1.0000
  H   H1134     1.0  0.66332  0.46386  0.73166  1.0000
  H   H1135     1.0  0.71072  0.32644  0.55302  1.0000
  C   C1423     1.0  0.56035  0.37793  0.55314  1.0000
  C   C1424     1.0  0.58059  0.39294  0.54424  1.0000
  C   C1425     1.0  0.59680  0.37644  0.53062  1.0000
  C   C1426     1.0  0.59304  0.34465  0.52582  1.0000
  C   C1427     1.0  0.57270  0.32962  0.53465  1.0000
  C   C1428     1.0  0.55638  0.34618  0.54822  1.0000
  H   H1136     1.0  0.58383  0.41746  0.54793  1.0000
  H   H1137     1.0  0.61226  0.38835  0.52394  1.0000
  H   H1138     1.0  0.56960  0.30505  0.53105  1.0000
  C   C1429     1.0  0.71208  0.37405  0.63742  1.0000
  H   H1139     1.0  0.60471  0.33859  0.59544  1.0000
  H   H1140     1.0  0.66877  0.45757  0.64151  1.0000
  H   H1141     1.0  0.70623  0.45912  0.61374  1.0000
  C   C1430     1.0  0.70164  0.43380  0.78296  1.0000
  C   C1431     1.0  0.55906  0.42518  0.63382  1.0000
  H   H1142     1.0  0.62046  0.48044  0.70927  1.0000
  C   C1432     1.0  0.74945  0.34049  0.59879  1.0000
  C   C1433     1.0  0.62077  0.34787  0.58774  1.0000
  C   C1434     1.0  0.58120  0.01075  0.73245  1.0000
  H   H1143     1.0  0.71437  0.35000  0.64335  1.0000
  C   C1435     1.0  0.60277  0.18044  0.76830  1.0000
  S   S198      1.0  0.65849  0.39473  0.50547  1.0000
  C   C1436     1.0  0.56849  0.16261  0.68846  1.0000
  C   C1437     1.0  0.52440  0.01539  0.60956  1.0000
  H   H1144     1.0  0.57069  0.08173  0.65766  1.0000
  C   C1438     1.0  0.71683  0.31956  0.81369  1.0000
  C   C1439     1.0  0.55590  0.21554  0.78807  1.0000
  H   H1145     1.0  0.62499  0.24492  0.73984  1.0000
  C   C1440     1.0  0.62430  0.22384  0.75050  1.0000
  C   C1441     1.0  0.51115  0.39540  0.49493  1.0000
  H   H1146     1.0  0.71485  0.25484  0.75266  1.0000
  H   H1147     1.0  0.61671  0.00892  0.82792  1.0000
  H   H1148     1.0  0.52962  0.41205  0.69507  1.0000
  C   C1442     1.0  0.60581  0.47090  0.61637  1.0000
  H   H1149     1.0  0.66174  0.14682  0.72404  1.0000
  H   H1150     1.0  0.57393  0.13896  0.68463  1.0000
  H   H1151     1.0  0.69913  0.26663  0.86712  1.0000
  Fe  Fe98      1.0  0.52123  0.09769  0.72541  1.0000
  H   H1152     1.0  0.50461  0.19006  0.58251  1.0000
  C   C1443     1.0  0.63090  0.37572  0.59615  1.0000
  H   H1153     1.0  0.54521  0.24489  0.70400  1.0000
  H   H1154     1.0  0.73280  0.18273  0.72609  1.0000
  H   H1155     1.0  0.71418  0.47502  0.80110  1.0000
  C   C1444     1.0  0.73223  0.24460  0.75359  1.0000
  H   H1156     1.0  0.55942  0.38011  0.61710  1.0000
  H   H1157     1.0  0.68917  0.44672  0.77213  1.0000
  H   H1158     1.0  0.64375  0.38725  0.76071  1.0000
  H   H1159     1.0  0.62009  0.41856  0.69245  1.0000
  C   C1445     1.0  0.61345  0.01503  0.67593  1.0000
  H   H1160     1.0  0.67270  0.10975  0.69263  1.0000
  C   C1446     1.0  0.53772  0.20868  0.80385  1.0000
  C   C1447     1.0  0.70715  0.31371  0.85515  1.0000
  C   C1448     1.0  0.73605  0.21774  0.76762  1.0000
  H   H1161     1.0  0.70443  0.24307  0.82776  1.0000
  H   H1162     1.0  0.62539  0.04642  0.70328  1.0000
  P   P52       1.0  0.57518  0.22384  0.74334  1.0000
  C   C1449     1.0  0.59808  0.01085  0.65660  1.0000
  H   H1163     1.0  0.57085  0.03255  0.63509  1.0000
  C   C1450     1.0  0.63046  0.39830  0.74963  1.0000
  C   C1451     1.0  0.70419  0.40145  0.78003  1.0000
  C   C1452     1.0  0.54202  0.47042  0.73423  1.0000
  C   C1453     1.0  0.59609  0.42737  0.72104  1.0000
  C   C1454     1.0  0.55331  0.17840  0.67294  1.0000
  C   C1455     1.0  0.52861  0.46237  0.51744  1.0000
  C   C1456     1.0  0.70916  0.33106  0.76297  1.0000
  C   C1457     1.0  0.71884  0.33439  0.74047  1.0000
  C   C1458     1.0  0.70575  0.32534  0.72059  1.0000
  C   C1459     1.0  0.68300  0.31280  0.72304  1.0000
  C   C1460     1.0  0.67310  0.30983  0.74538  1.0000
  C   C1461     1.0  0.68602  0.31921  0.76527  1.0000
  C   C1462     1.0  0.72083  0.38479  0.79364  1.0000
  C   C1463     1.0  0.73231  0.43348  0.81291  1.0000
  C   C1464     1.0  0.60635  0.01753  0.57652  1.0000
  Fe  Fe99      1.0  0.69443  0.37318  0.50176  1.0000
  C   C1465     1.0  0.72641  0.14510  0.70157  1.0000
  C   C1466     1.0  0.50832  0.47866  0.64534  1.0000
  S   S199      1.0  0.61327  0.32305  0.50891  1.0000
  C   C1467     1.0  0.74135  0.46246  0.73889  1.0000
  H   H1164     1.0  0.52739  0.01999  0.62809  1.0000
  C   C1468     1.0  0.51506  0.20141  0.79541  1.0000
  H   H1165     1.0  0.56206  0.27732  0.77292  1.0000
  H   H1166     1.0  0.52107  0.12141  0.53086  1.0000
  C   C1469     1.0  0.52410  0.48588  0.58210  1.0000
  C   C1470     1.0  0.51377  0.05756  0.52322  1.0000
  C   C1471     1.0  0.51965  0.47286  0.74419  1.0000
  C   C1472     1.0  0.54608  0.44834  0.71655  1.0000
  H   H1167     1.0  0.73649  0.34399  0.73824  1.0000
  H   H1168     1.0  0.71336  0.32793  0.70326  1.0000
  H   H1169     1.0  0.67315  0.30532  0.70759  1.0000
  H   H1170     1.0  0.65548  0.30008  0.74734  1.0000
  H   H1171     1.0  0.67802  0.31700  0.78244  1.0000
  H   H1172     1.0  0.71086  0.42919  0.57239  1.0000
  H   H1173     1.0  0.65001  0.39249  0.71770  1.0000
  P   P53       1.0  0.57457  0.44703  0.70247  1.0000
  C   C1473     1.0  0.75076  0.25806  0.74046  1.0000
  C   C1474     1.0  0.51383  0.12668  0.54785  1.0000
  C   C1475     1.0  0.61295  0.48504  0.63740  1.0000
  C   C1476     1.0  0.58296  0.03532  0.64983  1.0000
  C   C1477     1.0  0.71576  0.44982  0.79928  1.0000
  H   H1174     1.0  0.55237  0.43702  0.61824  1.0000
  C   C1478     1.0  0.64533  0.21261  0.76048  1.0000
  C   C1479     1.0  0.64502  0.18572  0.77471  1.0000
  C   C1480     1.0  0.62374  0.16980  0.77870  1.0000
  C   C1481     1.0  0.58352  0.33112  0.73399  1.0000
  H   H1175     1.0  0.66125  0.17725  0.78277  1.0000
  H   H1176     1.0  0.62354  0.14923  0.79006  1.0000
  H   H1177     1.0  0.64116  0.49076  0.66276  1.0000
  C   C1482     1.0  0.54651  0.23653  0.52611  1.0000
  C   C1483     1.0  0.67440  0.02725  0.74056  1.0000
  H   H1178     1.0  0.58658  0.16333  0.72177  1.0000
  C   C1484     1.0  0.56293  0.39293  0.63320  1.0000
  C   C1485     1.0  0.72722  0.42714  0.63423  1.0000
  C   C1486     1.0  0.54526  0.20823  0.67851  1.0000
  H   H1179     1.0  0.67772  0.38103  0.55889  1.0000
  C   C1487     1.0  0.72939  0.39650  0.64281  1.0000
  C   C1488     1.0  0.68587  0.12564  0.69988  1.0000
  C   C1489     1.0  0.59277  0.42438  0.74543  1.0000
  C   C1490     1.0  0.74914  0.38368  0.57035  1.0000
  C   C1491     1.0  0.52869  0.20775  0.75537  1.0000
  C   C1492     1.0  0.61692  0.41588  0.71116  1.0000
  H   H1180     1.0  0.65968  0.33205  0.54435  1.0000
  H   H1181     1.0  0.57332  0.22125  0.79495  1.0000
  C   C1493     1.0  0.68932  0.47689  0.52942  1.0000
  C   C1494     1.0  0.74652  0.49290  0.74702  1.0000
  H   H1182     1.0  0.55957  0.46671  0.65477  1.0000
  H   H1183     1.0  0.67060  0.03528  0.75816  1.0000
  H   H1184     1.0  0.60732  0.40797  0.77848  1.0000
  H   H1185     1.0  0.54715  0.16710  0.65698  1.0000
  H   H1186     1.0  0.59503  0.26315  0.70574  1.0000
  C   C1495     1.0  0.70908  0.12524  0.69165  1.0000
  H   H1187     1.0  0.52459  0.20699  0.73674  1.0000
  C   C1496     1.0  0.54702  0.47952  0.52793  1.0000
  C   C1497     1.0  0.62134  0.45165  0.60431  1.0000
  H   H1188     1.0  0.56156  0.22425  0.51927  1.0000
  H   H1189     1.0  0.72327  0.45419  0.73834  1.0000
  C   C1498     1.0  0.58292  0.06329  0.66243  1.0000
  C   C1499     1.0  0.65117  0.38847  0.58545  1.0000
  C   C1500     1.0  0.54925  0.05818  0.49945  1.0000
  H   H1190     1.0  0.61528  0.44046  0.58825  1.0000
  C   C1501     1.0  0.69254  0.38215  0.62345  1.0000
  H   H1191     1.0  0.61775  0.02529  0.61215  1.0000
  C   C1502     1.0  0.71987  0.16654  0.71880  1.0000
  C   C1503     1.0  0.70390  0.28142  0.85224  1.0000
  C   C1504     1.0  0.66171  0.37220  0.56702  1.0000
  C   C1505     1.0  0.67964  0.14662  0.71745  1.0000
  H   H1192     1.0  0.62325  0.31073  0.56238  1.0000
  C   C1506     1.0  0.57454  0.39366  0.67433  1.0000
  C   C1507     1.0  0.57061  0.37714  0.65346  1.0000
  H   H1193     1.0  0.74821  0.38897  0.82041  1.0000
  C   C1508     1.0  0.57029  0.28631  0.75711  1.0000
  H   H1194     1.0  0.71340  0.10953  0.67755  1.0000
  H   H1195     1.0  0.71534  0.27619  0.79400  1.0000
  H   H1196     1.0  0.57292  0.35196  0.65309  1.0000
  H   H1197     1.0  0.51545  0.06286  0.60176  1.0000
  C   C1509     1.0  0.63122  0.33209  0.56917  1.0000
  H   H1198     1.0  0.53492  0.46606  0.58700  1.0000
  C   C1510     1.0  0.56321  0.44187  0.65458  1.0000
  C   C1511     1.0  0.65128  0.46090  0.63426  1.0000
  Fe  Fe100     1.0  0.64515  0.34799  0.49273  1.0000
  C   C1512     1.0  0.57814  0.26589  0.73966  1.0000
  H   H1199     1.0  0.61549  0.03812  0.56974  1.0000
  H   H1200     1.0  0.70754  0.04880  0.69340  1.0000
  H   H1201     1.0  0.58548  0.35627  0.73183  1.0000
  C   C1513     1.0  0.69510  0.03534  0.70386  1.0000
  H   H1202     1.0  0.59800  0.08884  0.69142  1.0000
  C   C1514     1.0  0.65170  0.34419  0.55889  1.0000
  C   C1515     1.0  0.60275  0.20806  0.75456  1.0000
  H   H1203     1.0  0.58657  0.16727  0.77130  1.0000
  H   H1204     1.0  0.72364  0.00631  0.77705  1.0000
  C   C1516     1.0  0.67522  0.47619  0.71989  1.0000
  H   H1205     1.0  0.70483  0.32396  0.87234  1.0000
  H   H1206     1.0  0.70329  0.46729  0.66789  1.0000
  C   C1517     1.0  0.69781  0.47837  0.68396  1.0000
  P   P54       1.0  0.66512  0.42374  0.59645  1.0000
  H   H1207     1.0  0.56095  0.23811  0.56138  1.0000
  C   C1518     1.0  0.65868  0.46354  0.55732  1.0000
  H   H1208     1.0  0.59957  0.32050  0.70084  1.0000
  C   C1519     1.0  0.55242  0.22230  0.69957  1.0000
  H   H1209     1.0  0.62284  0.38716  0.61089  1.0000
  C   C1520     1.0  0.51154  0.03355  0.57083  1.0000
  H   H1210     1.0  0.54808  0.07421  0.53515  1.0000
  H   H1211     1.0  0.52226  0.48388  0.63309  1.0000
  C   C1521     1.0  0.69827  0.44400  0.56328  1.0000
  C   C1522     1.0  0.69658  0.16731  0.72665  1.0000
  C   C1523     1.0  0.57296  0.31879  0.75423  1.0000
  C   C1524     1.0  0.57124  0.42629  0.67497  1.0000
  H   H1212     1.0  0.52237  0.17592  0.54440  1.0000
  C   C1525     1.0  0.70761  0.43541  0.62042  1.0000
  H   H1213     1.0  0.69178  0.18367  0.74019  1.0000
  H   H1214     1.0  0.67972  0.36409  0.61904  1.0000
  H   H1215     1.0  0.55598  0.48627  0.74000  1.0000
  H   H1216     1.0  0.67595  0.43913  0.69439  1.0000
  C   C1526     1.0  0.53797  0.06428  0.52069  1.0000
  C   C1527     1.0  0.71320  0.28709  0.81095  1.0000
  H   H1217     1.0  0.55709  0.46917  0.54230  1.0000
  C   C1528     1.0  0.68222  0.46240  0.69891  1.0000
  C   C1529     1.0  0.58876  0.27849  0.71937  1.0000
  C   C1530     1.0  0.59143  0.31098  0.71657  1.0000
  H   H1218     1.0  0.52649  0.35074  0.50372  1.0000
  C   C1531     1.0  0.55163  0.21467  0.76366  1.0000
  H   H1219     1.0  0.74770  0.27855  0.72954  1.0000
  H   H1220     1.0  0.53279  0.21999  0.66689  1.0000
  C   C1532     1.0  0.60991  0.40990  0.75962  1.0000
  C   C1533     1.0  0.73228  0.32510  0.58480  1.0000
  H   H1221     1.0  0.59234  0.00407  0.54256  1.0000
  C   C1534     1.0  0.61370  0.04331  0.68820  1.0000
  C   C1535     1.0  0.71355  0.33274  0.83598  1.0000
  H   H1222     1.0  0.72338  0.45673  0.53658  1.0000
  C   C1536     1.0  0.60754  0.01017  0.60057  1.0000
  C   C1537     1.0  0.70548  0.45957  0.54277  1.0000
  C   C1538     1.0  0.51718  0.03972  0.59450  1.0000
  H   H1223     1.0  0.61213  0.02635  0.75134  1.0000
  S   S200      1.0  0.74716  0.12106  0.80242  1.0000
  H   H1224     1.0  0.71590  0.35758  0.83879  1.0000
  H   H1225     1.0  0.69361  0.38981  0.76673  1.0000
  H   H1226     1.0  0.57712  0.43342  0.75363  1.0000
  H   H1227     1.0  0.57954  0.38077  0.69005  1.0000
  C   C1539     1.0  0.51443  0.15785  0.55538  1.0000
  H   H1228     1.0  0.56673  0.33439  0.76772  1.0000
  H   H1229     1.0  0.72584  0.30217  0.59015  1.0000
  C   C1540     1.0  0.52737  0.42878  0.70904  1.0000
  C   C1541     1.0  0.73485  0.40113  0.81013  1.0000
  C   C1542     1.0  0.54611  0.24399  0.55004  1.0000
  C   C1543     1.0  0.63396  0.40126  0.72539  1.0000
  H   H1230     1.0  0.57100  0.26882  0.49166  1.0000
  H   H1231     1.0  0.54122  0.20878  0.82264  1.0000
  H   H1232     1.0  0.52593  0.26427  0.57802  1.0000
  C   C1544     1.0  0.60405  0.00719  0.74161  1.0000
  C   C1545     1.0  0.66462  0.99911  0.73198  1.0000
  H   H1233     1.0  0.74479  0.38984  0.65314  1.0000
  H   H1234     1.0  0.64033  0.46467  0.56197  1.0000
  Fe  Fe101     1.0  0.50657  0.37826  0.58417  1.0000
  S   S201      1.0  0.75176  0.40593  0.71908  1.0000
  C   C1546     1.0  0.51028  0.36371  0.50142  1.0000
  C   C1547     1.0  0.52647  0.25878  0.55942  1.0000
  S   S202      1.0  0.74753  0.05805  0.75252  1.0000
  C   C1548     1.0  0.74835  0.01668  0.74958  1.0000
  H   H1235     1.0  0.74102  0.44425  0.63788  1.0000
  C   C1549     1.0  0.63561  0.47980  0.64645  1.0000
  C   C1550     1.0  0.51054  0.20118  0.77120  1.0000
  C   C1551     1.0  0.63180  0.00177  0.81780  1.0000
  C   C1552     1.0  0.74968  0.20462  0.63295  1.0000
  H   H1236     1.0  0.52441  0.43945  0.52464  1.0000
  C   C1553     1.0  0.74920  0.17812  0.64768  1.0000
  C   C1554     1.0  0.66592  0.47889  0.53670  1.0000
  C   C1555     1.0  0.68483  0.00793  0.69493  1.0000
  H   H1237     1.0  0.74437  0.46632  0.68429  1.0000
  H   H1238     1.0  0.65325  0.49154  0.52589  1.0000
  C   C1556     1.0  0.51421  0.00295  0.56233  1.0000
  C   C1557     1.0  0.58411  0.48728  0.69787  1.0000
  H   H1239     1.0  0.74253  0.15611  0.64082  1.0000
  H   H1240     1.0  0.74715  0.08063  0.70290  1.0000
  H   H1241     1.0  0.74380  0.20296  0.61479  1.0000
  C   C1558     1.0  0.50722  0.26606  0.54489  1.0000
  H   H1242     1.0  0.68919  0.00020  0.67742  1.0000
  C   C1559     1.0  0.59335  0.99839  0.56120  1.0000
  C   C1560     1.0  0.50461  0.48138  0.56722  1.0000
  C   C1561     1.0  0.50769  0.25908  0.52091  1.0000
  H   H1243     1.0  0.51650  0.49034  0.75751  1.0000
  C   C1562     1.0  0.50503  0.43135  0.71904  1.0000
  H   H1244     1.0  0.52805  0.40641  0.49153  1.0000
  S   S203      1.0  0.68104  0.32538  0.49055  1.0000
  Fe  Fe102     1.0  0.53234  0.79767  0.28323  1.0000
  C   C1563     1.0  0.59754  0.50877  0.42551  1.0000
  H   H1245     1.0  0.75017  0.99466  0.42498  1.0000
  Fe  Fe103     1.0  0.52461  0.86294  0.30256  1.0000
  C   C1564     1.0  0.70536  0.52656  0.29246  1.0000
  S   S204      1.0  0.51876  0.81176  0.24724  1.0000
  C   C1565     1.0  0.55891  0.88665  0.41028  1.0000
  Fe  Fe104     1.0  0.54064  0.85634  0.25209  1.0000
  S   S205      1.0  0.56694  0.87240  0.22376  1.0000
  S   S206      1.0  0.55588  0.84002  0.28654  1.0000
  H   H1246     1.0  0.51116  0.51647  0.47639  1.0000
  S   S207      1.0  0.67927  0.81592  0.48381  1.0000
  Fe  Fe105     1.0  0.52774  0.55881  0.36177  1.0000
  S   S208      1.0  0.55629  0.58260  0.38317  1.0000
  S   S209      1.0  0.54599  0.74847  0.29062  1.0000
  Fe  Fe106     1.0  0.53929  0.55767  0.41393  1.0000
  H   H1247     1.0  0.62283  0.94936  0.36860  1.0000
  Fe  Fe107     1.0  0.52893  0.62009  0.38835  1.0000
  S   S210      1.0  0.53402  0.67323  0.38722  1.0000
  C   C1566     1.0  0.53986  0.96570  0.46196  1.0000
  S   S211      1.0  0.53376  0.53663  0.32640  1.0000
  Fe  Fe108     1.0  0.68362  0.98264  0.20228  1.0000
  S   S212      1.0  0.71237  0.96299  0.22539  1.0000
  S   S213      1.0  0.64629  0.98123  0.21807  1.0000
  H   H1248     1.0  0.54541  0.98993  0.37161  1.0000
  Fe  Fe109     1.0  0.72783  0.94524  0.19203  1.0000
  H   H1249     1.0  0.64504  0.90972  0.33099  1.0000
  H   H1250     1.0  0.57542  0.52297  0.29811  1.0000
  S   S214      1.0  0.69804  0.96258  0.16886  1.0000
  C   C1567     1.0  0.62657  0.99267  0.34892  1.0000
  C   C1568     1.0  0.69991  0.89490  0.35366  1.0000
  H   H1251     1.0  0.75427  0.58747  0.19468  1.0000
  H   H1252     1.0  0.57376  0.96218  0.31126  1.0000
  C   C1569     1.0  0.74797  0.63201  0.26124  1.0000
  Fe  Fe110     1.0  0.67590  0.90117  0.46023  1.0000
  S   S215      1.0  0.65581  0.86090  0.44466  1.0000
  S   S216      1.0  0.67096  0.94536  0.43774  1.0000
  C   C1570     1.0  0.56288  0.97503  0.46774  1.0000
  Fe  Fe111     1.0  0.68945  0.83348  0.44778  1.0000
  S   S217      1.0  0.69643  0.80607  0.41383  1.0000
  S   S218      1.0  0.71035  0.87453  0.46193  1.0000
  C   C1571     1.0  0.58851  0.97070  0.32180  1.0000
  S   S219      1.0  0.51436  0.59735  0.42137  1.0000
  C   C1572     1.0  0.52804  0.94324  0.47583  1.0000
  C   C1573     1.0  0.72138  0.78727  0.40141  1.0000
  C   C1574     1.0  0.72015  0.77857  0.37761  1.0000
  C   C1575     1.0  0.73903  0.76330  0.36669  1.0000
  C   C1576     1.0  0.60071  0.50835  0.32449  1.0000
  H   H1253     1.0  0.53096  0.82222  0.47735  1.0000
  H   H1254     1.0  0.70443  0.78375  0.36756  1.0000
  C   C1577     1.0  0.63981  0.98316  0.46151  1.0000
  H   H1255     1.0  0.73762  0.75662  0.34843  1.0000
  H   H1256     1.0  0.73552  0.68896  0.38582  1.0000
  C   C1578     1.0  0.71792  0.95003  0.38677  1.0000
  C   C1579     1.0  0.72296  0.97117  0.40486  1.0000
  C   C1580     1.0  0.58864  0.92503  0.42160  1.0000
  H   H1257     1.0  0.64227  0.97505  0.40225  1.0000
  S   S220      1.0  0.55528  0.52922  0.44420  1.0000
  H   H1258     1.0  0.54658  0.65346  0.34005  1.0000
  S   S221      1.0  0.71174  0.52055  0.19896  1.0000
  C   C1581     1.0  0.64697  0.97156  0.43981  1.0000
  Fe  Fe112     1.0  0.64774  0.84733  0.48187  1.0000
  H   H1259     1.0  0.51796  0.93304  0.30058  1.0000
  H   H1260     1.0  0.57195  0.99181  0.45663  1.0000
  H   H1261     1.0  0.59096  0.51857  0.33881  1.0000
  H   H1262     1.0  0.63179  0.58788  0.35204  1.0000
  C   C1582     1.0  0.74685  0.95567  0.32099  1.0000
  C   C1583     1.0  0.58931  0.90239  0.22333  1.0000
  C   C1584     1.0  0.58845  0.92893  0.23760  1.0000
  C   C1585     1.0  0.60594  0.95277  0.23569  1.0000
  C   C1586     1.0  0.62488  0.95013  0.21995  1.0000
  C   C1587     1.0  0.62575  0.92355  0.20576  1.0000
  C   C1588     1.0  0.60803  0.90003  0.20732  1.0000
  H   H1263     1.0  0.57401  0.93145  0.24972  1.0000
  H   H1264     1.0  0.60481  0.97339  0.24652  1.0000
  H   H1265     1.0  0.63976  0.92146  0.19312  1.0000
  H   H1266     1.0  0.60875  0.87994  0.19588  1.0000
  H   H1267     1.0  0.52474  0.73745  0.37432  1.0000
  H   H1268     1.0  0.71854  0.62684  0.23716  1.0000
  C   C1589     1.0  0.56498  0.91682  0.41780  1.0000
  H   H1269     1.0  0.53169  0.97588  0.44647  1.0000
  S   S222      1.0  0.74498  0.67320  0.26265  1.0000
  H   H1270     1.0  0.53405  0.81841  0.43171  1.0000
  C   C1590     1.0  0.51652  0.86832  0.47194  1.0000
  C   C1591     1.0  0.72612  0.52085  0.30522  1.0000
  H   H1271     1.0  0.60102  0.87193  0.32154  1.0000
  C   C1592     1.0  0.54090  0.72770  0.31726  1.0000
  C   C1593     1.0  0.54556  0.69541  0.31832  1.0000
  C   C1594     1.0  0.54273  0.67826  0.33943  1.0000
  C   C1595     1.0  0.53565  0.69342  0.35985  1.0000
  C   C1596     1.0  0.53065  0.72566  0.35873  1.0000
  C   C1597     1.0  0.53311  0.74271  0.33749  1.0000
  C   C1598     1.0  0.59674  0.85046  0.33097  1.0000
  H   H1272     1.0  0.55132  0.93400  0.42025  1.0000
  P   P55       1.0  0.73026  0.90814  0.35137  1.0000
  H   H1273     1.0  0.52942  0.76753  0.33686  1.0000
  H   H1274     1.0  0.58870  0.93027  0.34472  1.0000
  H   H1275     1.0  0.61751  0.77657  0.45810  1.0000
  C   C1599     1.0  0.52465  0.81840  0.41499  1.0000
  C   C1600     1.0  0.52382  0.94534  0.31612  1.0000
  C   C1601     1.0  0.61617  0.96349  0.35408  1.0000
  C   C1602     1.0  0.74838  0.67092  0.35320  1.0000
  H   H1276     1.0  0.74164  0.53542  0.30225  1.0000
  H   H1277     1.0  0.70865  0.98146  0.41458  1.0000
  H   H1278     1.0  0.58327  0.87456  0.36069  1.0000
  Fe  Fe113     1.0  0.73184  0.50064  0.16844  1.0000
  C   C1603     1.0  0.60632  0.90333  0.41727  1.0000
  C   C1604     1.0  0.60031  0.87319  0.40953  1.0000
  C   C1605     1.0  0.57649  0.86427  0.40662  1.0000
  P   P56       1.0  0.56882  0.82610  0.39486  1.0000
  C   C1606     1.0  0.58061  0.82411  0.36545  1.0000
  C   C1607     1.0  0.57951  0.79382  0.41287  1.0000
  C   C1608     1.0  0.57040  0.76345  0.40908  1.0000
  C   C1609     1.0  0.57867  0.73794  0.42229  1.0000
  C   C1610     1.0  0.59587  0.74258  0.43975  1.0000
  C   C1611     1.0  0.60455  0.77278  0.44417  1.0000
  C   C1612     1.0  0.59631  0.79835  0.43096  1.0000
  C   C1613     1.0  0.58331  0.79516  0.35425  1.0000
  C   C1614     1.0  0.53712  0.82145  0.39386  1.0000
  C   C1615     1.0  0.57418  0.96264  0.48763  1.0000
  H   H1279     1.0  0.72873  0.80821  0.33010  1.0000
  C   C1616     1.0  0.52467  0.82116  0.37237  1.0000
  S   S223      1.0  0.52946  0.88753  0.33728  1.0000
  H   H1280     1.0  0.61428  0.85691  0.40570  1.0000
  H   H1281     1.0  0.55677  0.75936  0.39596  1.0000
  H   H1282     1.0  0.57156  0.71460  0.41904  1.0000
  H   H1283     1.0  0.60225  0.72286  0.45009  1.0000
  H   H1284     1.0  0.74714  0.58291  0.10306  1.0000
  H   H1285     1.0  0.60293  0.82138  0.43544  1.0000
  H   H1286     1.0  0.57756  0.77352  0.36246  1.0000
  H   H1287     1.0  0.63803  0.55891  0.31495  1.0000
  H   H1288     1.0  0.74009  0.81232  0.28831  1.0000
  H   H1289     1.0  0.53382  0.82354  0.35580  1.0000
  C   C1617     1.0  0.74871  0.84287  0.21594  1.0000
  C   C1618     1.0  0.62191  0.91903  0.28506  1.0000
  C   C1619     1.0  0.63871  0.94330  0.28561  1.0000
  C   C1620     1.0  0.66194  0.93757  0.27907  1.0000
  C   C1621     1.0  0.66833  0.90763  0.27188  1.0000
  C   C1622     1.0  0.65144  0.88334  0.27063  1.0000
  C   C1623     1.0  0.62818  0.88916  0.27753  1.0000
  P   P57       1.0  0.66050  0.84499  0.26130  1.0000
  C   C1624     1.0  0.63624  0.81715  0.26037  1.0000
  C   C1625     1.0  0.67198  0.84613  0.23180  1.0000
  C   C1626     1.0  0.67945  0.81820  0.22151  1.0000
  C   C1627     1.0  0.68788  0.81829  0.19847  1.0000
  C   C1628     1.0  0.68875  0.84628  0.18550  1.0000
  C   C1629     1.0  0.68102  0.87408  0.19550  1.0000
  C   C1630     1.0  0.67263  0.87408  0.21853  1.0000
  C   C1631     1.0  0.63696  0.78878  0.27321  1.0000
  C   C1632     1.0  0.61781  0.76778  0.27227  1.0000
  C   C1633     1.0  0.59818  0.77450  0.25807  1.0000
  C   C1634     1.0  0.59769  0.80214  0.24471  1.0000
  C   C1635     1.0  0.61669  0.82328  0.24572  1.0000
  C   C1636     1.0  0.68232  0.83285  0.28272  1.0000
  C   C1637     1.0  0.67604  0.83077  0.30652  1.0000
  C   C1638     1.0  0.69266  0.82168  0.32351  1.0000
  C   C1639     1.0  0.71573  0.81497  0.31693  1.0000
  C   C1640     1.0  0.72216  0.81739  0.29333  1.0000
  C   C1641     1.0  0.70562  0.82654  0.27623  1.0000
  H   H1290     1.0  0.60373  0.92364  0.28945  1.0000
  H   H1291     1.0  0.53239  0.87726  0.46359  1.0000
  H   H1292     1.0  0.54055  0.88126  0.40673  1.0000
  H   H1293     1.0  0.68628  0.90358  0.26650  1.0000
  H   H1294     1.0  0.61467  0.87108  0.27668  1.0000
  H   H1295     1.0  0.67882  0.79644  0.23140  1.0000
  H   H1296     1.0  0.69392  0.79677  0.19070  1.0000
  H   H1297     1.0  0.69573  0.84668  0.16782  1.0000
  H   H1298     1.0  0.68190  0.89580  0.18546  1.0000
  H   H1299     1.0  0.66657  0.89594  0.22563  1.0000
  H   H1300     1.0  0.65214  0.78267  0.28396  1.0000
  H   H1301     1.0  0.61806  0.74629  0.28258  1.0000
  H   H1302     1.0  0.58331  0.75828  0.25733  1.0000
  H   H1303     1.0  0.58247  0.80736  0.23363  1.0000
  H   H1304     1.0  0.61603  0.84456  0.23517  1.0000
  H   H1305     1.0  0.65825  0.83610  0.31193  1.0000
  H   H1306     1.0  0.68768  0.82002  0.34181  1.0000
  C   C1642     1.0  0.75298  0.56649  0.25628  1.0000
  C   C1643     1.0  0.73636  0.93602  0.37447  1.0000
  H   H1307     1.0  0.71125  0.82891  0.25815  1.0000
  S   S224      1.0  0.73881  0.89462  0.18873  1.0000
  H   H1308     1.0  0.70634  0.86360  0.38338  1.0000
  H   H1309     1.0  0.67485  0.95651  0.27892  1.0000
  S   S225      1.0  0.73679  0.53370  0.13653  1.0000
  H   H1310     1.0  0.69961  0.94445  0.38283  1.0000
  H   H1311     1.0  0.51967  0.99112  0.30024  1.0000
  C   C1644     1.0  0.69333  0.87361  0.37151  1.0000
  C   C1645     1.0  0.66961  0.86536  0.37462  1.0000
  C   C1646     1.0  0.65223  0.87824  0.35997  1.0000
  C   C1647     1.0  0.65854  0.89948  0.34219  1.0000
  H   H1312     1.0  0.72880  0.91097  0.26433  1.0000
  H   H1313     1.0  0.59730  0.49971  0.26513  1.0000
  H   H1314     1.0  0.71971  0.88792  0.30328  1.0000
  H   H1315     1.0  0.66476  0.84915  0.38863  1.0000
  H   H1316     1.0  0.63390  0.87200  0.36266  1.0000
  C   C1648     1.0  0.63654  0.98357  0.41907  1.0000
  H   H1317     1.0  0.59450  0.52526  0.41123  1.0000
  H   H1318     1.0  0.62472  0.90993  0.41994  1.0000
  C   C1649     1.0  0.73362  0.92355  0.28018  1.0000
  C   C1650     1.0  0.60024  0.82150  0.32039  1.0000
  C   C1651     1.0  0.64097  0.59915  0.33755  1.0000
  C   C1652     1.0  0.64454  0.58278  0.31670  1.0000
  C   C1653     1.0  0.65680  0.59708  0.29821  1.0000
  C   C1654     1.0  0.66509  0.62796  0.30035  1.0000
  C   C1655     1.0  0.66075  0.64504  0.32088  1.0000
  C   C1656     1.0  0.64938  0.62999  0.33979  1.0000
  P   P58       1.0  0.67278  0.68424  0.32410  1.0000
  C   C1657     1.0  0.70216  0.67879  0.33600  1.0000
  C   C1658     1.0  0.67446  0.70354  0.29574  1.0000
  C   C1659     1.0  0.69392  0.72279  0.29012  1.0000
  C   C1660     1.0  0.69584  0.73609  0.26762  1.0000
  C   C1661     1.0  0.67817  0.73067  0.25073  1.0000
  H   H1319     1.0  0.75220  0.96862  0.33643  1.0000
  C   C1662     1.0  0.65631  0.69930  0.27902  1.0000
  C   C1663     1.0  0.70778  0.68577  0.35955  1.0000
  C   C1664     1.0  0.73093  0.68228  0.36796  1.0000
  H   H1320     1.0  0.66973  0.51191  0.28538  1.0000
  C   C1665     1.0  0.53810  0.94485  0.35639  1.0000
  C   C1666     1.0  0.71964  0.66644  0.32156  1.0000
  C   C1667     1.0  0.65494  0.70944  0.34194  1.0000
  C   C1668     1.0  0.66511  0.73637  0.35206  1.0000
  C   C1669     1.0  0.65200  0.75500  0.36714  1.0000
  C   C1670     1.0  0.62838  0.74749  0.37153  1.0000
  C   C1671     1.0  0.61764  0.72192  0.36028  1.0000
  C   C1672     1.0  0.63080  0.70311  0.34534  1.0000
  H   H1321     1.0  0.54344  0.93198  0.37200  1.0000
  C   C1673     1.0  0.59311  0.79390  0.33181  1.0000
  H   H1322     1.0  0.66004  0.58419  0.28223  1.0000
  H   H1323     1.0  0.67512  0.63830  0.28604  1.0000
  H   H1324     1.0  0.64711  0.64197  0.35633  1.0000
  H   H1325     1.0  0.70796  0.72693  0.30285  1.0000
  H   H1326     1.0  0.71141  0.74982  0.26313  1.0000
  H   H1327     1.0  0.64088  0.68515  0.28318  1.0000
  H   H1328     1.0  0.69455  0.69408  0.37148  1.0000
  S   S226      1.0  0.75114  0.98761  0.18611  1.0000
  C   C1674     1.0  0.59706  0.95260  0.34059  1.0000
  C   C1675     1.0  0.74537  0.95244  0.27847  1.0000
  H   H1329     1.0  0.71561  0.66016  0.30351  1.0000
  H   H1330     1.0  0.68339  0.74247  0.34875  1.0000
  H   H1331     1.0  0.66031  0.77493  0.37580  1.0000
  H   H1332     1.0  0.61842  0.76157  0.38362  1.0000
  H   H1333     1.0  0.59914  0.71645  0.36331  1.0000
  H   H1334     1.0  0.62210  0.68359  0.33666  1.0000
  C   C1676     1.0  0.73545  0.92628  0.32289  1.0000
  H   H1335     1.0  0.70499  0.54538  0.27948  1.0000
  H   H1336     1.0  0.64802  0.97455  0.47756  1.0000
  C   C1677     1.0  0.72852  0.91058  0.30227  1.0000
  C   C1678     1.0  0.51578  0.83708  0.47966  1.0000
  C   C1679     1.0  0.74182  0.78000  0.41435  1.0000
  H   H1337     1.0  0.74304  0.78619  0.43275  1.0000
  C   C1680     1.0  0.53897  0.97771  0.35628  1.0000
  S   S227      1.0  0.51037  0.88230  0.26841  1.0000
  H   H1338     1.0  0.59457  0.77156  0.32300  1.0000
  C   C1681     1.0  0.53049  0.92862  0.33636  1.0000
  H   H1339     1.0  0.64448  0.70870  0.24346  1.0000
  C   C1682     1.0  0.58668  0.85182  0.35326  1.0000
  H   H1340     1.0  0.74628  0.87494  0.39393  1.0000
  C   C1683     1.0  0.52471  0.97825  0.31598  1.0000
  H   H1341     1.0  0.59330  0.94832  0.42767  1.0000
  H   H1342     1.0  0.60718  0.82060  0.30279  1.0000
  C   C1684     1.0  0.68225  0.90801  0.33914  1.0000
  H   H1343     1.0  0.68663  0.92530  0.32578  1.0000
  H   H1344     1.0  0.55155  0.68360  0.30274  1.0000
  C   C1685     1.0  0.75027  0.87570  0.35596  1.0000
  C   C1686     1.0  0.73240  0.61482  0.24678  1.0000
  H   H1345     1.0  0.68001  0.74009  0.23307  1.0000
  H   H1346     1.0  0.63363  0.96674  0.29045  1.0000
  H   H1347     1.0  0.72307  0.56946  0.23273  1.0000
  C   C1687     1.0  0.65826  0.71265  0.25652  1.0000
  C   C1688     1.0  0.73499  0.58226  0.24417  1.0000
  C   C1689     1.0  0.74263  0.66257  0.33012  1.0000
  H   H1348     1.0  0.73900  0.82980  0.20276  1.0000
  C   C1690     1.0  0.58091  0.50565  0.44342  1.0000
  C   C1691     1.0  0.53215  0.99450  0.33611  1.0000
  H   H1349     1.0  0.74968  0.96229  0.26137  1.0000
  C   C1692     1.0  0.74637  0.97851  0.41079  1.0000
  Fe  Fe114     1.0  0.74023  0.50036  0.22181  1.0000
  C   C1693     1.0  0.75174  0.96865  0.29883  1.0000
  C   C1694     1.0  0.68540  0.50753  0.29592  1.0000
  C   C1695     1.0  0.59185  0.51081  0.30152  1.0000
  H   H1350     1.0  0.51567  0.61323  0.47450  1.0000
  C   C1696     1.0  0.75041  0.87565  0.21390  1.0000
  S   S228      1.0  0.51246  0.53181  0.39202  1.0000
  S   S229      1.0  0.72034  0.84364  0.53097  1.0000
  C   C1697     1.0  0.61618  0.97902  0.73847  1.0000
  P   P59       1.0  0.64946  0.83978  0.59444  1.0000
  Fe  Fe115     1.0  0.73807  0.58954  0.82570  1.0000
  Fe  Fe116     1.0  0.69864  0.58427  0.78658  1.0000
  S   S230      1.0  0.72296  0.60376  0.75872  1.0000
  S   S231      1.0  0.66346  0.56082  0.77549  1.0000
  C   C1698     1.0  0.51554  0.54132  0.58392  1.0000
  H   H1351     1.0  0.71057  0.64302  0.66772  1.0000
  Fe  Fe117     1.0  0.73471  0.63854  0.78622  1.0000
  P   P60       1.0  0.64581  0.97478  0.75015  1.0000
  S   S232      1.0  0.72585  0.55082  0.80142  1.0000
  S   S233      1.0  0.70852  0.62114  0.81337  1.0000
  Fe  Fe118     1.0  0.52730  0.60085  0.73308  1.0000
  S   S234      1.0  0.52548  0.61531  0.69487  1.0000
  S   S235      1.0  0.56008  0.61527  0.75478  1.0000
  H   H1352     1.0  0.69700  0.53862  0.85603  1.0000
  S   S236      1.0  0.54998  0.89499  0.57033  1.0000
  C   C1699     1.0  0.64019  0.91081  0.75887  1.0000
  C   C1700     1.0  0.64735  0.87950  0.75925  1.0000
  C   C1701     1.0  0.67170  0.80239  0.56146  1.0000
  H   H1353     1.0  0.53949  0.84371  0.53790  1.0000
  P   P61       1.0  0.59717  0.97435  0.64070  1.0000
  S   S237      1.0  0.50959  0.55352  0.72830  1.0000
  C   C1702     1.0  0.63526  0.57701  0.76857  1.0000
  C   C1703     1.0  0.62971  0.60812  0.77352  1.0000
  C   C1704     1.0  0.60673  0.61937  0.76892  1.0000
  C   C1705     1.0  0.58908  0.59997  0.75890  1.0000
  C   C1706     1.0  0.59476  0.56899  0.75351  1.0000
  C   C1707     1.0  0.61764  0.55756  0.75852  1.0000
  H   H1354     1.0  0.64298  0.62338  0.78130  1.0000
  H   H1355     1.0  0.60255  0.64331  0.77326  1.0000
  H   H1356     1.0  0.58137  0.55369  0.74602  1.0000
  H   H1357     1.0  0.62163  0.53340  0.75480  1.0000
  C   C1708     1.0  0.62885  0.99307  0.79426  1.0000
  H   H1358     1.0  0.57357  0.94353  0.59997  1.0000
  C   C1709     1.0  0.64450  0.91352  0.67114  1.0000
  H   H1359     1.0  0.70626  0.54458  0.71646  1.0000
  C   C1710     1.0  0.66950  0.98997  0.70887  1.0000
  Fe  Fe119     1.0  0.69842  0.85861  0.49831  1.0000
  H   H1360     1.0  0.60047  0.69007  0.93481  1.0000
  C   C1711     1.0  0.71816  0.66600  0.86190  1.0000
  C   C1712     1.0  0.73219  0.85981  0.55755  1.0000
  P   P62       1.0  0.72623  0.52879  0.66991  1.0000
  C   C1713     1.0  0.67969  0.80019  0.61946  1.0000
  C   C1714     1.0  0.64995  0.81263  0.57012  1.0000
  C   C1715     1.0  0.75207  0.71158  0.75826  1.0000
  C   C1716     1.0  0.62373  0.95268  0.64757  1.0000
  C   C1717     1.0  0.65908  0.93884  0.56220  1.0000
  C   C1718     1.0  0.66534  0.92028  0.65909  1.0000
  C   C1719     1.0  0.56671  0.87650  0.54837  1.0000
  C   C1720     1.0  0.58997  0.88684  0.54426  1.0000
  C   C1721     1.0  0.60367  0.87296  0.52674  1.0000
  C   C1722     1.0  0.59419  0.84864  0.51311  1.0000
  C   C1723     1.0  0.57104  0.83809  0.51742  1.0000
  C   C1724     1.0  0.55732  0.85199  0.53491  1.0000
  H   H1361     1.0  0.59745  0.90568  0.55462  1.0000
  H   H1362     1.0  0.62155  0.88106  0.52383  1.0000
  H   H1363     1.0  0.67749  0.53413  0.65301  1.0000
  H   H1364     1.0  0.54301  0.54679  0.49555  1.0000
  H   H1365     1.0  0.61121  0.99259  0.78689  1.0000
  C   C1725     1.0  0.52967  0.51588  0.59034  1.0000
  C   C1726     1.0  0.52162  0.97881  0.57738  1.0000
  H   H1366     1.0  0.66468  0.54253  0.82621  1.0000
  H   H1367     1.0  0.66878  0.78111  0.61286  1.0000
  C   C1727     1.0  0.65335  0.58775  0.83792  1.0000
  C   C1728     1.0  0.66738  0.56102  0.83895  1.0000
  C   C1729     1.0  0.68546  0.55874  0.85579  1.0000
  C   C1730     1.0  0.68941  0.58305  0.87174  1.0000
  C   C1731     1.0  0.67516  0.60976  0.87111  1.0000
  C   C1732     1.0  0.65736  0.61219  0.85378  1.0000
  P   P63       1.0  0.68182  0.64292  0.88965  1.0000
  C   C1733     1.0  0.65574  0.65786  0.90336  1.0000
  C   C1734     1.0  0.70150  0.63312  0.91380  1.0000
  C   C1735     1.0  0.69732  0.60601  0.92744  1.0000
  H   H1368     1.0  0.56371  0.81903  0.50717  1.0000
  H   H1369     1.0  0.57454  0.94046  0.70539  1.0000
  C   C1736     1.0  0.53940  0.93119  0.49606  1.0000
  C   C1737     1.0  0.72017  0.65343  0.92012  1.0000
  C   C1738     1.0  0.65682  0.68692  0.91476  1.0000
  C   C1739     1.0  0.63691  0.69855  0.92595  1.0000
  C   C1740     1.0  0.61588  0.68107  0.92609  1.0000
  C   C1741     1.0  0.61482  0.65182  0.91520  1.0000
  C   C1742     1.0  0.63472  0.64010  0.90402  1.0000
  C   C1743     1.0  0.69537  0.67140  0.87027  1.0000
  C   C1744     1.0  0.68279  0.69747  0.86181  1.0000
  H   H1370     1.0  0.64554  0.97783  0.62242  1.0000
  C   C1745     1.0  0.52633  0.98489  0.60107  1.0000
  C   C1746     1.0  0.71308  0.52692  0.64078  1.0000
  H   H1371     1.0  0.73897  0.65502  0.69992  1.0000
  H   H1372     1.0  0.63986  0.58986  0.82431  1.0000
  H   H1373     1.0  0.70413  0.58128  0.88395  1.0000
  H   H1374     1.0  0.64694  0.63326  0.85215  1.0000
  H   H1375     1.0  0.68262  0.59050  0.92329  1.0000
  H   H1376     1.0  0.68403  0.52188  0.57842  1.0000
  C   C1747     1.0  0.62379  0.92968  0.66548  1.0000
  C   C1748     1.0  0.56232  0.94099  0.50190  1.0000
  S   S238      1.0  0.50665  0.85531  0.61537  1.0000
  H   H1377     1.0  0.67311  0.70051  0.91505  1.0000
  H   H1378     1.0  0.63783  0.72104  0.93466  1.0000
  H   H1379     1.0  0.52965  0.63607  0.51222  1.0000
  H   H1380     1.0  0.63365  0.61710  0.89617  1.0000
  H   H1381     1.0  0.66480  0.70141  0.86713  1.0000
  C   C1749     1.0  0.51612  0.61789  0.51227  1.0000
  C   C1750     1.0  0.50660  0.60730  0.53359  1.0000
  H   H1382     1.0  0.67534  0.84741  0.75143  1.0000
  C   C1751     1.0  0.69966  0.52178  0.71112  1.0000
  C   C1752     1.0  0.54915  0.90263  0.64899  1.0000
  C   C1753     1.0  0.53028  0.91715  0.65994  1.0000
  C   C1754     1.0  0.53184  0.94889  0.66560  1.0000
  C   C1755     1.0  0.55219  0.96622  0.66019  1.0000
  C   C1756     1.0  0.57127  0.95183  0.64910  1.0000
  C   C1757     1.0  0.56954  0.91984  0.64351  1.0000
  C   C1758     1.0  0.62227  0.82003  0.63308  1.0000
  C   C1759     1.0  0.69906  0.79340  0.63403  1.0000
  Fe  Fe120     1.0  0.50592  0.56948  0.69054  1.0000
  C   C1760     1.0  0.73660  0.63106  0.69406  1.0000
  H   H1383     1.0  0.68574  0.87991  0.61728  1.0000
  H   H1384     1.0  0.57105  0.93136  0.51728  1.0000
  H   H1385     1.0  0.72756  0.64510  0.86732  1.0000
  Fe  Fe121     1.0  0.51330  0.87673  0.57968  1.0000
  S   S239      1.0  0.51475  0.53873  0.65997  1.0000
  H   H1386     1.0  0.61496  0.93392  0.72113  1.0000
  C   C1761     1.0  0.64184  0.93355  0.57920  1.0000
  C   C1762     1.0  0.67345  0.91431  0.55533  1.0000
  C   C1763     1.0  0.67022  0.88437  0.56501  1.0000
  H   H1387     1.0  0.72495  0.94845  0.77137  1.0000
  H   H1388     1.0  0.56637  0.52334  0.52831  1.0000
  H   H1389     1.0  0.54777  0.87811  0.64437  1.0000
  H   H1390     1.0  0.59860  0.63811  0.91555  1.0000
  C   C1764     1.0  0.67388  0.99374  0.81503  1.0000
  H   H1391     1.0  0.72347  0.67494  0.91041  1.0000
  H   H1392     1.0  0.58375  0.90827  0.63451  1.0000
  H   H1393     1.0  0.70311  0.76930  0.63857  1.0000
  C   C1765     1.0  0.66553  0.94338  0.64147  1.0000
  C   C1766     1.0  0.75429  0.88255  0.59945  1.0000
  H   H1394     1.0  0.60792  0.92427  0.67521  1.0000
  H   H1395     1.0  0.63585  0.86142  0.76645  1.0000
  H   H1396     1.0  0.68140  0.90772  0.66348  1.0000
  C   C1767     1.0  0.66958  0.87158  0.75083  1.0000
  H   H1397     1.0  0.62316  0.91672  0.76602  1.0000
  C   C1768     1.0  0.60100  0.81461  0.64487  1.0000
  H   H1398     1.0  0.73247  0.50781  0.75289  1.0000
  C   C1769     1.0  0.57437  0.54133  0.68817  1.0000
  H   H1399     1.0  0.70479  0.58861  0.65437  1.0000
  H   H1400     1.0  0.55269  0.99079  0.66464  1.0000
  C   C1770     1.0  0.73116  0.61854  0.95221  1.0000
  H   H1401     1.0  0.54948  0.50318  0.68677  1.0000
  H   H1402     1.0  0.68822  0.80989  0.56949  1.0000
  C   C1771     1.0  0.75356  0.74451  0.75864  1.0000
  C   C1772     1.0  0.60080  0.84503  0.60114  1.0000
  H   H1403     1.0  0.68339  0.73811  0.83890  1.0000
  H   H1404     1.0  0.74783  0.75693  0.77404  1.0000
  C   C1773     1.0  0.59748  0.55074  0.69355  1.0000
  C   C1774     1.0  0.67103  0.98526  0.79146  1.0000
  C   C1775     1.0  0.63888  0.90374  0.58937  1.0000
  C   C1776     1.0  0.62991  0.78467  0.53842  1.0000
  C   C1777     1.0  0.74992  0.95089  0.74304  1.0000
  H   H1405     1.0  0.66197  0.96849  0.70190  1.0000
  C   C1778     1.0  0.71230  0.59857  0.94639  1.0000
  C   C1779     1.0  0.68901  0.85571  0.62204  1.0000
  C   C1780     1.0  0.61405  0.52852  0.70083  1.0000
  H   H1406     1.0  0.56301  0.84642  0.60472  1.0000
  H   H1407     1.0  0.75424  0.83435  0.61082  1.0000
  H   H1408     1.0  0.63076  0.95259  0.58441  1.0000
  H   H1409     1.0  0.63844  0.81210  0.64131  1.0000
  H   H1410     1.0  0.61205  0.81207  0.56362  1.0000
  H   H1411     1.0  0.72863  0.81225  0.65355  1.0000
  H   H1412     1.0  0.57151  0.95691  0.55807  1.0000
  H   H1413     1.0  0.61376  0.77876  0.52894  1.0000
  C   C1781     1.0  0.71605  0.71292  0.83767  1.0000
  C   C1782     1.0  0.72851  0.68679  0.84577  1.0000
  C   C1783     1.0  0.62905  0.80382  0.55822  1.0000
  H   H1414     1.0  0.53079  0.91384  0.50722  1.0000
  C   C1784     1.0  0.71340  0.81767  0.64258  1.0000
  H   H1415     1.0  0.62575  0.90040  0.60286  1.0000
  H   H1416     1.0  0.60103  0.80250  0.66174  1.0000
  H   H1417     1.0  0.52338  0.95519  0.57076  1.0000
  H   H1418     1.0  0.74303  0.61267  0.96667  1.0000
  C   C1785     1.0  0.57964  0.82399  0.63464  1.0000
  H   H1419     1.0  0.56310  0.81897  0.64343  1.0000
  H   H1420     1.0  0.62504  0.99649  0.68180  1.0000
  H   H1421     1.0  0.68700  0.91826  0.54226  1.0000
  H   H1422     1.0  0.64445  0.89573  0.68493  1.0000
  H   H1423     1.0  0.65222  0.76048  0.51430  1.0000
  H   H1424     1.0  0.72733  0.51642  0.58313  1.0000
  C   C1786     1.0  0.73490  0.64610  0.93925  1.0000
  C   C1787     1.0  0.58283  0.95905  0.71550  1.0000
  C   C1788     1.0  0.60566  0.95532  0.72473  1.0000
  C   C1789     1.0  0.68854  0.53007  0.63791  1.0000
  H   H1425     1.0  0.68175  0.94859  0.63215  1.0000
  H   H1426     1.0  0.73555  0.81433  0.57411  1.0000
  C   C1790     1.0  0.70837  0.84880  0.63663  1.0000
  C   C1791     1.0  0.65507  0.93437  0.74968  1.0000
  C   C1792     1.0  0.73642  0.89196  0.56036  1.0000
  H   H1427     1.0  0.66133  0.96190  0.55431  1.0000
  H   H1428     1.0  0.72386  0.72846  0.82461  1.0000
  C   C1793     1.0  0.68472  0.89498  0.74224  1.0000
  C   C1794     1.0  0.67766  0.92631  0.74187  1.0000
  C   C1795     1.0  0.57958  0.83939  0.61285  1.0000
  H   H1429     1.0  0.68144  0.86570  0.55920  1.0000
  S   S240      1.0  0.66594  0.88918  0.49770  1.0000
  S   S241      1.0  0.74085  0.69134  0.78319  1.0000
  H   H1430     1.0  0.51429  0.90390  0.66380  1.0000
  H   H1431     1.0  0.52008  0.56440  0.59049  1.0000
  H   H1432     1.0  0.71994  0.86754  0.64277  1.0000
  H   H1433     1.0  0.67879  0.51643  0.74236  1.0000
  H   H1434     1.0  0.60034  0.85663  0.58418  1.0000
  C   C1796     1.0  0.67449  0.83141  0.61339  1.0000
  C   C1797     1.0  0.74748  0.90318  0.58112  1.0000
  C   C1798     1.0  0.73545  0.96385  0.76033  1.0000
  C   C1799     1.0  0.69321  0.71826  0.84567  1.0000
  H   H1435     1.0  0.74593  0.51950  0.62237  1.0000
  C   C1800     1.0  0.67811  0.52828  0.61551  1.0000
  C   C1801     1.0  0.62233  0.83492  0.61087  1.0000
  C   C1802     1.0  0.69209  0.52332  0.59579  1.0000
  C   C1803     1.0  0.71651  0.52032  0.59845  1.0000
  H   H1436     1.0  0.70224  0.88894  0.73636  1.0000
  H   H1437     1.0  0.73184  0.90808  0.54628  1.0000
  H   H1438     1.0  0.69019  0.94403  0.73605  1.0000
  H   H1439     1.0  0.51709  0.96018  0.67389  1.0000
  S   S242      1.0  0.75028  0.90955  0.73952  1.0000
  H   H1440     1.0  0.68939  0.77651  0.53466  1.0000
  H   H1441     1.0  0.63178  0.53609  0.70568  1.0000
  C   C1804     1.0  0.65281  0.87871  0.58197  1.0000
  C   C1805     1.0  0.73869  0.83925  0.57602  1.0000
  C   C1806     1.0  0.67247  0.78335  0.54162  1.0000
  C   C1807     1.0  0.65158  0.77445  0.53011  1.0000
  C   C1808     1.0  0.56770  0.50978  0.69032  1.0000
  H   H1442     1.0  0.60233  0.57541  0.69275  1.0000
  H   H1443     1.0  0.65918  0.53080  0.61339  1.0000
  H   H1444     1.0  0.56137  0.55863  0.68293  1.0000
  H   H1445     1.0  0.70937  0.57728  0.95655  1.0000
  S   S243      1.0  0.61057  0.83071  0.49065  1.0000
  H   H1446     1.0  0.53112  0.96580  0.61284  1.0000
  C   C1809     1.0  0.70674  0.50814  0.68996  1.0000
  C   C1810     1.0  0.58282  0.96432  0.59390  1.0000
  C   C1811     1.0  0.73002  0.56891  0.67926  1.0000
  C   C1812     1.0  0.64488  0.95973  0.63587  1.0000
  C   C1813     1.0  0.59569  0.98353  0.60952  1.0000
  C   C1814     1.0  0.72054  0.62424  0.67592  1.0000
  C   C1815     1.0  0.53885  0.52333  0.50190  1.0000
  H   H1447     1.0  0.51309  0.61722  0.54994  1.0000
  H   H1448     1.0  0.74956  0.66153  0.94384  1.0000
  C   C1816     1.0  0.74940  0.60691  0.70482  1.0000
  C   C1817     1.0  0.58164  0.97181  0.56990  1.0000
  C   C1818     1.0  0.64858  0.98550  0.78074  1.0000
  C   C1819     1.0  0.71727  0.59329  0.66846  1.0000
  Fe  Fe122     1.0  0.75032  0.57215  0.77505  1.0000
  S   S244      1.0  0.74938  0.57485  0.86321  1.0000
  H   H1449     1.0  0.54470  0.51944  0.60200  1.0000
  H   H1450     1.0  0.69134  0.99420  0.82305  1.0000
  H   H1451     1.0  0.75105  0.92802  0.58288  1.0000
  C   C1820     1.0  0.68394  0.50583  0.72595  1.0000
  H   H1452     1.0  0.68638  0.97879  0.78151  1.0000
  H   H1453     1.0  0.55279  0.98964  0.71258  1.0000
  C   C1821     1.0  0.73466  0.99658  0.76360  1.0000
  H   H1454     1.0  0.74583  0.68201  0.83882  1.0000
  C   C1822     1.0  0.57055  0.98670  0.71950  1.0000
  C   C1823     1.0  0.72700  0.52208  0.62083  1.0000
  C   C1824     1.0  0.74600  0.57593  0.69761  1.0000
  C   C1825     1.0  0.74956  0.85050  0.59682  1.0000
  H   H1455     1.0  0.59216  0.96960  0.49188  1.0000
  H   H1456     1.0  0.50650  0.70860  0.61515  1.0000
  C   C1826     1.0  0.55210  0.51003  0.52023  1.0000
  H   H1457     1.0  0.60090  0.50004  0.64669  1.0000
  H   H1458     1.0  0.51017  0.99754  0.54414  1.0000
  C   C1827     1.0  0.50826  0.60502  0.49100  1.0000
  C   C1828     1.0  0.52080  0.50599  0.49100  1.0000
  Fe  Fe123     1.0  0.97215  0.10301  0.23533  1.0000
  S   S245      1.0  0.97674  0.08053  0.19992  1.0000
  S   S246      1.0  0.93770  0.13156  0.23424  1.0000
  C   C1829     1.0  0.77019  0.08716  0.26484  1.0000
  C   C1830     1.0  0.95528  0.36685  0.28464  1.0000
  C   C1831     1.0  0.94782  0.22252  0.26666  1.0000
  C   C1832     1.0  0.92728  0.09302  0.16162  1.0000
  S   S247      1.0  0.98438  0.05930  0.25460  1.0000
  H   H1459     1.0  0.99275  0.41299  0.20279  1.0000
  C   C1833     1.0  0.93577  0.14787  0.03967  1.0000
  H   H1460     1.0  0.82692  0.29928  0.36683  1.0000
  H   H1461     1.0  0.82978  0.11779  0.15715  1.0000
  S   S248      1.0  0.96778  0.31463  0.11900  1.0000
  C   C1834     1.0  0.97535  0.14047  0.12033  1.0000
  Fe  Fe124     1.0  0.98079  0.29344  0.08554  1.0000
  S   S249      1.0  0.95964  0.27235  0.05515  1.0000
  H   H1462     1.0  0.79510  0.22919  0.20384  1.0000
  C   C1835     1.0  0.79750  0.06873  0.19097  1.0000
  H   H1463     1.0  0.77522  0.49291  0.12148  1.0000
  H   H1464     1.0  0.97778  0.20734  0.19469  1.0000
  C   C1836     1.0  0.77817  0.35918  0.34959  1.0000
  H   H1465     1.0  0.88504  0.32079  0.26350  1.0000
  Fe  Fe125     1.0  0.85237  0.15643  0.02998  1.0000
  S   S250      1.0  0.86348  0.10782  0.03957  1.0000
  S   S251      1.0  0.86318  0.19381  0.05681  1.0000
  Fe  Fe126     1.0  0.82562  0.09310  0.03371  1.0000
  S   S252      1.0  0.81345  0.05903  0.06315  1.0000
  S   S253      1.0  0.81402  0.14242  0.02536  1.0000
  Fe  Fe127     1.0  0.82830  0.21055  0.30149  1.0000
  S   S254      1.0  0.81297  0.22682  0.26680  1.0000
  S   S255      1.0  0.86435  0.18776  0.30754  1.0000
  Fe  Fe128     1.0  0.78505  0.23447  0.33000  1.0000
  Fe  Fe129     1.0  0.77910  0.20584  0.28066  1.0000
  C   C1837     1.0  0.85543  0.14778  0.13947  1.0000
  Fe  Fe130     1.0  0.80192  0.27005  0.28601  1.0000
  S   S256      1.0  0.80640  0.32122  0.27554  1.0000
  S   S257      1.0  0.79470  0.18748  0.31455  1.0000
  S   S258      1.0  0.82006  0.25574  0.31974  1.0000
  C   C1838     1.0  0.77053  0.12008  0.26703  1.0000
  C   C1839     1.0  0.89929  0.27622  0.25286  1.0000
  S   S259      1.0  0.83248  0.08141  0.99551  1.0000
  C   C1840     1.0  0.93352  0.14197  0.11112  1.0000
  C   C1841     1.0  0.79067  0.33920  0.25217  1.0000
  C   C1842     1.0  0.83894  0.09940  0.12355  1.0000
  S   S260      1.0  0.90259  0.07465  0.99078  1.0000
  C   C1843     1.0  0.85463  0.11278  0.21691  1.0000
  H   H1466     1.0  0.94143  0.17889  0.18716  1.0000
  C   C1844     1.0  0.92978  0.44684  0.18212  1.0000
  H   H1467     1.0  0.90111  0.15807  0.18777  1.0000
  H   H1468     1.0  0.80585  0.01761  0.10254  1.0000
  C   C1845     1.0  0.86787  0.15254  0.11849  1.0000
  H   H1469     1.0  0.95551  0.08966  0.06872  1.0000
  C   C1846     1.0  0.80610  0.23158  0.13204  1.0000
  H   H1470     1.0  0.82733  0.07909  0.12508  1.0000
  H   H1471     1.0  0.85315  0.23963  0.18170  1.0000
  C   C1847     1.0  0.78869  0.05388  0.08218  1.0000
  C   C1848     1.0  0.78996  0.03123  0.10038  1.0000
  C   C1849     1.0  0.77072  0.02552  0.11555  1.0000
  C   C1850     1.0  0.83044  0.15649  0.22795  1.0000
  C   C1851     1.0  0.95064  0.16052  0.00089  1.0000
  H   H1472     1.0  0.93391  0.21340  0.27787  1.0000
  C   C1852     1.0  0.88708  0.19232  0.16292  1.0000
  C   C1853     1.0  0.93342  0.24933  0.05664  1.0000
  C   C1854     1.0  0.92625  0.23216  0.03676  1.0000
  C   C1855     1.0  0.90497  0.21475  0.03668  1.0000
  C   C1856     1.0  0.89047  0.21462  0.05641  1.0000
  C   C1857     1.0  0.89752  0.23201  0.07627  1.0000
  C   C1858     1.0  0.91908  0.24892  0.07654  1.0000
  H   H1473     1.0  0.93718  0.23241  0.02127  1.0000
  H   H1474     1.0  0.89959  0.20185  0.02119  1.0000
  H   H1475     1.0  0.88626  0.23232  0.09149  1.0000
  H   H1476     1.0  0.92433  0.26227  0.09185  1.0000
  C   C1859     1.0  0.91746  0.14625  0.25522  1.0000
  C   C1860     1.0  0.89723  0.16207  0.24699  1.0000
  C   C1861     1.0  0.88080  0.17461  0.26274  1.0000
  C   C1862     1.0  0.88442  0.17179  0.28701  1.0000
  C   C1863     1.0  0.90472  0.15622  0.29531  1.0000
  C   C1864     1.0  0.92108  0.14335  0.27955  1.0000
  H   H1477     1.0  0.89421  0.16465  0.22831  1.0000
  H   H1478     1.0  0.86536  0.18662  0.25618  1.0000
  H   H1479     1.0  0.90776  0.15394  0.31408  1.0000
  H   H1480     1.0  0.93652  0.13134  0.28625  1.0000
  C   C1865     1.0  0.93911  0.07719  0.07211  1.0000
  H   H1481     1.0  0.82695  0.28413  0.17210  1.0000
  H   H1482     1.0  0.79587  0.13896  0.12665  1.0000
  H   H1483     1.0  0.87972  0.03350  0.08307  1.0000
  C   C1866     1.0  0.93241  0.06994  0.09528  1.0000
  H   H1484     1.0  0.77358  0.08920  0.13812  1.0000
  H   H1485     1.0  0.93876  0.45197  0.19864  1.0000
  P   P64       1.0  0.85728  0.17665  0.16248  1.0000
  H   H1486     1.0  0.96297  0.37883  0.29968  1.0000
  H   H1487     1.0  0.99734  0.25277  0.22531  1.0000
  H   H1488     1.0  0.99260  0.38339  0.16529  1.0000
  C   C1867     1.0  0.79495  0.32169  0.37745  1.0000
  C   C1868     1.0  0.85982  0.12785  0.19559  1.0000
  C   C1869     1.0  0.81359  0.31637  0.36217  1.0000
  C   C1870     1.0  0.92999  0.36074  0.08629  1.0000
  C   C1871     1.0  0.91662  0.33672  0.07596  1.0000
  C   C1872     1.0  0.89723  0.32390  0.08780  1.0000
  C   C1873     1.0  0.89129  0.33495  0.11006  1.0000
  C   C1874     1.0  0.90435  0.35953  0.12039  1.0000
  C   C1875     1.0  0.92409  0.37185  0.10853  1.0000
  P   P65       1.0  0.89878  0.37062  0.15041  1.0000
  C   C1876     1.0  0.90994  0.40968  0.15622  1.0000
  C   C1877     1.0  0.86773  0.37141  0.15731  1.0000
  C   C1878     1.0  0.85061  0.37527  0.13948  1.0000
  C   C1879     1.0  0.82664  0.37655  0.14517  1.0000
  C   C1880     1.0  0.81967  0.37465  0.16866  1.0000
  C   C1881     1.0  0.83662  0.37132  0.18654  1.0000
  C   C1882     1.0  0.86059  0.36987  0.18092  1.0000
  C   C1883     1.0  0.92057  0.41680  0.17799  1.0000
  Fe  Fe131     1.0  0.86936  0.10057  0.00112  1.0000
  C   C1884     1.0  0.77882  0.09151  0.15640  1.0000
  C   C1885     1.0  0.91679  0.46355  0.14331  1.0000
  C   C1886     1.0  0.90757  0.43350  0.13912  1.0000
  C   C1887     1.0  0.91394  0.34126  0.16768  1.0000
  C   C1888     1.0  0.93852  0.34344  0.17084  1.0000
  C   C1889     1.0  0.95077  0.31919  0.18210  1.0000
  C   C1890     1.0  0.93869  0.29228  0.18975  1.0000
  C   C1891     1.0  0.91425  0.28987  0.18661  1.0000
  C   C1892     1.0  0.90189  0.31418  0.17550  1.0000
  H   H1489     1.0  0.94552  0.36998  0.07748  1.0000
  H   H1490     1.0  0.92172  0.32740  0.05906  1.0000
  H   H1491     1.0  0.88725  0.30479  0.07990  1.0000
  H   H1492     1.0  0.87685  0.32379  0.11939  1.0000
  H   H1493     1.0  0.93554  0.38924  0.11667  1.0000
  H   H1494     1.0  0.85570  0.37770  0.12124  1.0000
  H   H1495     1.0  0.81343  0.37954  0.13140  1.0000
  H   H1496     1.0  0.80112  0.37627  0.17305  1.0000
  H   H1497     1.0  0.83111  0.37035  0.20477  1.0000
  H   H1498     1.0  0.87356  0.36786  0.19501  1.0000
  H   H1499     1.0  0.92207  0.39914  0.19168  1.0000
  H   H1500     1.0  0.91427  0.04601  0.20866  1.0000
  H   H1501     1.0  0.99354  0.18516  0.11959  1.0000
  P   P66       1.0  0.99656  0.18165  0.99208  1.0000
  H   H1502     1.0  0.89905  0.42866  0.12237  1.0000
  H   H1503     1.0  0.94837  0.36334  0.16386  1.0000
  H   H1504     1.0  0.96982  0.32072  0.18406  1.0000
  H   H1505     1.0  0.94841  0.27296  0.19757  1.0000
  H   H1506     1.0  0.90507  0.26869  0.19213  1.0000
  H   H1507     1.0  0.88311  0.31130  0.17235  1.0000
  C   C1893     1.0  0.93241  0.14958  0.01530  1.0000
  Fe  Fe132     1.0  0.99760  0.28845  0.13630  1.0000
  H   H1508     1.0  0.94425  0.37815  0.22626  1.0000
  C   C1894     1.0  0.91839  0.08386  0.18357  1.0000
  H   H1509     1.0  0.92073  0.24965  0.13687  1.0000
  S   S261      1.0  0.98803  0.40443  0.11633  1.0000
  C   C1895     1.0  0.98811  0.47439  0.16453  1.0000
  C   C1896     1.0  0.79048  0.09434  0.20419  1.0000
  H   H1510     1.0  0.95146  0.22480  0.16156  1.0000
  C   C1897     1.0  0.93094  0.03065  0.17696  1.0000
  C   C1898     1.0  0.89281  0.25352  0.33126  1.0000
  C   C1899     1.0  0.98907  0.42460  0.14344  1.0000
  H   H1511     1.0  0.77194  0.00771  0.12919  1.0000
  H   H1512     1.0  0.82857  0.32740  0.32834  1.0000
  H   H1513     1.0  0.79381  0.30856  0.39385  1.0000
  C   C1900     1.0  0.81795  0.46301  0.13911  1.0000
  C   C1901     1.0  0.83614  0.17201  0.20691  1.0000
  C   C1902     1.0  0.92807  0.47013  0.16473  1.0000
  C   C1903     1.0  0.90353  0.05218  0.05709  1.0000
  C   C1904     1.0  0.91082  0.05427  0.09919  1.0000
  S   S262      1.0  0.76670  0.25074  0.29701  1.0000
  C   C1905     1.0  0.87284  0.24430  0.22888  1.0000
  H   H1514     1.0  0.80255  0.14343  0.08393  1.0000
  C   C1906     1.0  0.83749  0.20865  0.15588  1.0000
  H   H1515     1.0  0.96044  0.15438  0.06833  1.0000
  H   H1516     1.0  0.90493  0.04890  0.11684  1.0000
  C   C1907     1.0  0.95763  0.15620  0.04955  1.0000
  H   H1517     1.0  0.76970  0.15832  0.05709  1.0000
  C   C1908     1.0  0.93906  0.26373  0.31611  1.0000
  C   C1909     1.0  0.76675  0.15673  0.07591  1.0000
  H   H1518     1.0  0.96455  0.17752  0.26413  1.0000
  C   C1910     1.0  0.97600  0.16676  0.03518  1.0000
  S   S263      1.0  0.77169  0.24175  0.36776  1.0000
  H   H1519     1.0  0.81891  0.16732  0.24054  1.0000
  H   H1520     1.0  0.79802  0.42170  0.33929  1.0000
  H   H1521     1.0  0.79732  0.36407  0.31684  1.0000
  S   S264      1.0  0.99261  0.26265  0.17045  1.0000
  C   C1911     1.0  0.85210  0.10381  0.10314  1.0000
  C   C1912     1.0  0.93486  0.25335  0.33914  1.0000
  C   C1913     1.0  0.89645  0.04546  0.08010  1.0000
  H   H1522     1.0  0.94847  0.02228  0.14440  1.0000
  H   H1523     1.0  0.87604  0.13446  0.08442  1.0000
  H   H1524     1.0  0.93324  0.00683  0.18335  1.0000
  C   C1914     1.0  0.93539  0.33614  0.24587  1.0000
  H   H1525     1.0  0.76498  0.26954  0.19565  1.0000
  C   C1915     1.0  0.78528  0.14837  0.09105  1.0000
  H   H1526     1.0  0.86574  0.46720  0.10339  1.0000
  C   C1916     1.0  0.83992  0.12708  0.23308  1.0000
  H   H1527     1.0  0.86918  0.22238  0.22003  1.0000
  H   H1528     1.0  0.80295  0.44794  0.14314  1.0000
  C   C1917     1.0  0.77484  0.33926  0.21224  1.0000
  C   C1918     1.0  0.76521  0.41398  0.32012  1.0000
  H   H1529     1.0  0.76269  0.34575  0.38310  1.0000
  C   C1919     1.0  0.94633  0.33628  0.28721  1.0000
  H   H1530     1.0  0.83866  0.26408  0.22122  1.0000
  C   C1920     1.0  0.78364  0.37050  0.25441  1.0000
  H   H1531     1.0  0.91564  0.14238  0.00758  1.0000
  C   C1921     1.0  0.83407  0.45431  0.12196  1.0000
  H   H1532     1.0  0.78321  0.07330  0.27421  1.0000
  C   C1922     1.0  0.92479  0.06814  0.05311  1.0000
  H   H1533     1.0  0.85090  0.08682  0.08911  1.0000
  H   H1534     1.0  0.81945  0.18544  0.12699  1.0000
  H   H1535     1.0  0.96747  0.28936  0.23931  1.0000
  C   C1923     1.0  0.90478  0.17831  0.17682  1.0000
  C   C1924     1.0  0.97955  0.06327  0.11857  1.0000
  C   C1925     1.0  0.81451  0.33218  0.34054  1.0000
  C   C1926     1.0  0.78152  0.46193  0.29001  1.0000
  H   H1536     1.0  0.79687  0.27910  0.14022  1.0000
  C   C1927     1.0  0.98366  0.24448  0.23713  1.0000
  C   C1928     1.0  0.82065  0.49172  0.15058  1.0000
  C   C1929     1.0  0.77724  0.34289  0.37120  1.0000
  C   C1930     1.0  0.97677  0.17306  0.11731  1.0000
  C   C1931     1.0  0.95667  0.19006  0.11111  1.0000
  C   C1932     1.0  0.93504  0.17450  0.10813  1.0000
  C   C1933     1.0  0.92011  0.26930  0.30050  1.0000
  H   H1537     1.0  0.95793  0.21526  0.10846  1.0000
  H   H1538     1.0  0.91951  0.18758  0.10315  1.0000
  C   C1934     1.0  0.93818  0.07094  0.14722  1.0000
  C   C1935     1.0  0.98300  0.21299  0.24416  1.0000
  H   H1539     1.0  0.86214  0.09006  0.22100  1.0000
  H   H1540     1.0  0.83147  0.43264  0.11247  1.0000
  C   C1936     1.0  0.92024  0.05274  0.19124  1.0000
  C   C1937     1.0  0.86638  0.13049  0.10055  1.0000
  C   C1938     1.0  0.75964  0.44755  0.28575  1.0000
  H   H1541     1.0  0.98563  0.46990  0.12675  1.0000
  C   C1939     1.0  0.97245  0.16976  0.01079  1.0000
  C   C1940     1.0  0.95366  0.12461  0.11714  1.0000
  H   H1542     1.0  0.99111  0.15256  0.19352  1.0000
  C   C1941     1.0  0.78633  0.32362  0.23098  1.0000
  C   C1942     1.0  0.84047  0.12137  0.14166  1.0000
  C   C1943     1.0  0.85576  0.26770  0.22953  1.0000
  C   C1944     1.0  0.93979  0.03963  0.15500  1.0000
  H   H1543     1.0  0.87853  0.17340  0.11570  1.0000
  H   H1544     1.0  0.90715  0.22966  0.24029  1.0000
  H   H1545     1.0  0.87993  0.22887  0.13699  1.0000
  H   H1546     1.0  0.78732  0.38287  0.27062  1.0000
  C   C1945     1.0  0.79676  0.35320  0.33414  1.0000
  C   C1946     1.0  0.98751  0.45749  0.14333  1.0000
  H   H1547     1.0  0.91667  0.13026  0.10846  1.0000
  H   H1548     1.0  0.92633  0.11743  0.15644  1.0000
  H   H1549     1.0  0.82906  0.19501  0.20367  1.0000
  C   C1947     1.0  0.79154  0.06723  0.16710  1.0000
  H   H1550     1.0  0.91119  0.10114  0.19525  1.0000
  C   C1948     1.0  0.89449  0.24848  0.24052  1.0000
  C   C1949     1.0  0.98984  0.45842  0.18607  1.0000
  H   H1551     1.0  0.97241  0.03650  0.08686  1.0000
  H   H1552     1.0  0.87099  0.11617  0.18313  1.0000
  C   C1950     1.0  0.78722  0.42856  0.32428  1.0000
  P   P67       1.0  0.95118  0.08232  0.11947  1.0000
  C   C1951     1.0  0.99144  0.42552  0.18619  1.0000
  H   H1553     1.0  0.92777  0.32457  0.23068  1.0000
  C   C1952     1.0  0.77191  0.38600  0.23579  1.0000
  C   C1953     1.0  0.86042  0.29543  0.24170  1.0000
  C   C1954     1.0  0.88206  0.29967  0.25339  1.0000
  C   C1955     1.0  0.91612  0.22989  0.14815  1.0000
  H   H1554     1.0  0.84694  0.31322  0.24281  1.0000
  C   C1956     1.0  0.96648  0.26513  0.24498  1.0000
  C   C1957     1.0  0.78037  0.22388  0.19220  1.0000
  C   C1958     1.0  0.82510  0.26228  0.16261  1.0000
  C   C1959     1.0  0.89691  0.26398  0.30825  1.0000
  Fe  Fe133     1.0  0.99539  0.35226  0.11309  1.0000
  S   S265      1.0  0.76156  0.48292  0.19141  1.0000
  H   H1555     1.0  0.81233  0.46357  0.31249  1.0000
  H   H1556     1.0  0.93005  0.07364  0.03521  1.0000
  C   C1960     1.0  0.85332  0.47387  0.11677  1.0000
  H   H1557     1.0  0.79204  0.29968  0.22899  1.0000
  H   H1558     1.0  0.92141  0.13998  0.05080  1.0000
  C   C1961     1.0  0.93353  0.21588  0.16215  1.0000
  C   C1962     1.0  0.89300  0.21814  0.14845  1.0000
  H   H1559     1.0  0.93579  0.49313  0.16782  1.0000
  C   C1963     1.0  0.75861  0.18682  0.16774  1.0000
  H   H1560     1.0  0.79445  0.09498  0.22284  1.0000
  H   H1561     1.0  0.83599  0.11551  0.24970  1.0000
  C   C1964     1.0  0.77832  0.19431  0.18183  1.0000
  H   H1562     1.0  0.80689  0.04962  0.19942  1.0000
  C   C1965     1.0  0.85073  0.15772  0.19042  1.0000
  H   H1563     1.0  0.88189  0.26684  0.29654  1.0000
  C   C1966     1.0  0.92788  0.19010  0.17646  1.0000
  H   H1564     1.0  0.95711  0.26685  0.31034  1.0000
  C   C1967     1.0  0.80820  0.25952  0.14461  1.0000
  H   H1565     1.0  0.96174  0.40547  0.26066  1.0000
  H   H1566     1.0  0.89240  0.04539  0.04226  1.0000
  P   P68       1.0  0.92596  0.28044  0.27030  1.0000
  C   C1968     1.0  0.76788  0.07103  0.07954  1.0000
  C   C1969     1.0  0.94835  0.25427  0.25979  1.0000
  C   C1970     1.0  0.83975  0.23698  0.16816  1.0000
  C   C1971     1.0  0.82080  0.20635  0.13752  1.0000
  C   C1972     1.0  0.99126  0.40867  0.16498  1.0000
  H   H1567     1.0  0.78379  0.13137  0.27799  1.0000
  H   H1568     1.0  0.79330  0.22955  0.11777  1.0000
  C   C1973     1.0  0.76749  0.37042  0.21463  1.0000
  H   H1569     1.0  0.91562  0.48155  0.12977  1.0000
  H   H1570     1.0  0.87491  0.24844  0.33686  1.0000
  Fe  Fe134     1.0  0.99098  0.03841  0.21891  1.0000
  C   C1974     1.0  0.77750  0.11847  0.19362  1.0000
  H   H1571     1.0  0.99131  0.12808  0.12490  1.0000
  C   C1975     1.0  0.78140  0.14562  0.11524  1.0000
  C   C1976     1.0  0.00315  0.22420  0.16958  1.0000
  C   C1977     1.0  0.75891  0.15071  0.12449  1.0000
  H   H1572     1.0  0.77159  0.32727  0.19583  1.0000
  C   C1978     1.0  0.79535  0.45237  0.30922  1.0000
  C   C1979     1.0  0.98497  0.04200  0.10071  1.0000
  C   C1980     1.0  0.99237  0.20124  0.18361  1.0000
  H   H1573     1.0  0.76269  0.25762  0.41596  1.0000
  C   C1981     1.0  0.94458  0.36655  0.24331  1.0000
  C   C1982     1.0  0.93646  0.32057  0.26777  1.0000
  H   H1574     1.0  0.90844  0.23942  0.36433  1.0000
  C   C1983     1.0  0.96514  0.20206  0.25893  1.0000
  H   H1575     1.0  0.79620  0.04684  0.15698  1.0000
  H   H1576     1.0  0.76657  0.41012  0.23770  1.0000
  C   C1984     1.0  0.91174  0.24818  0.34669  1.0000
  C   C1985     1.0  0.95453  0.38191  0.26268  1.0000
  C   C1986     1.0  0.77224  0.11782  0.16941  1.0000
  H   H1577     1.0  0.94954  0.24870  0.35100  1.0000
  H   H1578     1.0  0.94726  0.32511  0.30435  1.0000
  H   H1579     1.0  0.79202  0.17735  0.18493  1.0000
  H   H1580     1.0  0.99189  0.00475  0.16460  1.0000
  H   H1581     1.0  0.78767  0.48059  0.27840  1.0000
  H   H1582     1.0  0.76644  0.08824  0.06551  1.0000
  H   H1583     1.0  0.99188  0.08370  0.15120  1.0000
  H   H1584     1.0  0.76015  0.44823  0.36023  1.0000
  H   H1585     1.0  0.99609  0.19685  0.23789  1.0000
  H   H1586     1.0  0.77108  0.13709  0.20458  1.0000
  S   S266      1.0  0.98842  0.47821  0.21327  1.0000
  H   H1587     1.0  0.98809  0.22879  0.02879  1.0000
  H   H1588     1.0  0.99295  0.17254  0.04312  1.0000
  C   C1987     1.0  0.00003  0.17022  0.18305  1.0000
  C   C1988     1.0  0.99592  0.06810  0.13692  1.0000
  C   C1989     1.0  0.76337  0.24666  0.18761  1.0000
  S   S267      1.0  0.86080  0.15036  0.99167  1.0000
  H   H1589     1.0  0.75602  0.32489  0.31451  1.0000
  S   S268      1.0  0.75463  0.03099  0.24652  1.0000
  H   H1590     1.0  0.90432  0.49567  0.20765  1.0000
  H   H1591     1.0  0.98478  0.23689  0.76546  1.0000
  C   C1990     1.0  0.77322  0.13392  0.73563  1.0000
  S   S269      1.0  0.80357  0.15076  0.95457  1.0000
  H   H1592     1.0  0.78242  0.17645  0.91241  1.0000
  C   C1991     1.0  0.76440  0.20947  0.67991  1.0000
  C   C1992     1.0  0.85969  0.03896  0.94668  1.0000
  H   H1593     1.0  0.90309  0.13048  0.96042  1.0000
  S   S270      1.0  0.96169  0.31679  0.72635  1.0000
  S   S271      1.0  0.97118  0.11988  0.90861  1.0000
  Fe  Fe135     1.0  0.82775  0.35654  0.68498  1.0000
  S   S272      1.0  0.80931  0.35058  0.71950  1.0000
  S   S273      1.0  0.86522  0.37734  0.68768  1.0000
  Fe  Fe136     1.0  0.78314  0.33634  0.65636  1.0000
  H   H1594     1.0  0.82647  0.14586  0.76261  1.0000
  H   H1595     1.0  0.94583  0.16724  0.66988  1.0000
  Fe  Fe137     1.0  0.77847  0.37404  0.70190  1.0000
  H   H1596     1.0  0.98434  0.12293  0.96950  1.0000
  Fe  Fe138     1.0  0.79494  0.30584  0.70437  1.0000
  S   S274      1.0  0.79706  0.26029  0.72515  1.0000
  S   S275      1.0  0.79741  0.38338  0.66789  1.0000
  S   S276      1.0  0.81503  0.31014  0.67053  1.0000
  H   H1597     1.0  0.79439  0.20802  0.75648  1.0000
  C   C1993     1.0  0.77678  0.11005  0.65548  1.0000
  C   C1994     1.0  0.77324  0.24486  0.74149  1.0000
  C   C1995     1.0  0.77702  0.21817  0.75557  1.0000
  C   C1996     1.0  0.78275  0.45393  0.73164  1.0000
  H   H1598     1.0  0.75944  0.15323  0.87914  1.0000
  H   H1599     1.0  0.87687  0.22219  0.68254  1.0000
  H   H1600     1.0  0.82416  0.32497  0.77444  1.0000
  H   H1601     1.0  0.77984  0.03123  0.64674  1.0000
  H   H1602     1.0  0.86882  0.08276  0.84043  1.0000
  C   C1997     1.0  0.90462  0.07453  0.83083  1.0000
  H   H1603     1.0  0.00293  0.18800  0.78073  1.0000
  H   H1604     1.0  0.86676  0.19211  0.94954  1.0000
  C   C1998     1.0  0.79085  0.13277  0.75304  1.0000
  C   C1999     1.0  0.93473  0.33441  0.71667  1.0000
  C   C2000     1.0  0.91703  0.31518  0.70663  1.0000
  C   C2001     1.0  0.89538  0.32765  0.69854  1.0000
  C   C2002     1.0  0.89141  0.35995  0.69956  1.0000
  C   C2003     1.0  0.90925  0.37932  0.70932  1.0000
  C   C2004     1.0  0.93061  0.36664  0.71816  1.0000
  H   H1605     1.0  0.92033  0.29050  0.70468  1.0000
  H   H1606     1.0  0.88208  0.31241  0.69080  1.0000
  H   H1607     1.0  0.90652  0.40436  0.71009  1.0000
  H   H1608     1.0  0.94404  0.38189  0.72565  1.0000
  H   H1609     1.0  0.75569  0.28711  0.78926  1.0000
  C   C2005     1.0  0.98393  0.19821  0.92187  1.0000
  C   C2006     1.0  0.78723  0.13269  0.93106  1.0000
  H   H1610     1.0  0.78309  0.13158  0.83966  1.0000
  H   H1611     1.0  0.84193  0.24705  0.70026  1.0000
  C   C2007     1.0  0.80738  0.09762  0.85360  1.0000
  H   H1612     1.0  0.99156  0.25441  0.72481  1.0000
  H   H1613     1.0  0.89696  0.03065  0.94422  1.0000
  S   S277      1.0  0.76264  0.32846  0.68958  1.0000
  H   H1614     1.0  0.94201  0.06873  0.82579  1.0000
  C   C2008     1.0  0.76664  0.30743  0.78564  1.0000
  C   C2009     1.0  0.76581  0.13836  0.89330  1.0000
  C   C2010     1.0  0.92174  0.08788  0.96819  1.0000
  C   C2011     1.0  0.94112  0.06937  0.96213  1.0000
  C   C2012     1.0  0.95649  0.07881  0.94398  1.0000
  C   C2013     1.0  0.95284  0.10715  0.93199  1.0000
  C   C2014     1.0  0.93354  0.12573  0.93814  1.0000
  C   C2015     1.0  0.91798  0.11609  0.95604  1.0000
  H   H1615     1.0  0.94407  0.04742  0.97134  1.0000
  H   H1616     1.0  0.97099  0.06402  0.93910  1.0000
  H   H1617     1.0  0.93057  0.14770  0.92897  1.0000
  H   H1618     1.0  0.96000  0.23119  0.90590  1.0000
  C   C2016     1.0  0.83609  0.14901  0.86547  1.0000
  H   H1619     1.0  0.75602  0.40625  0.56469  1.0000
  H   H1620     1.0  0.80400  0.17320  0.69312  1.0000
  H   H1621     1.0  0.79313  0.08180  0.62906  1.0000
  H   H1622     1.0  0.78817  0.08572  0.94505  1.0000
  H   H1623     1.0  0.99158  0.33815  0.68534  1.0000
  C   C2017     1.0  0.80553  0.32856  0.77733  1.0000
  H   H1624     1.0  0.91850  0.24515  0.74356  1.0000
  C   C2018     1.0  0.75861  0.48033  0.67709  1.0000
  H   H1625     1.0  0.99797  0.25446  0.64291  1.0000
  C   C2019     1.0  0.80006  0.48430  0.66724  1.0000
  H   H1626     1.0  0.85959  0.30268  0.81453  1.0000
  H   H1627     1.0  0.85573  0.14226  0.93087  1.0000
  C   C2020     1.0  0.79605  0.35856  0.77509  1.0000
  H   H1628     1.0  0.76597  0.06230  0.91139  1.0000
  H   H1629     1.0  0.84496  0.27059  0.73956  1.0000
  H   H1630     1.0  0.85725  0.02261  0.96119  1.0000
  H   H1631     1.0  0.76956  0.21204  0.69819  1.0000
  C   C2021     1.0  0.79075  0.30296  0.78217  1.0000
  H   H1632     1.0  0.82615  0.28320  0.83808  1.0000
  C   C2022     1.0  0.81455  0.15366  0.85374  1.0000
  C   C2023     1.0  0.76954  0.08727  0.91150  1.0000
  H   H1633     1.0  0.98192  0.18011  0.69258  1.0000
  C   C2024     1.0  0.88709  0.08529  0.84584  1.0000
  C   C2025     1.0  0.81289  0.14678  0.74906  1.0000
  H   H1634     1.0  0.80736  0.37828  0.77041  1.0000
  S   S278      1.0  0.99131  0.35431  0.78313  1.0000
  C   C2026     1.0  0.99237  0.21876  0.66975  1.0000
  H   H1635     1.0  0.80657  0.23255  0.82840  1.0000
  C   C2027     1.0  0.76115  0.10604  0.89270  1.0000
  H   H1636     1.0  0.79682  0.43912  0.72566  1.0000
  C   C2028     1.0  0.90227  0.19719  0.90171  1.0000
  C   C2029     1.0  0.89201  0.20536  0.92302  1.0000
  C   C2030     1.0  0.87518  0.18551  0.93330  1.0000
  C   C2031     1.0  0.86899  0.15713  0.92264  1.0000
  C   C2032     1.0  0.87969  0.14833  0.90155  1.0000
  C   C2033     1.0  0.89590  0.16901  0.89082  1.0000
  P   P69       1.0  0.87074  0.11229  0.88737  1.0000
  C   C2034     1.0  0.86640  0.08302  0.91021  1.0000
  C   C2035     1.0  0.84335  0.11854  0.87147  1.0000
  C   C2036     1.0  0.82888  0.09285  0.86533  1.0000
  C   C2037     1.0  0.88545  0.06535  0.91890  1.0000
  H   H1637     1.0  0.89973  0.06391  0.81420  1.0000
  C   C2038     1.0  0.76488  0.23590  0.66516  1.0000
  C   C2039     1.0  0.84066  0.05645  0.93818  1.0000
  C   C2040     1.0  0.84403  0.07868  0.92027  1.0000
  C   C2041     1.0  0.89326  0.09888  0.86753  1.0000
  C   C2042     1.0  0.91724  0.10145  0.87385  1.0000
  C   C2043     1.0  0.93471  0.09070  0.85883  1.0000
  C   C2044     1.0  0.92842  0.07721  0.83733  1.0000
  H   H1638     1.0  0.91516  0.21269  0.89362  1.0000
  H   H1639     1.0  0.89690  0.22716  0.93151  1.0000
  H   H1640     1.0  0.90371  0.16341  0.87411  1.0000
  H   H1641     1.0  0.83396  0.06916  0.87002  1.0000
  H   H1642     1.0  0.78746  0.12053  0.76948  1.0000
  H   H1643     1.0  0.90310  0.06893  0.91231  1.0000
  H   H1644     1.0  0.94610  0.25145  0.94419  1.0000
  H   H1645     1.0  0.80589  0.49326  0.73909  1.0000
  C   C2045     1.0  0.77886  0.15149  0.91226  1.0000
  H   H1646     1.0  0.82922  0.09286  0.91466  1.0000
  H   H1647     1.0  0.92248  0.11163  0.89049  1.0000
  H   H1648     1.0  0.95316  0.09269  0.86402  1.0000
  C   C2046     1.0  0.77763  0.14872  0.71394  1.0000
  H   H1649     1.0  0.75688  0.03090  0.68364  1.0000
  H   H1650     1.0  0.91501  0.22109  0.70455  1.0000
  H   H1651     1.0  0.84673  0.16924  0.87022  1.0000
  C   C2047     1.0  0.00213  0.12082  0.97644  1.0000
  H   H1652     1.0  0.77079  0.25834  0.67200  1.0000
  Fe  Fe139     1.0  0.82331  0.13180  0.98739  1.0000
  C   C2048     1.0  0.75647  0.08127  0.68632  1.0000
  C   C2049     1.0  0.79995  0.16235  0.70992  1.0000
  H   H1653     1.0  0.98594  0.28104  0.68750  1.0000
  H   H1654     1.0  0.78344  0.44317  0.68203  1.0000
  C   C2050     1.0  0.77515  0.05321  0.65483  1.0000
  H   H1655     1.0  0.93543  0.19793  0.63395  1.0000
  H   H1656     1.0  0.80860  0.17718  0.84983  1.0000
  C   C2051     1.0  0.99577  0.22309  0.75414  1.0000
  H   H1657     1.0  0.81740  0.47378  0.66662  1.0000
  C   C2052     1.0  0.95914  0.23309  0.94380  1.0000
  C   C2053     1.0  0.78230  0.10046  0.93060  1.0000
  C   C2054     1.0  0.95718  0.18638  0.66413  1.0000
  H   H1658     1.0  0.83442  0.17276  0.72445  1.0000
  C   C2055     1.0  0.81739  0.16176  0.72755  1.0000
  C   C2056     1.0  0.75769  0.23344  0.64165  1.0000
  C   C2057     1.0  0.88205  0.04341  0.93702  1.0000
  C   C2058     1.0  0.96817  0.22075  0.96492  1.0000
  C   C2059     1.0  0.95135  0.20360  0.64386  1.0000
  H   H1659     1.0  0.82340  0.05337  0.94594  1.0000
  Fe  Fe140     1.0  0.99420  0.33640  0.74624  1.0000
  H   H1660     1.0  0.96203  0.22980  0.98151  1.0000
  C   C2060     1.0  0.78092  0.46691  0.67576  1.0000
  C   C2061     1.0  0.75939  0.44298  0.73094  1.0000
  H   H1661     1.0  0.96162  0.24143  0.62058  1.0000
  H   H1662     1.0  0.79789  0.27950  0.78267  1.0000
  C   C2062     1.0  0.93431  0.23502  0.81500  1.0000
  C   C2063     1.0  0.95485  0.25166  0.80907  1.0000
  C   C2064     1.0  0.95387  0.27564  0.79217  1.0000
  C   C2065     1.0  0.93239  0.28316  0.78129  1.0000
  C   C2066     1.0  0.91156  0.26708  0.78755  1.0000
  C   C2067     1.0  0.91271  0.24261  0.80425  1.0000
  P   P70       1.0  0.88389  0.27731  0.77343  1.0000
  C   C2068     1.0  0.85949  0.26295  0.79100  1.0000
  C   C2069     1.0  0.88214  0.31971  0.77193  1.0000
  C   C2070     1.0  0.89291  0.33801  0.78961  1.0000
  C   C2071     1.0  0.89157  0.37073  0.78875  1.0000
  C   C2072     1.0  0.87919  0.38550  0.77046  1.0000
  C   C2073     1.0  0.86812  0.36755  0.75306  1.0000
  C   C2074     1.0  0.86974  0.33485  0.75362  1.0000
  C   C2075     1.0  0.84858  0.23395  0.78597  1.0000
  C   C2076     1.0  0.82956  0.22309  0.79941  1.0000
  C   C2077     1.0  0.82147  0.24084  0.81816  1.0000
  C   C2078     1.0  0.83245  0.26943  0.82354  1.0000
  C   C2079     1.0  0.85140  0.28046  0.81005  1.0000
  C   C2080     1.0  0.88196  0.25994  0.74453  1.0000
  C   C2081     1.0  0.90157  0.24538  0.73457  1.0000
  C   C2082     1.0  0.89967  0.23159  0.71235  1.0000
  C   C2083     1.0  0.87823  0.23227  0.69993  1.0000
  C   C2084     1.0  0.85860  0.24635  0.70985  1.0000
  C   C2085     1.0  0.86041  0.25994  0.73209  1.0000
  H   H1663     1.0  0.93518  0.21626  0.82798  1.0000
  H   H1664     1.0  0.97157  0.24604  0.81752  1.0000
  H   H1665     1.0  0.96984  0.28841  0.78748  1.0000
  H   H1666     1.0  0.93204  0.30165  0.76802  1.0000
  H   H1667     1.0  0.89702  0.22945  0.80906  1.0000
  H   H1668     1.0  0.90253  0.32708  0.80402  1.0000
  H   H1669     1.0  0.90039  0.38467  0.80213  1.0000
  H   H1670     1.0  0.87842  0.41086  0.76953  1.0000
  H   H1671     1.0  0.85883  0.37907  0.73865  1.0000
  H   H1672     1.0  0.86151  0.32184  0.73948  1.0000
  H   H1673     1.0  0.85462  0.21971  0.77160  1.0000
  H   H1674     1.0  0.82094  0.20099  0.79517  1.0000
  C   C2086     1.0  0.80021  0.12799  0.84785  1.0000
  C   C2087     1.0  0.96611  0.22809  0.63631  1.0000
  H   H1675     1.0  0.79578  0.07787  0.84970  1.0000
  C   C2088     1.0  0.96698  0.22176  0.92228  1.0000
  C   C2089     1.0  0.75696  0.33759  0.78388  1.0000
  C   C2090     1.0  0.77179  0.36295  0.77763  1.0000
  H   H1676     1.0  0.94775  0.16124  0.98202  1.0000
  C   C2091     1.0  0.99302  0.18585  0.94294  1.0000
  C   C2092     1.0  0.75757  0.37014  0.59159  1.0000
  C   C2093     1.0  0.78258  0.08171  0.64486  1.0000
  C   C2094     1.0  0.75721  0.18018  0.67111  1.0000
  H   H1677     1.0  0.78333  0.13181  0.64791  1.0000
  C   C2095     1.0  0.75850  0.20451  0.76848  1.0000
  S   S279      1.0  0.76043  0.32112  0.62462  1.0000
  C   C2096     1.0  0.98499  0.19683  0.96462  1.0000
  H   H1678     1.0  0.77399  0.01903  0.72189  1.0000
  C   C2097     1.0  0.97767  0.19380  0.67699  1.0000
  H   H1679     1.0  0.98981  0.18910  0.90521  1.0000
  H   H1680     1.0  0.76477  0.38615  0.77440  1.0000
  C   C2098     1.0  0.76311  0.11004  0.67596  1.0000
  C   C2099     1.0  0.78786  0.48462  0.73926  1.0000
  C   C2100     1.0  0.98664  0.23551  0.64908  1.0000
  H   H1681     1.0  0.76165  0.18389  0.77923  1.0000
  C   C2101     1.0  0.76291  0.00372  0.73242  1.0000
  H   H1682     1.0  0.77077  0.38228  0.60207  1.0000
  C   C2102     1.0  0.99989  0.23312  0.73103  1.0000
  C   C2103     1.0  0.76216  0.05301  0.67559  1.0000
  H   H1683     1.0  0.75815  0.25398  0.63022  1.0000
  P   P71       1.0  0.75609  0.14627  0.69036  1.0000
  H   H1684     1.0  0.75636  0.12259  0.73896  1.0000
  C   C2104     1.0  0.00369  0.29044  0.68581  1.0000
  H   H1685     1.0  0.93008  0.49750  0.88017  1.0000
  Fe  Fe141     1.0  0.96582  0.58753  0.23976  1.0000
  S   S280      1.0  0.96995  0.56920  0.20286  1.0000
  S   S281      1.0  0.92906  0.59531  0.25528  1.0000
  C   C2105     1.0  0.95904  0.76850  0.23438  1.0000
  S   S282      1.0  0.99817  0.61880  0.23850  1.0000
  H   H1686     1.0  0.87563  0.53962  0.08539  1.0000
  S   S283      1.0  0.78386  0.73691  0.36632  1.0000
  S   S284      1.0  0.98624  0.54746  0.25595  1.0000
  C   C2106     1.0  0.95810  0.63639  0.09343  1.0000
  H   H1687     1.0  0.93171  0.94930  0.17131  1.0000
  S   S285      1.0  0.99491  0.83579  0.07861  1.0000
  H   H1688     1.0  0.77570  0.64589  0.22339  1.0000
  S   S286      1.0  0.95389  0.82317  0.11800  1.0000
  H   H1689     1.0  0.97857  0.80687  0.02426  1.0000
  Fe  Fe142     1.0  0.96451  0.80180  0.08374  1.0000
  S   S287      1.0  0.94071  0.78838  0.05283  1.0000
  Fe  Fe143     1.0  0.98641  0.85396  0.11481  1.0000
  H   H1690     1.0  0.94924  0.59039  0.05689  1.0000
  P   P72       1.0  0.83094  0.70800  0.17456  1.0000
  H   H1691     1.0  0.92143  0.67365  0.16929  1.0000
  H   H1692     1.0  0.90138  0.93119  0.14265  1.0000
  H   H1693     1.0  0.97413  0.92163  0.20405  1.0000
  Fe  Fe144     1.0  0.84773  0.65108  0.02602  1.0000
  S   S288      1.0  0.86158  0.60340  0.03439  1.0000
  S   S289      1.0  0.85770  0.68686  0.05393  1.0000
  Fe  Fe145     1.0  0.82458  0.58562  0.02838  1.0000
  S   S290      1.0  0.81411  0.54685  0.05499  1.0000
  S   S291      1.0  0.81008  0.63395  0.02134  1.0000
  Fe  Fe146     1.0  0.82513  0.71951  0.28580  1.0000
  S   S292      1.0  0.79805  0.73324  0.25830  1.0000
  S   S293      1.0  0.86273  0.71389  0.27142  1.0000
  Fe  Fe147     1.0  0.78940  0.73193  0.32652  1.0000
  Fe  Fe148     1.0  0.77284  0.70412  0.28011  1.0000
  C   C2107     1.0  0.77298  0.87673  0.25039  1.0000
  Fe  Fe149     1.0  0.78862  0.77286  0.28208  1.0000
  C   C2108     1.0  0.99132  0.76234  0.26232  1.0000
  S   S294      1.0  0.80017  0.68837  0.30665  1.0000
  S   S295      1.0  0.81712  0.76130  0.30836  1.0000
  C   C2109     1.0  0.79769  0.57371  0.15526  1.0000
  C   C2110     1.0  0.93426  0.61060  0.13529  1.0000
  C   C2111     1.0  0.94306  0.65288  0.07795  1.0000
  C   C2112     1.0  0.92107  0.59415  0.17410  1.0000
  C   C2113     1.0  0.76822  0.58355  0.27119  1.0000
  H   H1694     1.0  0.90178  0.56747  0.11370  1.0000
  C   C2114     1.0  0.75952  0.75614  0.37951  1.0000
  C   C2115     1.0  0.77371  0.76460  0.16378  1.0000
  C   C2116     1.0  0.86373  0.62443  0.10395  1.0000
  C   C2117     1.0  0.97044  0.71660  0.24756  1.0000
  C   C2118     1.0  0.98026  0.64941  0.09932  1.0000
  Fe  Fe150     1.0  0.97887  0.78797  0.13400  1.0000
  C   C2119     1.0  0.87840  0.51934  0.18594  1.0000
  H   H1695     1.0  0.78430  0.56439  0.22159  1.0000
  C   C2120     1.0  0.82360  0.67917  0.19689  1.0000
  H   H1696     1.0  0.77634  0.75871  0.41368  1.0000
  C   C2121     1.0  0.77678  0.56827  0.08233  1.0000
  C   C2122     1.0  0.79296  0.54445  0.07810  1.0000
  H   H1697     1.0  0.80102  0.98518  0.20947  1.0000
  H   H1698     1.0  0.77810  0.62921  0.28455  1.0000
  H   H1699     1.0  0.81496  0.64530  0.15793  1.0000
  H   H1700     1.0  0.92801  0.83033  0.01569  1.0000
  C   C2123     1.0  0.88106  0.56676  0.21952  1.0000
  C   C2124     1.0  0.81036  0.74010  0.17661  1.0000
  C   C2125     1.0  0.91939  0.75771  0.05373  1.0000
  C   C2126     1.0  0.90966  0.74715  0.07493  1.0000
  C   C2127     1.0  0.89114  0.72481  0.07472  1.0000
  C   C2128     1.0  0.88263  0.71224  0.05341  1.0000
  C   C2129     1.0  0.89310  0.72175  0.03229  1.0000
  C   C2130     1.0  0.91120  0.74469  0.03245  1.0000
  H   H1701     1.0  0.91581  0.75703  0.09139  1.0000
  H   H1702     1.0  0.88309  0.71761  0.09111  1.0000
  H   H1703     1.0  0.88658  0.71238  0.01580  1.0000
  H   H1704     1.0  0.91864  0.75267  0.01599  1.0000
  C   C2131     1.0  0.91098  0.62870  0.25953  1.0000
  C   C2132     1.0  0.88957  0.62490  0.27170  1.0000
  C   C2133     1.0  0.87448  0.65053  0.27534  1.0000
  C   C2134     1.0  0.88074  0.68044  0.26704  1.0000
  C   C2135     1.0  0.90222  0.68422  0.25499  1.0000
  C   C2136     1.0  0.91711  0.65851  0.25101  1.0000
  H   H1705     1.0  0.88463  0.60196  0.27844  1.0000
  H   H1706     1.0  0.85813  0.64720  0.28475  1.0000
  H   H1707     1.0  0.90742  0.70725  0.24880  1.0000
  H   H1708     1.0  0.93335  0.66169  0.24145  1.0000
  H   H1709     1.0  0.88203  0.64786  0.13213  1.0000
  C   C2137     1.0  0.90690  0.56611  0.09549  1.0000
  H   H1710     1.0  0.97853  0.71542  0.06502  1.0000
  C   C2138     1.0  0.81182  0.63391  0.23112  1.0000
  H   H1711     1.0  0.78578  0.68570  0.19361  1.0000
  C   C2139     1.0  0.79405  0.65040  0.21930  1.0000
  C   C2140     1.0  0.98690  0.92877  0.14570  1.0000
  C   C2141     1.0  0.97687  0.78166  0.24843  1.0000
  C   C2142     1.0  0.98590  0.75795  0.01914  1.0000
  H   H1712     1.0  0.98652  0.49963  0.16428  1.0000
  C   C2143     1.0  0.95061  0.68100  0.06752  1.0000
  C   C2144     1.0  0.77605  0.58358  0.16402  1.0000
  C   C2145     1.0  0.81515  0.76608  0.19104  1.0000
  H   H1713     1.0  0.94811  0.78342  0.22332  1.0000
  C   C2146     1.0  0.79350  0.86613  0.15875  1.0000
  C   C2147     1.0  0.80432  0.84598  0.14300  1.0000
  C   C2148     1.0  0.82804  0.83817  0.14621  1.0000
  C   C2149     1.0  0.84108  0.85103  0.16487  1.0000
  C   C2150     1.0  0.83057  0.87217  0.18030  1.0000
  C   C2151     1.0  0.80644  0.87884  0.17754  1.0000
  P   P73       1.0  0.84793  0.88852  0.20418  1.0000
  C   C2152     1.0  0.87404  0.90866  0.19347  1.0000
  C   C2153     1.0  0.83152  0.91771  0.21989  1.0000
  C   C2154     1.0  0.82179  0.94320  0.20744  1.0000
  C   C2155     1.0  0.80894  0.96595  0.21922  1.0000
  C   C2156     1.0  0.80612  0.96383  0.24357  1.0000
  C   C2157     1.0  0.81632  0.93906  0.25620  1.0000
  C   C2158     1.0  0.82904  0.91610  0.24446  1.0000
  C   C2159     1.0  0.89101  0.91997  0.20962  1.0000
  C   C2160     1.0  0.91171  0.93465  0.20163  1.0000
  C   C2161     1.0  0.91550  0.93841  0.17751  1.0000
  C   C2162     1.0  0.89842  0.92807  0.16135  1.0000
  C   C2163     1.0  0.87766  0.91351  0.16926  1.0000
  C   C2164     1.0  0.85566  0.85518  0.22246  1.0000
  C   C2165     1.0  0.83797  0.83880  0.23476  1.0000
  C   C2166     1.0  0.84347  0.81189  0.24789  1.0000
  C   C2167     1.0  0.86663  0.80105  0.24881  1.0000
  C   C2168     1.0  0.88431  0.81693  0.23636  1.0000
  C   C2169     1.0  0.87885  0.84370  0.22302  1.0000
  H   H1714     1.0  0.77497  0.87180  0.15654  1.0000
  H   H1715     1.0  0.79421  0.83614  0.12849  1.0000
  H   H1716     1.0  0.83634  0.82218  0.13420  1.0000
  H   H1717     1.0  0.85946  0.84471  0.16718  1.0000
  H   H1718     1.0  0.79735  0.89363  0.18979  1.0000
  H   H1719     1.0  0.82384  0.94522  0.18854  1.0000
  H   H1720     1.0  0.94189  0.72575  0.22334  1.0000
  H   H1721     1.0  0.97964  0.80685  0.24837  1.0000
  H   H1722     1.0  0.81417  0.93743  0.27510  1.0000
  H   H1723     1.0  0.83681  0.89722  0.25467  1.0000
  H   H1724     1.0  0.88837  0.91706  0.22838  1.0000
  H   H1725     1.0  0.92500  0.94295  0.21409  1.0000
  H   H1726     1.0  0.86461  0.90613  0.15636  1.0000
  H   H1727     1.0  0.81988  0.84681  0.23421  1.0000
  H   H1728     1.0  0.82978  0.79943  0.25748  1.0000
  H   H1729     1.0  0.87080  0.78028  0.25917  1.0000
  H   H1730     1.0  0.90225  0.80839  0.23698  1.0000
  H   H1731     1.0  0.89273  0.85505  0.21302  1.0000
  C   C2170     1.0  0.82630  0.69147  0.14564  1.0000
  C   C2171     1.0  0.81753  0.66071  0.14290  1.0000
  C   C2172     1.0  0.79942  0.79111  0.19160  1.0000
  C   C2173     1.0  0.84138  0.66195  0.20846  1.0000
  C   C2174     1.0  0.93337  0.57916  0.06354  1.0000
  C   C2175     1.0  0.97883  0.55136  0.09877  1.0000
  S   S296      1.0  0.97916  0.98758  0.21288  1.0000
  H   H1732     1.0  0.80725  0.61672  0.24452  1.0000
  H   H1733     1.0  0.99831  0.71117  0.01513  1.0000
  C   C2176     1.0  0.78804  0.56726  0.20312  1.0000
  H   H1734     1.0  0.95562  0.70175  0.19031  1.0000
  H   H1735     1.0  0.78470  0.71947  0.15243  1.0000
  C   C2177     1.0  0.81461  0.66886  0.10067  1.0000
  S   S297      1.0  0.96701  0.75796  0.16460  1.0000
  C   C2178     1.0  0.97244  0.57537  0.11419  1.0000
  H   H1736     1.0  0.93571  0.66116  0.12985  1.0000
  H   H1737     1.0  0.99169  0.63808  0.11215  1.0000
  H   H1738     1.0  0.85983  0.66580  0.20445  1.0000
  C   C2179     1.0  0.85181  0.57848  0.13770  1.0000
  C   C2180     1.0  0.98084  0.72127  0.16607  1.0000
  H   H1739     1.0  0.80455  0.62609  0.11831  1.0000
  C   C2181     1.0  0.84356  0.57602  0.11439  1.0000
  C   C2182     1.0  0.92778  0.58063  0.08757  1.0000
  C   C2183     1.0  0.77059  0.84010  0.38288  1.0000
  C   C2184     1.0  0.92901  0.58671  0.15165  1.0000
  C   C2185     1.0  0.83547  0.63973  0.22573  1.0000
  C   C2186     1.0  0.92320  0.64936  0.16425  1.0000
  H   H1740     1.0  0.85513  0.59060  0.19846  1.0000
  C   C2187     1.0  0.78924  0.73940  0.16331  1.0000
  H   H1741     1.0  0.90670  0.53778  0.23730  1.0000
  C   C2188     1.0  0.91829  0.62542  0.18049  1.0000
  C   C2189     1.0  0.91858  0.56311  0.04782  1.0000
  H   H1742     1.0  0.87127  0.51726  0.12442  1.0000
  C   C2190     1.0  0.97158  0.69767  0.18072  1.0000
  C   C2191     1.0  0.79987  0.67306  0.20236  1.0000
  C   C2192     1.0  0.89800  0.54848  0.05586  1.0000
  H   H1743     1.0  0.96775  0.75050  0.02175  1.0000
  H   H1744     1.0  0.91795  0.57567  0.18688  1.0000
  H   H1745     1.0  0.76067  0.99122  0.29731  1.0000
  H   H1746     1.0  0.91279  0.63106  0.19818  1.0000
  C   C2193     1.0  0.98281  0.66861  0.18284  1.0000
  C   C2194     1.0  0.76178  0.86158  0.33701  1.0000
  H   H1747     1.0  0.79387  0.80691  0.36701  1.0000
  H   H1748     1.0  0.78615  0.82594  0.32645  1.0000
  S   S298      1.0  0.78673  0.82541  0.27567  1.0000
  H   H1749     1.0  0.96944  0.54766  0.08239  1.0000
  C   C2195     1.0  0.77741  0.83690  0.34108  1.0000
  C   C2196     1.0  0.99194  0.78973  0.02056  1.0000
  H   H1750     1.0  0.97558  0.65058  0.19427  1.0000
  C   C2197     1.0  0.81149  0.64966  0.12048  1.0000
  C   C2198     1.0  0.99041  0.61541  0.30174  1.0000
  H   H1751     1.0  0.80314  0.81115  0.20266  1.0000
  H   H1752     1.0  0.84923  0.62722  0.23513  1.0000
  H   H1753     1.0  0.95760  0.69388  0.29192  1.0000
  C   C2199     1.0  0.76241  0.89259  0.23130  1.0000
  P   P74       1.0  0.94774  0.60080  0.10762  1.0000
  H   H1754     1.0  0.78226  0.57158  0.28056  1.0000
  C   C2200     1.0  0.75914  0.53745  0.11467  1.0000
  C   C2201     1.0  0.82323  0.69943  0.10328  1.0000
  C   C2202     1.0  0.82876  0.71084  0.12565  1.0000
  C   C2203     1.0  0.86099  0.72184  0.17924  1.0000
  C   C2204     1.0  0.87705  0.72424  0.16057  1.0000
  C   C2205     1.0  0.89977  0.73654  0.16441  1.0000
  C   C2206     1.0  0.90671  0.74613  0.18689  1.0000
  C   C2207     1.0  0.89118  0.74285  0.20568  1.0000
  C   C2208     1.0  0.86849  0.73058  0.20195  1.0000
  H   H1755     1.0  0.82561  0.71428  0.08785  1.0000
  H   H1756     1.0  0.83469  0.73497  0.12735  1.0000
  H   H1757     1.0  0.87232  0.71680  0.14302  1.0000
  H   H1758     1.0  0.91209  0.73884  0.14996  1.0000
  H   H1759     1.0  0.92418  0.75604  0.18967  1.0000
  H   H1760     1.0  0.89661  0.74987  0.22320  1.0000
  H   H1761     1.0  0.85678  0.72808  0.21687  1.0000
  H   H1762     1.0  0.83089  0.76735  0.20188  1.0000
  P   P75       1.0  0.84309  0.54924  0.15930  1.0000
  C   C2209     1.0  0.81488  0.56113  0.17053  1.0000
  H   H1763     1.0  0.92540  0.64424  0.07399  1.0000
  H   H1764     1.0  0.82185  0.54608  0.20656  1.0000
  H   H1765     1.0  0.86810  0.64227  0.09092  1.0000
  H   H1766     1.0  0.75765  0.76406  0.15325  1.0000
  C   C2210     1.0  0.93130  0.64207  0.14178  1.0000
  H   H1767     1.0  0.81051  0.66003  0.08323  1.0000
  C   C2211     1.0  0.96703  0.67215  0.29446  1.0000
  C   C2212     1.0  0.79243  0.51747  0.09265  1.0000
  C   C2213     1.0  0.77891  0.79053  0.17776  1.0000
  S   S299      1.0  0.98747  0.76501  0.09998  1.0000
  H   H1768     1.0  0.88212  0.58503  0.23258  1.0000
  C   C2214     1.0  0.77191  0.84391  0.25206  1.0000
  C   C2215     1.0  0.77124  0.58045  0.18797  1.0000
  C   C2216     1.0  0.77573  0.51403  0.11083  1.0000
  C   C2217     1.0  0.80960  0.55722  0.19447  1.0000
  H   H1769     1.0  0.93194  0.56237  0.14736  1.0000
  C   C2218     1.0  0.97292  0.69336  0.07292  1.0000
  C   C2219     1.0  0.99081  0.96141  0.14499  1.0000
  C   C2220     1.0  0.95376  0.85914  0.99783  1.0000
  C   C2221     1.0  0.98897  0.97967  0.16545  1.0000
  C   C2222     1.0  0.78186  0.82622  0.36396  1.0000
  H   H1770     1.0  0.93895  0.69349  0.05553  1.0000
  H   H1771     1.0  0.92284  0.56240  0.02926  1.0000
  H   H1772     1.0  0.95620  0.59627  0.31047  1.0000
  H   H1773     1.0  0.80060  0.57518  0.13652  1.0000
  H   H1774     1.0  0.84241  0.59709  0.07995  1.0000
  H   H1775     1.0  0.78229  0.88992  0.26381  1.0000
  H   H1776     1.0  0.97783  0.88946  0.16797  1.0000
  H   H1777     1.0  0.87179  0.60778  0.16191  1.0000
  C   C2223     1.0  0.84941  0.59894  0.09769  1.0000
  S   S300      1.0  0.98935  0.90712  0.11925  1.0000
  H   H1778     1.0  0.88627  0.53667  0.04349  1.0000
  C   C2224     1.0  0.89208  0.55013  0.07960  1.0000
  C   C2225     1.0  0.98098  0.91452  0.16716  1.0000
  C   C2226     1.0  0.96610  0.61710  0.30538  1.0000
  C   C2227     1.0  0.87166  0.62745  0.12717  1.0000
  C   C2228     1.0  0.86572  0.60462  0.14403  1.0000
  H   H1779     1.0  0.76642  0.66892  0.35961  1.0000
  H   H1780     1.0  0.76711  0.81030  0.17772  1.0000
  H   H1781     1.0  0.99275  0.70890  0.32835  1.0000
  H   H1782     1.0  0.95528  0.87581  0.01209  1.0000
  C   C2229     1.0  0.86596  0.56992  0.20006  1.0000
  H   H1783     1.0  0.77391  0.83156  0.40062  1.0000
  C   C2230     1.0  0.89490  0.54003  0.22220  1.0000
  C   C2231     1.0  0.98806  0.72962  0.26215  1.0000
  H   H1784     1.0  0.83223  0.55668  0.10906  1.0000
  C   C2232     1.0  0.98764  0.67777  0.08901  1.0000
  C   C2233     1.0  0.75956  0.82693  0.23490  1.0000
  H   H1785     1.0  0.77435  0.93279  0.37139  1.0000
  C   C2234     1.0  0.83956  0.51188  0.14496  1.0000
  C   C2235     1.0  0.85623  0.50237  0.12846  1.0000
  C   C2236     1.0  0.95567  0.73601  0.23418  1.0000
  H   H1786     1.0  0.79601  0.98143  0.25260  1.0000
  H   H1787     1.0  0.77691  0.58917  0.07139  1.0000
  C   C2237     1.0  0.86435  0.54616  0.18317  1.0000
  H   H1788     1.0  0.76394  0.91784  0.22980  1.0000
  S   S301      1.0  0.76066  0.74537  0.30119  1.0000
  H   H1789     1.0  0.80484  0.49890  0.08961  1.0000
  C   C2238     1.0  0.98295  0.96546  0.18687  1.0000
  H   H1790     1.0  0.98074  0.59736  0.14753  1.0000
  C   C2239     1.0  0.95448  0.64554  0.30201  1.0000
  C   C2240     1.0  0.93841  0.83342  0.99989  1.0000
  C   C2241     1.0  0.97892  0.93283  0.18759  1.0000
  C   C2242     1.0  0.99133  0.67036  0.28991  1.0000
  Fe  Fe151     1.0  0.99211  0.53102  0.21899  1.0000
  C   C2243     1.0  0.75990  0.56464  0.10035  1.0000
  H   H1791     1.0  0.93559  0.64675  0.30470  1.0000
  H   H1792     1.0  0.96829  0.69140  0.24636  1.0000
  Fe  Fe152     1.0  0.86710  0.59865  0.99575  1.0000
  H   H1793     1.0  0.78297  0.97025  0.40333  1.0000
  C   C2244     1.0  0.76066  0.76430  0.40349  1.0000
  C   C2245     1.0  0.98521  0.57903  0.13534  1.0000
  C   C2246     1.0  0.89363  0.51640  0.20538  1.0000
  C   C2247     1.0  0.76586  0.61622  0.27352  1.0000
  H   H1794     1.0  0.76264  0.59262  0.15208  1.0000
  H   H1795     1.0  0.99523  0.97260  0.12846  1.0000
  C   C2248     1.0  0.99752  0.53139  0.10454  1.0000
  C   C2249     1.0  0.00332  0.73573  0.01515  1.0000
  H   H1796     1.0  0.75604  0.65349  0.31867  1.0000
  H   H1797     1.0  0.99948  0.59334  0.30424  1.0000
  H   H1798     1.0  0.75902  0.86932  0.31906  1.0000
  H   H1799     1.0  0.87742  0.50040  0.17344  1.0000
  C   C2250     1.0  0.00302  0.64196  0.29420  1.0000
  H   H1800     1.0  0.75853  0.80161  0.23613  1.0000
  S   S302      1.0  0.75746  0.52576  0.25265  1.0000
  H   H1801     1.0  0.00213  0.51267  0.09272  1.0000
  C   C2251     1.0  0.00115  0.71544  0.15308  1.0000
  C   C2252     1.0  0.75986  0.94348  0.38057  1.0000
  C   C2253     1.0  0.76481  0.96470  0.39862  1.0000
  C   C2254     1.0  0.00388  0.55903  0.14103  1.0000
  C   C2255     1.0  0.00327  0.66297  0.17010  1.0000
  Fe  Fe153     1.0  0.00376  0.59759  0.20301  1.0000
  H   H1802     1.0  0.80766  0.49835  0.16342  1.0000
  C   C2256     1.0  0.75481  0.86461  0.37894  1.0000
  H   H1803     1.0  0.81175  0.52888  0.65335  1.0000
  C   C2257     1.0  0.94389  0.72886  0.77705  1.0000
  S   S303      1.0  0.80078  0.64414  0.94960  1.0000
  C   C2258     1.0  0.93360  0.74682  0.73771  1.0000
  H   H1804     1.0  0.85995  0.59810  0.81281  1.0000
  C   C2259     1.0  0.96706  0.86329  0.97744  1.0000
  H   H1805     1.0  0.89393  0.63371  0.95609  1.0000
  S   S304      1.0  0.96344  0.82179  0.71978  1.0000
  S   S305      1.0  0.96459  0.64553  0.90774  1.0000
  Fe  Fe154     1.0  0.82307  0.86932  0.69678  1.0000
  S   S306      1.0  0.79859  0.84741  0.72335  1.0000
  S   S307      1.0  0.86047  0.88266  0.70998  1.0000
  Fe  Fe155     1.0  0.78181  0.87582  0.65984  1.0000
  C   C2260     1.0  0.76559  0.59403  0.88618  1.0000
  H   H1806     1.0  0.84800  0.66799  0.93566  1.0000
  Fe  Fe156     1.0  0.77268  0.88465  0.71243  1.0000
  C   C2261     1.0  0.88303  0.72388  0.95386  1.0000
  Fe  Fe157     1.0  0.78400  0.81943  0.69330  1.0000
  H   H1807     1.0  0.90849  0.69369  0.97070  1.0000
  S   S308      1.0  0.79757  0.90819  0.68739  1.0000
  S   S309      1.0  0.80977  0.83930  0.66682  1.0000
  H   H1808     1.0  0.90746  0.83920  0.83151  1.0000
  C   C2262     1.0  0.90397  0.82763  0.81497  1.0000
  H   H1809     1.0  0.77352  0.70050  0.70317  1.0000
  C   C2263     1.0  0.91765  0.80884  0.77758  1.0000
  H   H1810     1.0  0.79765  0.81636  0.79208  1.0000
  H   H1811     1.0  0.85792  0.70609  0.90390  1.0000
  H   H1812     1.0  0.82110  0.60020  0.87256  1.0000
  C   C2264     1.0  0.85498  0.55253  0.91254  1.0000
  H   H1813     1.0  0.77248  0.81290  0.53650  1.0000
  H   H1814     1.0  0.84516  0.73130  0.63995  1.0000
  S   S310      1.0  0.75554  0.85429  0.68471  1.0000
  S   S311      1.0  0.85617  0.64789  0.98762  1.0000
  H   H1815     1.0  0.88608  0.75769  0.54342  1.0000
  H   H1816     1.0  0.99124  0.59362  0.79242  1.0000
  C   C2265     1.0  0.93442  0.83795  0.71843  1.0000
  C   C2266     1.0  0.91722  0.82414  0.70355  1.0000
  C   C2267     1.0  0.89430  0.83675  0.70131  1.0000
  C   C2268     1.0  0.88829  0.86367  0.71372  1.0000
  C   C2269     1.0  0.90538  0.87718  0.72884  1.0000
  C   C2270     1.0  0.92819  0.86434  0.73134  1.0000
  H   H1817     1.0  0.92181  0.80389  0.69332  1.0000
  H   H1818     1.0  0.88161  0.82631  0.68932  1.0000
  H   H1819     1.0  0.90107  0.89809  0.73846  1.0000
  H   H1820     1.0  0.94113  0.87535  0.74281  1.0000
  H   H1821     1.0  0.80610  0.54929  0.80933  1.0000
  S   S312      1.0  0.77679  0.54322  0.75523  1.0000
  C   C2271     1.0  0.78910  0.62337  0.92486  1.0000
  C   C2272     1.0  0.78237  0.59175  0.92627  1.0000
  H   H1822     1.0  0.92114  0.79305  0.54205  1.0000
  H   H1823     1.0  0.94255  0.72763  0.96099  1.0000
  C   C2273     1.0  0.75518  0.51141  0.66966  1.0000
  C   C2274     1.0  0.78466  0.63991  0.90369  1.0000
  H   H1824     1.0  0.78546  0.57875  0.94244  1.0000
  H   H1825     1.0  0.85241  0.61157  0.92961  1.0000
  H   H1826     1.0  0.77727  0.77506  0.63801  1.0000
  H   H1827     1.0  0.78974  0.66438  0.90238  1.0000
  C   C2275     1.0  0.91789  0.59558  0.96201  1.0000
  C   C2276     1.0  0.93940  0.58245  0.95544  1.0000
  C   C2277     1.0  0.95375  0.59752  0.93870  1.0000
  C   C2278     1.0  0.94667  0.62585  0.92842  1.0000
  C   C2279     1.0  0.92498  0.63878  0.93467  1.0000
  C   C2280     1.0  0.91061  0.62366  0.95142  1.0000
  H   H1828     1.0  0.94501  0.56056  0.96339  1.0000
  H   H1829     1.0  0.97024  0.58712  0.93376  1.0000
  H   H1830     1.0  0.91926  0.66052  0.92663  1.0000
  H   H1831     1.0  0.87158  0.68689  0.86520  1.0000
  P   P76       1.0  0.86643  0.57510  0.88803  1.0000
  Fe  Fe158     1.0  0.99431  0.83299  0.74516  1.0000
  H   H1832     1.0  0.95231  0.59391  0.87688  1.0000
  C   C2281     1.0  0.86271  0.62269  0.80869  1.0000
  C   C2282     1.0  0.84255  0.77281  0.61814  1.0000
  C   C2283     1.0  0.82769  0.79652  0.60944  1.0000
  H   H1833     1.0  0.77459  0.86675  0.52029  1.0000
  P   P77       1.0  0.83941  0.82876  0.59226  1.0000
  C   C2284     1.0  0.86557  0.81738  0.57685  1.0000
  C   C2285     1.0  0.81882  0.84074  0.56945  1.0000
  C   C2286     1.0  0.82050  0.87094  0.55947  1.0000
  C   C2287     1.0  0.80457  0.88033  0.54183  1.0000
  C   C2288     1.0  0.78728  0.85939  0.53363  1.0000
  C   C2289     1.0  0.80182  0.81955  0.56062  1.0000
  C   C2290     1.0  0.86587  0.78870  0.56494  1.0000
  C   C2291     1.0  0.88590  0.77991  0.55253  1.0000
  H   H1834     1.0  0.99298  0.90222  0.85232  1.0000
  C   C2292     1.0  0.79764  0.73532  0.80956  1.0000
  C   C2293     1.0  0.88524  0.83763  0.57550  1.0000
  C   C2294     1.0  0.84560  0.85910  0.61345  1.0000
  C   C2295     1.0  0.86503  0.85626  0.62888  1.0000
  C   C2296     1.0  0.86901  0.87848  0.64649  1.0000
  C   C2297     1.0  0.85343  0.90336  0.64905  1.0000
  C   C2298     1.0  0.83388  0.90607  0.63398  1.0000
  C   C2299     1.0  0.82987  0.88392  0.61637  1.0000
  C   C2300     1.0  0.84829  0.56781  0.86221  1.0000
  C   C2301     1.0  0.83941  0.53887  0.82641  1.0000
  H   H1835     1.0  0.87290  0.52166  0.96529  1.0000
  H   H1836     1.0  0.80431  0.51772  0.93231  1.0000
  C   C2302     1.0  0.92578  0.52221  0.88023  1.0000
  H   H1837     1.0  0.83392  0.88736  0.56549  1.0000
  C   C2303     1.0  0.90582  0.71517  0.96064  1.0000
  H   H1838     1.0  0.80056  0.79582  0.56744  1.0000
  H   H1839     1.0  0.85057  0.77320  0.56517  1.0000
  C   C2304     1.0  0.00047  0.72583  0.84132  1.0000
  C   C2305     1.0  0.98059  0.63571  0.80982  1.0000
  H   H1840     1.0  0.81910  0.54863  0.89884  1.0000
  C   C2306     1.0  0.76800  0.71284  0.71867  1.0000
  H   H1841     1.0  0.87686  0.83658  0.62765  1.0000
  H   H1842     1.0  0.88380  0.87606  0.65864  1.0000
  H   H1843     1.0  0.85618  0.91998  0.66318  1.0000
  H   H1844     1.0  0.82133  0.92476  0.63642  1.0000
  H   H1845     1.0  0.81404  0.88573  0.60563  1.0000
  C   C2307     1.0  0.92592  0.85907  0.89196  1.0000
  C   C2308     1.0  0.93853  0.85306  0.87153  1.0000
  C   C2309     1.0  0.95275  0.82659  0.87042  1.0000
  C   C2310     1.0  0.95475  0.80637  0.88986  1.0000
  C   C2311     1.0  0.94247  0.81254  0.91070  1.0000
  C   C2312     1.0  0.92785  0.83893  0.91146  1.0000
  P   P78       1.0  0.94654  0.78863  0.93696  1.0000
  C   C2313     1.0  0.92175  0.76250  0.94219  1.0000
  C   C2314     1.0  0.82272  0.52489  0.93194  1.0000
  C   C2315     1.0  0.97275  0.76537  0.93394  1.0000
  H   H1846     1.0  0.80548  0.90392  0.53464  1.0000
  H   H1847     1.0  0.84017  0.72994  0.85202  1.0000
  H   H1848     1.0  0.86175  0.75854  0.93621  1.0000
  C   C2316     1.0  0.93657  0.81152  0.98179  1.0000
  C   C2317     1.0  0.89879  0.77095  0.93525  1.0000
  H   H1849     1.0  0.98507  0.72950  0.85201  1.0000
  C   C2318     1.0  0.78607  0.82894  0.54285  1.0000
  C   C2319     1.0  0.95624  0.60765  0.78163  1.0000
  C   C2320     1.0  0.92511  0.73443  0.95494  1.0000
  C   C2321     1.0  0.94981  0.81555  0.96120  1.0000
  S   S313      1.0  0.76434  0.60874  0.79998  1.0000
  H   H1850     1.0  0.76170  0.61205  0.71908  1.0000
  C   C2322     1.0  0.96496  0.84175  0.95910  1.0000
  C   C2323     1.0  0.87952  0.75166  0.94109  1.0000
  C   C2324     1.0  0.83780  0.51694  0.95064  1.0000
  H   H1851     1.0  0.91495  0.87971  0.89286  1.0000
  H   H1852     1.0  0.93747  0.86908  0.85661  1.0000
  H   H1853     1.0  0.96262  0.82196  0.85458  1.0000
  H   H1854     1.0  0.96633  0.78653  0.88847  1.0000
  H   H1855     1.0  0.91839  0.84443  0.92736  1.0000
  H   H1856     1.0  0.92021  0.74873  0.88945  1.0000
  H   H1857     1.0  0.90025  0.62028  0.81300  1.0000
  C   C2325     1.0  0.90564  0.79986  0.55171  1.0000
  H   H1858     1.0  0.92462  0.79176  0.98400  1.0000
  C   C2326     1.0  0.94891  0.74718  0.75716  1.0000
  H   H1859     1.0  0.89559  0.79268  0.92586  1.0000
  H   H1860     1.0  0.86806  0.70933  0.95889  1.0000
  H   H1861     1.0  0.87083  0.53261  0.84713  1.0000
  H   H1862     1.0  0.77811  0.86732  0.78828  1.0000
  C   C2327     1.0  0.93841  0.62978  0.78418  1.0000
  H   H1863     1.0  0.97513  0.84553  0.94326  1.0000
  S   S314      1.0  0.98706  0.85433  0.78017  1.0000
  C   C2328     1.0  0.85451  0.54533  0.84551  1.0000
  C   C2329     1.0  0.79531  0.77395  0.63190  1.0000
  H   H1864     1.0  0.99236  0.70275  0.90313  1.0000
  C   C2330     1.0  0.80415  0.79722  0.61679  1.0000
  H   H1865     1.0  0.79948  0.91325  0.77188  1.0000
  S   S315      1.0  0.90064  0.57611  0.98339  1.0000
  H   H1866     1.0  0.95391  0.58846  0.76943  1.0000
  C   C2331     1.0  0.91700  0.75318  0.85177  1.0000
  H   H1867     1.0  0.88512  0.86038  0.58380  1.0000
  H   H1868     1.0  0.93179  0.80645  0.76503  1.0000
  H   H1869     1.0  0.88877  0.51386  0.88556  1.0000
  C   C2332     1.0  0.86134  0.52702  0.95048  1.0000
  C   C2333     1.0  0.77053  0.57731  0.90714  1.0000
  C   C2334     1.0  0.77324  0.62529  0.88439  1.0000
  P   P79       1.0  0.91874  0.68390  0.80243  1.0000
  C   C2335     1.0  0.94127  0.65450  0.80016  1.0000
  C   C2336     1.0  0.92088  0.70497  0.82975  1.0000
  C   C2337     1.0  0.91705  0.73745  0.83028  1.0000
  H   H1870     1.0  0.80321  0.73260  0.65233  1.0000
  C   C2338     1.0  0.92048  0.73656  0.87283  1.0000
  C   C2339     1.0  0.92435  0.70425  0.87243  1.0000
  C   C2340     1.0  0.92441  0.68845  0.85099  1.0000
  C   C2341     1.0  0.96269  0.65765  0.81264  1.0000
  H   H1871     1.0  0.75577  0.55745  0.70651  1.0000
  H   H1872     1.0  0.92250  0.62773  0.77352  1.0000
  H   H1873     1.0  0.92047  0.84437  0.56224  1.0000
  H   H1874     1.0  0.96465  0.76191  0.75676  1.0000
  C   C2342     1.0  0.88931  0.66708  0.80256  1.0000
  C   C2343     1.0  0.86970  0.68627  0.79825  1.0000
  C   C2344     1.0  0.84683  0.67349  0.79850  1.0000
  C   C2345     1.0  0.84333  0.64169  0.80365  1.0000
  H   H1875     1.0  0.90172  0.72728  0.72273  1.0000
  C   C2346     1.0  0.88560  0.63534  0.80843  1.0000
  C   C2347     1.0  0.99283  0.72249  0.91502  1.0000
  H   H1876     1.0  0.94029  0.82980  0.80384  1.0000
  H   H1877     1.0  0.95612  0.72931  0.79189  1.0000
  C   C2348     1.0  0.90857  0.70880  0.75763  1.0000
  H   H1878     1.0  0.91398  0.75068  0.81418  1.0000
  S   S316      1.0  0.83136  0.57663  0.98975  1.0000
  C   C2349     1.0  0.92351  0.70976  0.77755  1.0000
  H   H1879     1.0  0.92727  0.69129  0.88873  1.0000
  H   H1880     1.0  0.92713  0.66331  0.85104  1.0000
  H   H1881     1.0  0.96584  0.67733  0.82419  1.0000
  C   C2350     1.0  0.97230  0.73934  0.91897  1.0000
  C   C2351     1.0  0.89675  0.56360  0.88352  1.0000
  H   H1882     1.0  0.87212  0.71106  0.79453  1.0000
  H   H1883     1.0  0.83173  0.68813  0.79464  1.0000
  H   H1884     1.0  0.82560  0.63176  0.80378  1.0000
  C   C2352     1.0  0.83365  0.74948  0.63321  1.0000
  H   H1885     1.0  0.93757  0.76125  0.72240  1.0000
  C   C2353     1.0  0.88087  0.81883  0.80885  1.0000
  C   C2354     1.0  0.87608  0.80396  0.78734  1.0000
  C   C2355     1.0  0.89465  0.79938  0.77156  1.0000
  P   P80       1.0  0.84582  0.79517  0.77911  1.0000
  C   C2356     1.0  0.83151  0.76839  0.79964  1.0000
  C   C2357     1.0  0.83109  0.83272  0.77779  1.0000
  C   C2358     1.0  0.80763  0.83601  0.78522  1.0000
  C   C2359     1.0  0.80851  0.89108  0.77412  1.0000
  C   C2360     1.0  0.83192  0.88818  0.76705  1.0000
  C   C2361     1.0  0.84320  0.85925  0.76897  1.0000
  C   C2362     1.0  0.80896  0.75621  0.79415  1.0000
  C   C2363     1.0  0.84461  0.77744  0.75026  1.0000
  C   C2364     1.0  0.84570  0.79613  0.72983  1.0000
  C   C2365     1.0  0.84349  0.78252  0.70762  1.0000
  C   C2366     1.0  0.84036  0.75015  0.70559  1.0000
  C   C2367     1.0  0.83999  0.73121  0.72577  1.0000
  C   C2368     1.0  0.84233  0.74473  0.74801  1.0000
  H   H1886     1.0  0.86661  0.82416  0.82068  1.0000
  H   H1887     1.0  0.89145  0.78953  0.75432  1.0000
  H   H1888     1.0  0.84112  0.90810  0.75928  1.0000
  H   H1889     1.0  0.86117  0.85752  0.76278  1.0000
  H   H1890     1.0  0.80010  0.76281  0.77783  1.0000
  C   C2369     1.0  0.81798  0.55458  0.82395  1.0000
  H   H1891     1.0  0.84790  0.82127  0.73089  1.0000
  H   H1892     1.0  0.84365  0.79723  0.69198  1.0000
  H   H1893     1.0  0.83778  0.73988  0.68839  1.0000
  H   H1894     1.0  0.83726  0.70613  0.72417  1.0000
  H   H1895     1.0  0.84180  0.72960  0.76333  1.0000
  H   H1896     1.0  0.91430  0.77828  0.85208  1.0000
  C   C2370     1.0  0.86470  0.61661  0.89367  1.0000
  C   C2371     1.0  0.86973  0.63822  0.87554  1.0000
  C   C2372     1.0  0.86755  0.67041  0.87925  1.0000
  C   C2373     1.0  0.85995  0.68122  0.90101  1.0000
  C   C2374     1.0  0.85458  0.65982  0.91900  1.0000
  C   C2375     1.0  0.85699  0.62763  0.91543  1.0000
  H   H1897     1.0  0.88808  0.55310  0.93212  1.0000
  H   H1898     1.0  0.86051  0.76624  0.82491  1.0000
  H   H1899     1.0  0.76999  0.63839  0.86832  1.0000
  C   C2376     1.0  0.79643  0.86506  0.78331  1.0000
  H   H1900     1.0  0.95619  0.73220  0.91008  1.0000
  C   C2377     1.0  0.83146  0.73744  0.83589  1.0000
  C   C2378     1.0  0.92239  0.82251  0.79937  1.0000
  H   H1901     1.0  0.87534  0.63006  0.85855  1.0000
  C   C2379     1.0  0.81003  0.75008  0.64010  1.0000
  C   C2380     1.0  0.86989  0.54494  0.93161  1.0000
  H   H1902     1.0  0.86109  0.77265  0.61372  1.0000
  C   C2381     1.0  0.90527  0.82875  0.56311  1.0000
  S   S317      1.0  0.77873  0.76642  0.69349  1.0000
  H   H1903     1.0  0.78020  0.72618  0.80517  1.0000
  H   H1904     1.0  0.96192  0.53742  0.87569  1.0000
  H   H1905     1.0  0.79998  0.70981  0.84238  1.0000
  C   C2382     1.0  0.91341  0.72771  0.73797  1.0000
  C   C2383     1.0  0.83124  0.54260  0.91294  1.0000
  H   H1906     1.0  0.76292  0.78693  0.73952  1.0000
  H   H1907     1.0  0.89342  0.69317  0.75696  1.0000
  C   C2384     1.0  0.93832  0.57652  0.87828  1.0000
  H   H1908     1.0  0.79475  0.58833  0.83914  1.0000
  C   C2385     1.0  0.99379  0.77322  0.94587  1.0000
  C   C2386     1.0  0.82670  0.58347  0.85955  1.0000
  H   H1909     1.0  0.91168  0.61081  0.88278  1.0000
  C   C2387     1.0  0.80882  0.72606  0.83049  1.0000
  H   H1910     1.0  0.84417  0.52142  0.81360  1.0000
  C   C2388     1.0  0.84285  0.75836  0.82049  1.0000
  C   C2389     1.0  0.94374  0.54467  0.87771  1.0000
  C   C2390     1.0  0.91501  0.58602  0.88141  1.0000
  C   C2391     1.0  0.81165  0.57680  0.84057  1.0000
  H   H1911     1.0  0.99721  0.63843  0.81923  1.0000
  S   S318      1.0  0.99479  0.78642  0.82586  1.0000
  C   C2392     1.0  0.79685  0.51530  0.65983  1.0000
  C   C2393     1.0  0.97730  0.61056  0.79453  1.0000
  C   C2394     1.0  0.76212  0.76157  0.73911  1.0000
  C   C2395     1.0  0.90241  0.53159  0.88321  1.0000
  H   H1912     1.0  0.77232  0.55285  0.65507  1.0000
  H   H1913     1.0  0.79289  0.81641  0.61145  1.0000
  H   H1914     1.0  0.76480  0.55311  0.90876  1.0000
  H   H1915     1.0  0.75879  0.67043  0.73799  1.0000
  C   C2396     1.0  0.76912  0.74581  0.71892  1.0000
  S   S319      1.0  0.76877  0.89811  0.62498  1.0000
  H   H1916     1.0  0.77505  0.96142  0.71589  1.0000
  Fe  Fe159     1.0  0.81976  0.62624  0.98304  1.0000
  C   C2397     1.0  0.77450  0.52881  0.66096  1.0000
  H   H1917     1.0  0.83111  0.50366  0.96555  1.0000
  H   H1918     1.0  0.99460  0.79235  0.95820  1.0000
  Fe  Fe160     1.0  0.99937  0.62292  0.89896  1.0000
  C   C2398     1.0  0.76366  0.97103  0.72908  1.0000
  H   H1919     1.0  0.97883  0.88339  0.97582  1.0000
  H   H1920     1.0  0.99201  0.65630  0.95655  1.0000
  C   C2399     1.0  0.76978  0.50428  0.74690  1.0000
  C   C2400     1.0  0.75960  0.69576  0.73830  1.0000
  S   S320      1.0  0.00431  0.59991  0.86395  1.0000
