data_image0
_chemical_formula_structural       CSCFeSCHC4SC8H3C2HSC4H6CHC4H3C4HC2HSH2CFeH2C3HC2H4C2HCH2CH3C3H2C3H2CHSH2C2PHCHFeCH2C3HCFeSFeSCFeSFeS3FeCSC2SHCH2PC6H4C4HC2HCPHC5PC8HC4H8CHCH3SC6PC8HCH7CH6C5HC2HC5H3C3HCHCHCH2CHSH3CHC2H2C3HCHC2H2CHCH3SC2HCHCHCSCFeSFeSFeHSC2FeCH4CHC2H6C3HC2SHCH2CHC5H2CHPH2C4HCHCHC2HC2HC2HC2HC3H3CH2CH2C2HCPFeS2FeC2FeHCS2CFeHCHSCH2C5H2C3HC5PCH2C2H3C2HCH2CHCHCH2CH4CHCH2C2HC2H2C2HCH2C2H3C4H2CH4C3HC2H2CHFeSFeSCFeSFeS3HSHFeSC7H4SH2C2H3C5H3C2HPCH3C2SHC2HSC3HC5H3CHC9H2CHC3HC5H3CHC2H2C3H2CHCHC2HPH2C2H2SH2C2HCHCHC3H2C2H3C2H2SHFeS2HCHC2HC5HPHSCHC2H2CH6C3HCHSCSHC2PCHC2HC5H2C2H2FeC3HFeCH2CHCHC2HC2H3CHC3HC2HCPC8HCHC5H3CHCSHCH3C2HCHCHCHC2HCHCHC4HCHC5HC4H3CH2CH2CFeCSHCSC2H5C5H3C2H2CHCHC2HCHCH2C5H4C4HC3HC3H2C9PCH2C2H4SCH4CH4SHFeSHFeSHSCFeSFeS2CHC7H6CHC2H2C2FeHSHC6H3CHCHCHC2HC2HC2HPHCH3C4H2C2HC5FeCHC2HCHC2H2CH2CSFeHCHC2SH2CS2HSC2FeS2FeS2Fe2HS2HC3HC3H2CH2CHC2HSCH2SC2HCHCH2C2SHC5SC4H3CHPC10HCH3CH5C3H3CHCHC3H2C2HC2H2C3H2PHC2HCHFeSHFeSFeSFeS3C2HPHC2HC2SCHC2HCHC3HC4HC2HC2HCHC8HPH2C2H2C2H2C2H7SCHS2HCHCH4CH2C2H2CFeHSFeS2CHCS2FeCSC2SCHFeH2C6H4CHCH3C2HC6PC2FeC2HC2HC4H9C2HCPC2HC2HPCH3C4SCH2C3HSHC2HCHCHFeHCH2C4HC2HCHCH4C5FeHSHCH3CSCH2CH2C3HC3HCH8SC6H4CHCPHC2H2C2SH3C2H4CHC9HC2PCFeCHCH2C3H2C2H5C2HC2HSCHC2HC2H4
_chemical_formula_sum              "C720 S96 Fe48 H576 P24"
_cell_length_a       30.4332
_cell_length_b       55.7526
_cell_length_c       34.7381
_cell_angle_alpha    90.0656
_cell_angle_beta     108.099
_cell_angle_gamma    89.8567

_space_group_name_H-M_alt    "P 1"
_space_group_IT_number       1

loop_
  _space_group_symop_operation_xyz
  'x, y, z'

loop_
  _atom_site_type_symbol
  _atom_site_label
  _atom_site_symmetry_multiplicity
  _atom_site_fract_x
  _atom_site_fract_y
  _atom_site_fract_z
  _atom_site_occupancy
  C   C1        1.0  0.19570  0.31317  0.11868  1.0000
  S   S1        1.0  0.38995  0.22507  0.21999  1.0000
  C   C2        1.0  0.23393  0.26619  0.25463  1.0000
  Fe  Fe1       1.0  0.39356  0.26338  0.20024  1.0000
  S   S2        1.0  0.31928  0.27776  0.16753  1.0000
  C   C3        1.0  0.32822  0.05852  0.01740  1.0000
  H   H1        1.0  0.31564  0.04673  0.99145  1.0000
  C   C4        1.0  0.42163  0.17344  0.09835  1.0000
  C   C5        1.0  0.42433  0.15639  0.02165  1.0000
  C   C6        1.0  0.39847  0.14421  0.04246  1.0000
  C   C7        1.0  0.45163  0.99839  0.10381  1.0000
  S   S3        1.0  0.42130  0.18212  0.14788  1.0000
  C   C8        1.0  0.46286  0.09998  0.23167  1.0000
  C   C9        1.0  0.25504  0.19358  0.00514  1.0000
  C   C10       1.0  0.31429  0.08946  0.06106  1.0000
  C   C11       1.0  0.27814  0.30171  0.25165  1.0000
  C   C12       1.0  0.27657  0.30119  0.15302  1.0000
  C   C13       1.0  0.11039  0.30427  0.17468  1.0000
  C   C14       1.0  0.10832  0.25942  0.05426  1.0000
  C   C15       1.0  0.29782  0.07404  0.02801  1.0000
  H   H2        1.0  0.37276  0.10091  0.10971  1.0000
  H   H3        1.0  0.14443  0.30624  0.17136  1.0000
  H   H4        1.0  0.37985  0.12815  0.02945  1.0000
  C   C16       1.0  0.15499  0.28295  0.00711  1.0000
  C   C17       1.0  0.24584  0.29513  0.99588  1.0000
  H   H5        1.0  0.30989  0.17521  0.10209  1.0000
  S   S4        1.0  0.45114  0.27209  0.25833  1.0000
  C   C18       1.0  0.27482  0.27677  0.25292  1.0000
  C   C19       1.0  0.23036  0.29527  0.13156  1.0000
  C   C20       1.0  0.26977  0.21757  0.00915  1.0000
  C   C21       1.0  0.39194  0.07351  0.07347  1.0000
  H   H6        1.0  0.29079  0.10168  0.06906  1.0000
  H   H7        1.0  0.20935  0.25689  0.03226  1.0000
  H   H8        1.0  0.30196  0.06842  0.48450  1.0000
  H   H9        1.0  0.22143  0.27667  0.12456  1.0000
  H   H10       1.0  0.09026  0.25035  0.07243  1.0000
  H   H11       1.0  0.00251  0.28543  0.12086  1.0000
  C   C22       1.0  0.19629  0.28054  0.25500  1.0000
  H   H12       1.0  0.33406  0.21763  0.10889  1.0000
  C   C23       1.0  0.07475  0.29462  0.14274  1.0000
  C   C24       1.0  0.37515  0.05843  0.03968  1.0000
  C   C25       1.0  0.03034  0.29242  0.14605  1.0000
  C   C26       1.0  0.29759  0.22628  0.04656  1.0000
  H   H13       1.0  0.16070  0.30820  0.10174  1.0000
  H   H14       1.0  0.26063  0.15948  0.03654  1.0000
  H   H15       1.0  0.39819  0.04645  0.03051  1.0000
  C   C27       1.0  0.26959  0.17830  0.03894  1.0000
  C   C28       1.0  0.17554  0.26335  0.03151  1.0000
  C   C29       1.0  0.19941  0.30568  0.25399  1.0000
  C   C30       1.0  0.15238  0.25174  0.05519  1.0000
  H   H16       1.0  0.16449  0.27204  0.25544  1.0000
  C   C31       1.0  0.39727  0.15269  0.08052  1.0000
  C   C32       1.0  0.29762  0.18709  0.07623  1.0000
  H   H17       1.0  0.16871  0.23681  0.07431  1.0000
  S   S5        1.0  0.44423  0.25457  0.16617  1.0000
  H   H18       1.0  0.37744  0.14310  0.09644  1.0000
  H   H19       1.0  0.30369  0.26567  0.25161  1.0000
  C   C33       1.0  0.31153  0.21105  0.08007  1.0000
  Fe  Fe2       1.0  0.44115  0.21648  0.18681  1.0000
  H   H20       1.0  0.30936  0.24468  0.04957  1.0000
  H   H21       1.0  0.45626  0.12017  0.13790  1.0000
  C   C34       1.0  0.02173  0.29963  0.18158  1.0000
  C   C35       1.0  0.36108  0.08907  0.08394  1.0000
  C   C36       1.0  0.08745  0.27874  0.02973  1.0000
  H   H22       1.0  0.33044  0.29589  0.08748  1.0000
  C   C37       1.0  0.14178  0.30564  0.36383  1.0000
  C   C38       1.0  0.44807  0.17734  0.03915  1.0000
  H   H23       1.0  0.24596  0.29831  0.05807  1.0000
  H   H24       1.0  0.40831  0.02657  0.11390  1.0000
  H   H25       1.0  0.05310  0.28463  0.02868  1.0000
  H   H26       1.0  0.37475  0.99844  0.46066  1.0000
  C   C39       1.0  0.44665  0.18588  0.07711  1.0000
  C   C40       1.0  0.34254  0.29350  0.02958  1.0000
  H   H27       1.0  0.09347  0.30525  0.98701  1.0000
  C   C41       1.0  0.46081  0.11602  0.20029  1.0000
  H   H28       1.0  0.98720  0.29812  0.18404  1.0000
  H   H29       1.0  0.15677  0.29237  0.38702  1.0000
  C   C42       1.0  0.05750  0.30902  0.21383  1.0000
  H   H30       1.0  0.23132  0.24681  0.25501  1.0000
  H   H31       1.0  0.44553  0.08397  0.01983  1.0000
  H   H32       1.0  0.30955  0.30975  0.24915  1.0000
  C   C43       1.0  0.10209  0.31158  0.21047  1.0000
  C   C44       1.0  0.31478  0.29531  0.05480  1.0000
  C   C45       1.0  0.45840  0.10738  0.16192  1.0000
  H   H33       1.0  0.08137  0.28944  0.11500  1.0000
  H   H34       1.0  0.13600  0.11604  0.99241  1.0000
  C   C46       1.0  0.11059  0.29046  0.00615  1.0000
  C   C47       1.0  0.15469  0.30618  0.32852  1.0000
  C   C48       1.0  0.41040  0.99352  0.47549  1.0000
  H   H35       1.0  0.17985  0.29329  0.32514  1.0000
  H   H36       1.0  0.15780  0.15845  0.98928  1.0000
  C   C49       1.0  0.24057  0.31616  0.25187  1.0000
  H   H37       1.0  0.04986  0.31429  0.24099  1.0000
  S   S6        1.0  0.46270  0.22545  0.34256  1.0000
  H   H38       1.0  0.44584  0.17480  0.31864  1.0000
  H   H39       1.0  0.37981  0.29257  0.04271  1.0000
  C   C50       1.0  0.44059  0.02237  0.10833  1.0000
  C   C51       1.0  0.45919  0.15483  0.37468  1.0000
  P   P1        1.0  0.45204  0.07183  0.10396  1.0000
  H   H40       1.0  0.46332  0.06287  0.24887  1.0000
  C   C52       1.0  0.26672  0.29635  0.03802  1.0000
  H   H41       1.0  0.26160  0.07415  0.01049  1.0000
  Fe  Fe3       1.0  0.45079  0.23280  0.27488  1.0000
  C   C53       1.0  0.46226  0.07526  0.22458  1.0000
  H   H42       1.0  0.44953  0.13779  0.35955  1.0000
  H   H43       1.0  0.45843  0.04739  0.18113  1.0000
  C   C54       1.0  0.45805  0.08256  0.15452  1.0000
  C   C55       1.0  0.45959  0.06654  0.18609  1.0000
  C   C56       1.0  0.45712  0.17580  0.35135  1.0000
  H   H44       1.0  0.46057  0.13525  0.20545  1.0000
  C   C57       1.0  0.32220  0.29330  0.98751  1.0000
  Fe  Fe4       1.0  0.39449  0.11514  0.93206  1.0000
  S   S7        1.0  0.33684  0.09235  0.93912  1.0000
  Fe  Fe5       1.0  0.39211  0.09048  0.85133  1.0000
  S   S8        1.0  0.33363  0.06648  0.85448  1.0000
  C   C58       1.0  0.27080  0.19836  0.86058  1.0000
  Fe  Fe6       1.0  0.30198  0.09965  0.87258  1.0000
  S   S9        1.0  0.22312  0.10607  0.84904  1.0000
  Fe  Fe7       1.0  0.37354  0.06096  0.92057  1.0000
  S   S10       1.0  0.37550  0.02334  0.95015  1.0000
  S   S11       1.0  0.35820  0.12394  0.86618  1.0000
  S   S12       1.0  0.43342  0.08353  0.91695  1.0000
  Fe  Fe8       1.0  0.01145  0.20532  0.73971  1.0000
  C   C59       1.0  0.09544  0.27836  0.86359  1.0000
  S   S13       1.0  0.08784  0.19247  0.76194  1.0000
  C   C60       1.0  0.15939  0.28299  0.92590  1.0000
  C   C61       1.0  0.38600  0.07686  0.59319  1.0000
  S   S14       1.0  0.00662  0.24385  0.71808  1.0000
  H   H45       1.0  0.43050  0.02960  0.49771  1.0000
  C   C62       1.0  0.42739  0.11748  0.74549  1.0000
  H   H46       1.0  0.34385  0.29246  0.96798  1.0000
  H   H47       1.0  0.41174  0.12927  0.76217  1.0000
  P   P2        1.0  0.18364  0.29715  0.97484  1.0000
  C   C63       1.0  0.12450  0.16830  0.78715  1.0000
  C   C64       1.0  0.17227  0.16969  0.79250  1.0000
  C   C65       1.0  0.20299  0.15114  0.81197  1.0000
  C   C66       1.0  0.18640  0.13077  0.82633  1.0000
  C   C67       1.0  0.13861  0.12938  0.82109  1.0000
  C   C68       1.0  0.10788  0.14796  0.80169  1.0000
  H   H48       1.0  0.18557  0.18521  0.78120  1.0000
  H   H49       1.0  0.23946  0.15245  0.81552  1.0000
  H   H50       1.0  0.12514  0.11369  0.83182  1.0000
  H   H51       1.0  0.07132  0.14644  0.79781  1.0000
  C   C69       1.0  0.07979  0.21838  0.90184  1.0000
  C   C70       1.0  0.28449  0.17061  0.75752  1.0000
  C   C71       1.0  0.09325  0.19962  0.88123  1.0000
  C   C72       1.0  0.20932  0.07298  0.60740  1.0000
  H   H52       1.0  0.26052  0.22939  0.98318  1.0000
  C   C73       1.0  0.18322  0.26461  0.91297  1.0000
  C   C74       1.0  0.44085  0.02929  0.64370  1.0000
  H   H53       1.0  0.04646  0.22699  0.88875  1.0000
  C   C75       1.0  0.15292  0.15157  0.65566  1.0000
  P   P3        1.0  0.22250  0.18214  0.95575  1.0000
  H   H54       1.0  0.33588  0.10843  0.50688  1.0000
  C   C76       1.0  0.31807  0.19378  0.87680  1.0000
  C   C77       1.0  0.20885  0.15093  0.95918  1.0000
  C   C78       1.0  0.10936  0.22606  0.93923  1.0000
  C   C79       1.0  0.34362  0.09341  0.52775  1.0000
  C   C80       1.0  0.23071  0.13280  0.94375  1.0000
  P   P4        1.0  0.37969  0.02938  0.61663  1.0000
  C   C81       1.0  0.34988  0.03381  0.65391  1.0000
  C   C82       1.0  0.36611  0.05426  0.58136  1.0000
  C   C83       1.0  0.33562  0.05138  0.54185  1.0000
  C   C84       1.0  0.46263  0.00055  0.97677  1.0000
  C   C85       1.0  0.45320  0.99392  0.85535  1.0000
  C   C86       1.0  0.31161  0.04006  0.71732  1.0000
  C   C87       1.0  0.33263  0.05931  0.70437  1.0000
  C   C88       1.0  0.35158  0.05625  0.67286  1.0000
  H   H55       1.0  0.39003  0.11373  0.57621  1.0000
  C   C89       1.0  0.21825  0.10881  0.94581  1.0000
  C   C90       1.0  0.12500  0.17847  0.59816  1.0000
  C   C91       1.0  0.37407  0.09641  0.56681  1.0000
  C   C92       1.0  0.16709  0.19685  0.93467  1.0000
  H   H56       1.0  0.42990  0.14463  0.70181  1.0000
  H   H57       1.0  0.32085  0.03412  0.53101  1.0000
  H   H58       1.0  0.19406  0.05582  0.59605  1.0000
  H   H59       1.0  0.29774  0.04248  0.74231  1.0000
  H   H60       1.0  0.29074  0.00518  0.58061  1.0000
  H   H61       1.0  0.09860  0.24049  0.95527  1.0000
  H   H62       1.0  0.33582  0.07647  0.71972  1.0000
  H   H63       1.0  0.36907  0.07132  0.66474  1.0000
  C   C93       1.0  0.45990  0.11160  0.68941  1.0000
  H   H64       1.0  0.07513  0.19177  0.67087  1.0000
  C   C94       1.0  0.41538  0.99954  0.97262  1.0000
  H   H65       1.0  0.27263  0.10312  0.72926  1.0000
  H   H66       1.0  0.14570  0.17371  0.88190  1.0000
  H   H67       1.0  0.07506  0.20505  0.60270  1.0000
  S   S15       1.0  0.42256  0.08087  0.79984  1.0000
  C   C95       1.0  0.14372  0.08336  0.75676  1.0000
  C   C96       1.0  0.09705  0.08009  0.73527  1.0000
  C   C97       1.0  0.07833  0.09062  0.69718  1.0000
  C   C98       1.0  0.10623  0.10454  0.68072  1.0000
  C   C99       1.0  0.15303  0.10831  0.70252  1.0000
  C   C100      1.0  0.17165  0.09742  0.74055  1.0000
  P   P5        1.0  0.18824  0.12665  0.68084  1.0000
  C   C101      1.0  0.20989  0.10919  0.64665  1.0000
  C   C102      1.0  0.19015  0.08699  0.63165  1.0000
  C   C103      1.0  0.09680  0.18269  0.65575  1.0000
  C   C104      1.0  0.24832  0.08099  0.59806  1.0000
  C   C105      1.0  0.26804  0.10309  0.61272  1.0000
  C   C106      1.0  0.24885  0.11719  0.63677  1.0000
  C   C107      1.0  0.23863  0.13775  0.71948  1.0000
  C   C108      1.0  0.24342  0.16218  0.72994  1.0000
  H   H68       1.0  0.26339  0.07008  0.57955  1.0000
  C   C109      1.0  0.32096  0.15476  0.77467  1.0000
  H   H69       1.0  0.15815  0.07559  0.78667  1.0000
  H   H70       1.0  0.07531  0.06966  0.74840  1.0000
  H   H71       1.0  0.04201  0.08829  0.68067  1.0000
  H   H72       1.0  0.09105  0.11269  0.65126  1.0000
  H   H73       1.0  0.20725  0.10017  0.75851  1.0000
  H   H74       1.0  0.12408  0.15795  0.70456  1.0000
  H   H75       1.0  0.16034  0.08030  0.63895  1.0000
  C   C110      1.0  0.33607  0.18559  0.91656  1.0000
  H   H76       1.0  0.29850  0.10923  0.60573  1.0000
  H   H77       1.0  0.26491  0.13418  0.64819  1.0000
  H   H78       1.0  0.21582  0.17482  0.71691  1.0000
  H   H79       1.0  0.43310  0.01852  0.70130  1.0000
  H   H80       1.0  0.18222  0.23969  0.86512  1.0000
  H   H81       1.0  0.07035  0.19360  0.85219  1.0000
  C   C111      1.0  0.43738  0.09367  0.75809  1.0000
  C   C112      1.0  0.27541  0.12199  0.73701  1.0000
  C   C113      1.0  0.36398  0.00149  0.58899  1.0000
  C   C114      1.0  0.12463  0.16347  0.67479  1.0000
  C   C115      1.0  0.27406  0.29451  0.97067  1.0000
  H   H82       1.0  0.25670  0.20456  0.82963  1.0000
  C   C116      1.0  0.97987  0.30624  0.92152  1.0000
  C   C117      1.0  0.43814  0.12624  0.71125  1.0000
  H   H83       1.0  0.17446  0.15039  0.60177  1.0000
  C   C118      1.0  0.13630  0.18860  0.89792  1.0000
  C   C119      1.0  0.41333  0.99547  0.86704  1.0000
  C   C120      1.0  0.31628  0.13045  0.76445  1.0000
  C   C121      1.0  0.15301  0.15922  0.61719  1.0000
  C   C122      1.0  0.09688  0.19017  0.61741  1.0000
  H   H84       1.0  0.43351  0.99295  0.58825  1.0000
  H   H85       1.0  0.41149  0.07941  0.62251  1.0000
  H   H86       1.0  0.12499  0.18432  0.56843  1.0000
  C   C123      1.0  0.24143  0.19459  0.88398  1.0000
  C   C124      1.0  0.31745  0.99434  0.57460  1.0000
  C   C125      1.0  0.30687  0.18169  0.94006  1.0000
  H   H87       1.0  0.35283  0.16122  0.79602  1.0000
  C   C126      1.0  0.30989  0.01762  0.69894  1.0000
  H   H88       1.0  0.34434  0.11804  0.77786  1.0000
  C   C127      1.0  0.16377  0.25375  0.87516  1.0000
  H   H89       1.0  0.34083  0.19643  0.85862  1.0000
  C   C128      1.0  0.15283  0.21531  0.95567  1.0000
  H   H90       1.0  0.21636  0.25831  0.93215  1.0000
  H   H91       1.0  0.39479  0.01235  0.86443  1.0000
  C   C129      1.0  0.32460  0.07087  0.51519  1.0000
  H   H92       1.0  0.20506  0.19803  0.87026  1.0000
  S   S16       1.0  0.42874  0.14625  0.97412  1.0000
  H   H93       1.0  0.23442  0.09492  0.93296  1.0000
  H   H94       1.0  0.37279  0.18216  0.92918  1.0000
  H   H95       1.0  0.06123  0.28347  0.84452  1.0000
  C   C130      1.0  0.32941  0.01440  0.66770  1.0000
  H   H96       1.0  0.28803  0.18943  0.76554  1.0000
  C   C131      1.0  0.17505  0.14469  0.97721  1.0000
  C   C132      1.0  0.25919  0.18623  0.92401  1.0000
  H   H97       1.0  0.10459  0.25197  0.82134  1.0000
  H   H98       1.0  0.25651  0.13703  0.92924  1.0000
  C   C133      1.0  0.11996  0.26065  0.85043  1.0000
  C   C134      1.0  0.11475  0.28934  0.90130  1.0000
  C   C135      1.0  0.45920  0.07905  0.73628  1.0000
  H   H99       1.0  0.17386  0.08420  0.96377  1.0000
  C   C136      1.0  0.45695  0.02261  0.68475  1.0000
  H   H100      1.0  0.17483  0.22130  0.98480  1.0000
  C   C137      1.0  0.18404  0.10277  0.96313  1.0000
  C   C138      1.0  0.39758  0.98760  0.57911  1.0000
  H   H101      1.0  0.09463  0.30272  0.91117  1.0000
  H   H102      1.0  0.29430  0.00262  0.70958  1.0000
  C   C139      1.0  0.16266  0.12069  0.97910  1.0000
  H   H103      1.0  0.32173  0.17509  0.97075  1.0000
  C   C140      1.0  0.44202  0.01130  0.49664  1.0000
  H   H104      1.0  0.46161  0.03916  0.59145  1.0000
  H   H105      1.0  0.32950  0.99663  0.65528  1.0000
  H   H106      1.0  0.97273  0.28643  0.62298  1.0000
  S   S17       1.0  0.98295  0.31382  0.97235  1.0000
  C   C141      1.0  0.97296  0.28209  0.90904  1.0000
  C   C142      1.0  0.97009  0.29258  0.84012  1.0000
  H   H107      1.0  0.25906  0.29526  0.93807  1.0000
  C   C143      1.0  0.97777  0.31667  0.85276  1.0000
  H   H108      1.0  0.97063  0.26857  0.93062  1.0000
  C   C144      1.0  0.96834  0.27526  0.86874  1.0000
  H   H109      1.0  0.06088  0.38819  0.46831  1.0000
  C   C145      1.0  0.10922  0.32200  0.36911  1.0000
  S   S18       1.0  0.04693  0.39753  0.09255  1.0000
  C   C146      1.0  0.03416  0.47347  0.33030  1.0000
  Fe  Fe9       1.0  0.00204  0.34788  0.01149  1.0000
  S   S19       1.0  0.05960  0.37309  0.01137  1.0000
  Fe  Fe10      1.0  0.08644  0.36585  0.07856  1.0000
  S   S20       1.0  0.16440  0.36108  0.11300  1.0000
  Fe  Fe11      1.0  0.01499  0.40266  0.02503  1.0000
  H   H110      1.0  0.97029  0.44910  0.45342  1.0000
  S   S21       1.0  0.03008  0.33989  0.07868  1.0000
  C   C147      1.0  0.10209  0.49847  0.35732  1.0000
  C   C148      1.0  0.20645  0.33737  0.12787  1.0000
  Fe  Fe12      1.0  0.98882  0.37177  0.08836  1.0000
  C   C149      1.0  0.25252  0.34324  0.14967  1.0000
  H   H111      1.0  0.97381  0.49187  0.29174  1.0000
  H   H112      1.0  0.26154  0.36182  0.15697  1.0000
  H   H113      1.0  0.97219  0.50664  0.05725  1.0000
  H   H114      1.0  0.13550  0.39655  0.16679  1.0000
  C   C150      1.0  0.06688  0.40645  0.25328  1.0000
  H   H115      1.0  0.03903  0.45719  0.41106  1.0000
  C   C151      1.0  0.03680  0.41052  0.21431  1.0000
  C   C152      1.0  0.08087  0.47597  0.35317  1.0000
  H   H116      1.0  0.04315  0.40217  0.18829  1.0000
  H   H117      1.0  0.08149  0.47222  0.20682  1.0000
  H   H118      1.0  0.98295  0.64370  0.35400  1.0000
  H   H119      1.0  0.20419  0.36092  0.30318  1.0000
  H   H120      1.0  0.16998  0.37615  0.03399  1.0000
  H   H121      1.0  0.32245  0.33040  0.17835  1.0000
  C   C153      1.0  0.98900  0.43549  0.24227  1.0000
  C   C154      1.0  0.01825  0.43088  0.28164  1.0000
  C   C155      1.0  0.05321  0.42398  0.44363  1.0000
  H   H122      1.0  0.01149  0.53157  0.29964  1.0000
  C   C156      1.0  0.05785  0.41668  0.28686  1.0000
  C   C157      1.0  0.15977  0.35470  0.24194  1.0000
  S   S22       1.0  0.01209  0.44106  0.99817  1.0000
  H   H123      1.0  0.08170  0.41344  0.31680  1.0000
  C   C158      1.0  0.03957  0.38782  0.40308  1.0000
  H   H124      1.0  0.18099  0.33239  0.03631  1.0000
  H   H125      1.0  0.06587  0.45135  0.08413  1.0000
  C   C159      1.0  0.04067  0.43787  0.40836  1.0000
  H   H126      1.0  0.18650  0.42099  0.22249  1.0000
  C   C160      1.0  0.00953  0.49354  0.31032  1.0000
  C   C161      1.0  0.17856  0.40266  0.22817  1.0000
  C   C162      1.0  0.17408  0.34160  0.00758  1.0000
  C   C163      1.0  0.05128  0.45834  0.10669  1.0000
  C   C164      1.0  0.07901  0.46100  0.14685  1.0000
  H   H127      1.0  0.06173  0.43261  0.47302  1.0000
  H   H128      1.0  0.22069  0.40308  0.29076  1.0000
  C   C165      1.0  0.98521  0.48490  0.47917  1.0000
  H   H129      1.0  0.01487  0.39276  0.33872  1.0000
  P   P6        1.0  0.00674  0.44450  0.32477  1.0000
  H   H130      1.0  0.11518  0.45596  0.15551  1.0000
  H   H131      1.0  0.00706  0.35405  0.19855  1.0000
  C   C166      1.0  0.14013  0.36506  0.20362  1.0000
  C   C167      1.0  0.00444  0.46443  0.09539  1.0000
  C   C168      1.0  0.99788  0.42503  0.20883  1.0000
  C   C169      1.0  0.02864  0.42680  0.37015  1.0000
  H   H132      1.0  0.10083  0.46059  0.36801  1.0000
  C   C170      1.0  0.06002  0.47018  0.17564  1.0000
  H   H133      1.0  0.03682  0.36845  0.40101  1.0000
  C   C171      1.0  0.03084  0.51602  0.31450  1.0000
  H   H134      1.0  0.24366  0.33535  0.24923  1.0000
  C   C172      1.0  0.14961  0.38895  0.19683  1.0000
  C   C173      1.0  0.28729  0.32540  0.16194  1.0000
  H   H135      1.0  0.97432  0.42783  0.17857  1.0000
  C   C174      1.0  0.07703  0.51851  0.33818  1.0000
  C   C175      1.0  0.18847  0.36866  0.27346  1.0000
  H   H136      1.0  0.13792  0.50041  0.37563  1.0000
  C   C176      1.0  0.98505  0.47383  0.12393  1.0000
  C   C177      1.0  0.05272  0.39896  0.44101  1.0000
  H   H137      1.0  0.11834  0.35471  0.17856  1.0000
  C   C178      1.0  0.02716  0.40168  0.36779  1.0000
  C   C179      1.0  0.97641  0.35627  0.24713  1.0000
  H   H138      1.0  0.00459  0.34698  0.26864  1.0000
  C   C180      1.0  0.01332  0.47677  0.16422  1.0000
  C   C181      1.0  0.16810  0.36648  0.00642  1.0000
  C   C182      1.0  0.19786  0.39254  0.26654  1.0000
  H   H139      1.0  0.08746  0.35307  0.28113  1.0000
  H   H140      1.0  0.09338  0.53598  0.34177  1.0000
  H   H141      1.0  0.09695  0.39518  0.25747  1.0000
  C   C183      1.0  0.10311  0.33987  0.30419  1.0000
  H   H142      1.0  0.99167  0.63166  0.42497  1.0000
  H   H143      1.0  0.98336  0.46192  0.06423  1.0000
  C   C184      1.0  0.08991  0.33912  0.33928  1.0000
  H   H144      1.0  0.99963  0.48394  0.18704  1.0000
  H   H145      1.0  0.06406  0.35155  0.34300  1.0000
  C   C185      1.0  0.97775  0.36011  0.20729  1.0000
  C   C186      1.0  0.98236  0.64993  0.41527  1.0000
  H   H146      1.0  0.09871  0.32131  0.39620  1.0000
  C   C187      1.0  0.13515  0.32322  0.29827  1.0000
  P   P7        1.0  0.14909  0.32376  0.25135  1.0000
  Fe  Fe13      1.0  0.08631  0.60454  0.59572  1.0000
  S   S23       1.0  0.03195  0.63129  0.59805  1.0000
  S   S24       1.0  0.16541  0.61078  0.62312  1.0000
  Fe  Fe14      1.0  0.01203  0.56866  0.54274  1.0000
  C   C188      1.0  0.37397  0.61061  0.87998  1.0000
  C   C189      1.0  0.40839  0.60544  0.95272  1.0000
  Fe  Fe15      1.0  0.99986  0.62400  0.53105  1.0000
  H   H147      1.0  0.00328  0.58369  0.90411  1.0000
  C   C190      1.0  0.98349  0.53912  0.70488  1.0000
  S   S25       1.0  0.05600  0.59828  0.52824  1.0000
  S   S26       1.0  0.04703  0.57300  0.61041  1.0000
  C   C191      1.0  0.10283  0.62008  0.78235  1.0000
  Fe  Fe16      1.0  0.99075  0.59979  0.60917  1.0000
  H   H148      1.0  0.40778  0.63877  0.92165  1.0000
  C   C192      1.0  0.02744  0.51653  0.88946  1.0000
  H   H149      1.0  0.01609  0.60356  0.72979  1.0000
  S   S27       1.0  0.00687  0.53062  0.51277  1.0000
  C   C193      1.0  0.96905  0.43040  0.84264  1.0000
  H   H150      1.0  0.21751  0.58853  0.70571  1.0000
  H   H151      1.0  0.06981  0.56327  0.95330  1.0000
  C   C194      1.0  0.25168  0.63130  0.65716  1.0000
  C   C195      1.0  0.32480  0.59779  0.77229  1.0000
  C   C196      1.0  0.35583  0.63009  0.60897  1.0000
  C   C197      1.0  0.16419  0.34149  0.93562  1.0000
  C   C198      1.0  0.04750  0.55338  0.92788  1.0000
  H   H152      1.0  0.37093  0.64526  0.75902  1.0000
  H   H153      1.0  0.97347  0.41131  0.84858  1.0000
  C   C199      1.0  0.05630  0.52921  0.92240  1.0000
  C   C200      1.0  0.20377  0.63373  0.65072  1.0000
  C   C201      1.0  0.98288  0.32347  0.89316  1.0000
  H   H154      1.0  0.29772  0.57315  0.72265  1.0000
  C   C202      1.0  0.28977  0.58750  0.74049  1.0000
  C   C203      1.0  0.11202  0.60373  0.70911  1.0000
  C   C204      1.0  0.12128  0.58826  0.74227  1.0000
  C   C205      1.0  0.11688  0.59646  0.77894  1.0000
  C   C206      1.0  0.28384  0.64796  0.68103  1.0000
  P   P8        1.0  0.36042  0.62985  0.83594  1.0000
  C   C207      1.0  0.98048  0.60590  0.77498  1.0000
  H   H155      1.0  0.26057  0.64036  0.80108  1.0000
  H   H156      1.0  0.09913  0.62594  0.81085  1.0000
  C   C208      1.0  0.23439  0.61505  0.75317  1.0000
  C   C209      1.0  0.24451  0.59607  0.73105  1.0000
  H   H157      1.0  0.11597  0.59749  0.68080  1.0000
  H   H158      1.0  0.13186  0.56994  0.73943  1.0000
  H   H159      1.0  0.12380  0.58443  0.80461  1.0000
  C   C210      1.0  0.44295  0.64204  0.76482  1.0000
  C   C211      1.0  0.39760  0.62007  0.91834  1.0000
  H   H160      1.0  0.99728  0.64365  0.69122  1.0000
  C   C212      1.0  0.98307  0.60344  0.73517  1.0000
  H   H161      1.0  0.26416  0.61603  0.64435  1.0000
  H   H162      1.0  0.30180  0.64388  0.88504  1.0000
  C   C213      1.0  0.41047  0.63261  0.81870  1.0000
  H   H163      1.0  0.19968  0.62216  0.74479  1.0000
  C   C214      1.0  0.17148  0.32887  0.97207  1.0000
  H   H164      1.0  0.09143  0.63904  0.68639  1.0000
  C   C215      1.0  0.09809  0.62735  0.71243  1.0000
  H   H165      1.0  0.03565  0.49801  0.88526  1.0000
  H   H166      1.0  0.98819  0.34209  0.90214  1.0000
  C   C216      1.0  0.98862  0.52777  0.86248  1.0000
  H   H167      1.0  0.37880  0.61563  0.62358  1.0000
  H   H168      1.0  0.43851  0.64798  0.73416  1.0000
  H   H169      1.0  0.02852  0.54075  0.80730  1.0000
  H   H170      1.0  0.01186  0.60829  0.79996  1.0000
  C   C217      1.0  0.40484  0.64045  0.77904  1.0000
  H   H171      1.0  0.30094  0.60651  0.57617  1.0000
  C   C218      1.0  0.31471  0.61670  0.79503  1.0000
  H   H172      1.0  0.34320  0.57842  0.84759  1.0000
  H   H173      1.0  0.32042  0.64532  0.68620  1.0000
  C   C219      1.0  0.00983  0.56483  0.90044  1.0000
  C   C220      1.0  0.39576  0.58127  0.94908  1.0000
  H   H174      1.0  0.04243  0.55652  0.74597  1.0000
  C   C221      1.0  0.09251  0.63560  0.74885  1.0000
  C   C222      1.0  0.31207  0.62497  0.58222  1.0000
  H   H175      1.0  0.35980  0.59106  0.77899  1.0000
  H   H176      1.0  0.36255  0.55294  0.90825  1.0000
  C   C223      1.0  0.36142  0.58628  0.87660  1.0000
  C   C224      1.0  0.98013  0.55202  0.86821  1.0000
  H   H177      1.0  0.24922  0.63917  0.54192  1.0000
  C   C225      1.0  0.26923  0.62539  0.78502  1.0000
  H   H178      1.0  0.08552  0.52028  0.94362  1.0000
  H   H179      1.0  0.40413  0.56992  0.97573  1.0000
  C   C226      1.0  0.15725  0.36633  0.93442  1.0000
  C   C227      1.0  0.37232  0.57170  0.91105  1.0000
  H   H180      1.0  0.15068  0.37594  0.90610  1.0000
  H   H181      1.0  0.16395  0.33226  0.90814  1.0000
  H   H182      1.0  0.97948  0.33024  0.83104  1.0000
  C   C228      1.0  0.28255  0.64363  0.56316  1.0000
  C   C229      1.0  0.01363  0.54459  0.74323  1.0000
  C   C230      1.0  0.15906  0.37882  0.96980  1.0000
  C   C231      1.0  0.00546  0.53559  0.77797  1.0000
  H   H183      1.0  0.97730  0.32333  0.58428  1.0000
  H   H184      1.0  0.98894  0.54684  0.67805  1.0000
  C   C232      1.0  0.98307  0.48759  0.97419  1.0000
  H   H185      1.0  0.46063  0.62094  0.87493  1.0000
  H   H186      1.0  0.15353  0.39804  0.96895  1.0000
  H   H187      1.0  0.02224  0.48282  0.48644  1.0000
  H   H188      1.0  0.01947  0.49128  0.98026  1.0000
  C   C233      1.0  0.96742  0.50674  0.48899  1.0000
  C   C234      1.0  0.96912  0.46420  0.98070  1.0000
  C   C235      1.0  0.96689  0.52094  0.77453  1.0000
  H   H189      1.0  0.97479  0.42776  0.78254  1.0000
  C   C236      1.0  0.96979  0.43970  0.80548  1.0000
  C   C237      1.0  0.45504  0.62695  0.84423  1.0000
  H   H190      1.0  0.96568  0.47112  0.76918  1.0000
  H   H191      1.0  0.42652  0.61285  0.98223  1.0000
  C   C238      1.0  0.96441  0.46438  0.79796  1.0000
  H   H192      1.0  0.12463  0.64962  0.56377  1.0000
  Fe  Fe17      1.0  0.39696  0.85587  0.46687  1.0000
  S   S28       1.0  0.33898  0.88215  0.46019  1.0000
  Fe  Fe18      1.0  0.39963  0.86568  0.38034  1.0000
  S   S29       1.0  0.34194  0.89282  0.36872  1.0000
  C   C239      1.0  0.42434  0.96950  0.47336  1.0000
  Fe  Fe19      1.0  0.37856  0.90705  0.43180  1.0000
  S   S30       1.0  0.38202  0.94767  0.44716  1.0000
  Fe  Fe20      1.0  0.30691  0.86568  0.39813  1.0000
  S   S31       1.0  0.22811  0.85824  0.37820  1.0000
  S   S32       1.0  0.43817  0.88151  0.44141  1.0000
  S   S33       1.0  0.36306  0.83790  0.40702  1.0000
  H   H193      1.0  0.35701  0.82037  0.22550  1.0000
  S   S34       1.0  0.99905  0.72778  0.23868  1.0000
  H   H194      1.0  0.01277  0.82834  0.45506  1.0000
  Fe  Fe21      1.0  0.00330  0.76684  0.25745  1.0000
  S   S35       1.0  0.07896  0.78102  0.27635  1.0000
  C   C240      1.0  0.16707  0.82718  0.21946  1.0000
  C   C241      1.0  0.11995  0.80255  0.30540  1.0000
  C   C242      1.0  0.16751  0.79908  0.31100  1.0000
  C   C243      1.0  0.20114  0.81563  0.33332  1.0000
  C   C244      1.0  0.18773  0.83618  0.35015  1.0000
  C   C245      1.0  0.14024  0.83959  0.34461  1.0000
  C   C246      1.0  0.10669  0.82300  0.32247  1.0000
  H   H195      1.0  0.17843  0.78346  0.29785  1.0000
  H   H196      1.0  0.23739  0.81256  0.33731  1.0000
  H   H197      1.0  0.12917  0.85539  0.35721  1.0000
  H   H198      1.0  0.07049  0.82636  0.31792  1.0000
  S   S36       1.0  0.45256  0.87557  0.05219  1.0000
  H   H199      1.0  0.21169  0.83116  0.44334  1.0000
  H   H200      1.0  0.13888  0.73475  0.30704  1.0000
  C   C247      1.0  0.40849  0.87684  0.22148  1.0000
  C   C248      1.0  0.40737  0.87314  0.26144  1.0000
  H   H201      1.0  0.02824  0.73846  0.44752  1.0000
  H   H202      1.0  0.38098  0.88688  0.20037  1.0000
  H   H203      1.0  0.37941  0.88047  0.27089  1.0000
  C   C249      1.0  0.24717  0.88954  0.29030  1.0000
  C   C250      1.0  0.19280  0.80056  0.17558  1.0000
  C   C251      1.0  0.20231  0.81924  0.20420  1.0000
  C   C252      1.0  0.33632  0.82493  0.19505  1.0000
  C   C253      1.0  0.26114  0.86118  0.24221  1.0000
  H   H204      1.0  0.06713  0.79435  0.47664  1.0000
  H   H205      1.0  0.33863  0.71761  0.42322  1.0000
  H   H206      1.0  0.23715  0.89303  0.31715  1.0000
  C   C254      1.0  0.07732  0.71935  0.38623  1.0000
  C   C255      1.0  0.12397  0.67955  0.47839  1.0000
  H   H207      1.0  0.22768  0.84135  0.13776  1.0000
  P   P9        1.0  0.10776  0.76138  0.43171  1.0000
  C   C256      1.0  0.27357  0.88038  0.22149  1.0000
  H   H208      1.0  0.08054  0.78952  0.16882  1.0000
  H   H209      1.0  0.05415  0.68741  0.35074  1.0000
  H   H210      1.0  0.28299  0.91860  0.21948  1.0000
  C   C257      1.0  0.09723  0.70896  0.32597  1.0000
  C   C258      1.0  0.44229  0.85981  0.28893  1.0000
  S   S37       1.0  0.44303  0.87190  0.15711  1.0000
  H   H211      1.0  0.05233  0.77909  0.35137  1.0000
  C   C259      1.0  0.25930  0.90853  0.26947  1.0000
  C   C260      1.0  0.33352  0.83349  0.12598  1.0000
  H   H212      1.0  0.39527  0.82336  0.17318  1.0000
  S   S38       1.0  0.45009  0.81489  0.98975  1.0000
  C   C261      1.0  0.35898  0.80467  0.32486  1.0000
  C   C262      1.0  0.12296  0.73000  0.32989  1.0000
  C   C263      1.0  0.20387  0.76198  0.45094  1.0000
  H   H213      1.0  0.25876  0.92674  0.28024  1.0000
  C   C264      1.0  0.45428  0.93239  0.11608  1.0000
  C   C265      1.0  0.44030  0.93198  0.33875  1.0000
  C   C266      1.0  0.05146  0.79790  0.44463  1.0000
  C   C267      1.0  0.26763  0.68967  0.46792  1.0000
  C   C268      1.0  0.07474  0.70357  0.35429  1.0000
  H   H214      1.0  0.17313  0.84105  0.24220  1.0000
  H   H215      1.0  0.38415  0.92531  0.07994  1.0000
  H   H216      1.0  0.14527  0.76220  0.36374  1.0000
  C   C269      1.0  0.42789  0.95884  0.00224  1.0000
  H   H217      1.0  0.27487  0.68789  0.40817  1.0000
  C   C270      1.0  0.33388  0.81954  0.29327  1.0000
  C   C271      1.0  0.04328  0.78926  0.37439  1.0000
  C   C272      1.0  0.28627  0.83844  0.11605  1.0000
  C   C273      1.0  0.01242  0.80847  0.36239  1.0000
  C   C274      1.0  0.20960  0.81187  0.44629  1.0000
  C   C275      1.0  0.40694  0.92988  0.10978  1.0000
  C   C276      1.0  0.29800  0.77515  0.30573  1.0000
  C   C277      1.0  0.27288  0.90392  0.23528  1.0000
  C   C278      1.0  0.26400  0.83673  0.14564  1.0000
  H   H218      1.0  0.24038  0.78336  0.25386  1.0000
  H   H219      1.0  0.10090  0.68362  0.44851  1.0000
  C   C279      1.0  0.12628  0.74564  0.36215  1.0000
  H   H220      1.0  0.39243  0.81043  0.34457  1.0000
  C   C280      1.0  0.44600  0.95604  0.28248  1.0000
  C   C281      1.0  0.06287  0.78376  0.41559  1.0000
  C   C282      1.0  0.96467  0.68042  0.36141  1.0000
  H   H221      1.0  0.35279  0.92989  0.13747  1.0000
  C   C283      1.0  0.14889  0.79009  0.16247  1.0000
  C   C284      1.0  0.28879  0.82985  0.18540  1.0000
  C   C285      1.0  0.12333  0.81659  0.20641  1.0000
  C   C286      1.0  0.35837  0.82660  0.16535  1.0000
  C   C287      1.0  0.10361  0.74045  0.39077  1.0000
  H   H222      1.0  0.21963  0.79363  0.16416  1.0000
  H   H223      1.0  0.35128  0.83546  0.10349  1.0000
  H   H224      1.0  0.24128  0.85145  0.29480  1.0000
  C   C288      1.0  0.00171  0.82266  0.39142  1.0000
  H   H225      1.0  0.13631  0.81231  0.43288  1.0000
  C   C289      1.0  0.05792  0.73656  0.47440  1.0000
  C   C290      1.0  0.32318  0.71278  0.44635  1.0000
  H   H226      1.0  0.09358  0.69716  0.30035  1.0000
  H   H227      1.0  0.09670  0.82231  0.21918  1.0000
  C   C291      1.0  0.38932  0.93252  0.14221  1.0000
  C   C292      1.0  0.24926  0.86595  0.27738  1.0000
  C   C293      1.0  0.41901  0.93766  0.18101  1.0000
  H   H228      1.0  0.28374  0.75812  0.31089  1.0000
  H   H229      1.0  0.20206  0.74260  0.45188  1.0000
  C   C294      1.0  0.34092  0.78260  0.33135  1.0000
  H   H230      1.0  0.05801  0.71500  0.40651  1.0000
  C   C295      1.0  0.27341  0.78964  0.27330  1.0000
  H   H231      1.0  0.18040  0.69972  0.47058  1.0000
  C   C296      1.0  0.28715  0.69613  0.43787  1.0000
  C   C297      1.0  0.11425  0.79801  0.17808  1.0000
  H   H232      1.0  0.26718  0.84406  0.08559  1.0000
  P   P10       1.0  0.26069  0.83067  0.22432  1.0000
  H   H233      1.0  0.40464  0.93890  0.20573  1.0000
  H   H234      1.0  0.40199  0.96452  0.31891  1.0000
  C   C298      1.0  0.29134  0.81194  0.26666  1.0000
  C   C299      1.0  0.97745  0.65684  0.37499  1.0000
  H   H235      1.0  0.28430  0.87736  0.19500  1.0000
  H   H236      1.0  0.34816  0.83681  0.28923  1.0000
  S   S39       1.0  0.44254  0.85371  0.33950  1.0000
  H   H237      1.0  0.14187  0.77550  0.14079  1.0000
  H   H238      1.0  0.36024  0.77138  0.35635  1.0000
  C   C300      1.0  0.16671  0.80100  0.44051  1.0000
  C   C301      1.0  0.16346  0.77593  0.44292  1.0000
  H   H239      1.0  0.42583  0.92895  0.36323  1.0000
  C   C302      1.0  0.44458  0.86746  0.20846  1.0000
  H   H240      1.0  0.99746  0.81257  0.33044  1.0000
  C   C303      1.0  0.24950  0.79789  0.45399  1.0000
  H   H241      1.0  0.28233  0.80643  0.45694  1.0000
  C   C304      1.0  0.97384  0.66646  0.44246  1.0000
  C   C305      1.0  0.24672  0.77297  0.45663  1.0000
  C   C306      1.0  0.02100  0.81729  0.43255  1.0000
  H   H242      1.0  0.41398  0.94293  0.01190  1.0000
  H   H243      1.0  0.97833  0.83777  0.38193  1.0000
  C   C307      1.0  0.42686  0.95201  0.31370  1.0000
  C   C308      1.0  0.10099  0.74620  0.47562  1.0000
  H   H244      1.0  0.27771  0.76221  0.46222  1.0000
  H   H245      1.0  0.24129  0.67592  0.46133  1.0000
  H   H246      1.0  0.43569  0.97183  0.26367  1.0000
  C   C309      1.0  0.34017  0.72273  0.48507  1.0000
  C   C310      1.0  0.39847  0.97852  0.98576  1.0000
  H   H247      1.0  0.42818  0.98426  0.10608  1.0000
  H   H248      1.0  0.27970  0.68337  0.90585  1.0000
  S   S40       1.0  0.37464  0.74399  0.72843  1.0000
  H   H249      1.0  0.07327  0.71009  0.70455  1.0000
  Fe  Fe22      1.0  0.37840  0.70397  0.73887  1.0000
  S   S41       1.0  0.30793  0.68672  0.73531  1.0000
  S   S42       1.0  0.38270  0.75001  0.62058  1.0000
  H   H250      1.0  0.41463  0.76104  0.87168  1.0000
  C   C311      1.0  0.42877  0.87597  0.93359  1.0000
  H   H251      1.0  0.38367  0.96782  0.72259  1.0000
  C   C312      1.0  0.24855  0.86849  0.53643  1.0000
  C   C313      1.0  0.29398  0.88767  0.59878  1.0000
  H   H252      1.0  0.15613  0.73996  0.81509  1.0000
  C   C314      1.0  0.29624  0.66764  0.57150  1.0000
  C   C315      1.0  0.39775  0.77500  0.59570  1.0000
  C   C316      1.0  0.36802  0.78179  0.55741  1.0000
  C   C317      1.0  0.37900  0.80125  0.53619  1.0000
  C   C318      1.0  0.41989  0.81409  0.55303  1.0000
  H   H253      1.0  0.08752  0.71397  0.78939  1.0000
  P   P11       1.0  0.39053  0.88363  0.63078  1.0000
  H   H254      1.0  0.33645  0.77189  0.54402  1.0000
  S   S43       1.0  0.43579  0.83850  0.52749  1.0000
  C   C319      1.0  0.44027  0.86198  0.70390  1.0000
  H   H255      1.0  0.32881  0.94447  0.52157  1.0000
  C   C320      1.0  0.26868  0.66728  0.69945  1.0000
  C   C321      1.0  0.30488  0.97363  0.55093  1.0000
  H   H256      1.0  0.24044  0.68646  0.78297  1.0000
  H   H257      1.0  0.20817  0.68544  0.70455  1.0000
  C   C322      1.0  0.19970  0.68200  0.52908  1.0000
  H   H258      1.0  0.38242  0.90857  0.55488  1.0000
  H   H259      1.0  0.02034  0.71562  0.50602  1.0000
  H   H260      1.0  0.26845  0.76861  0.65642  1.0000
  H   H261      1.0  0.21994  0.89091  0.57322  1.0000
  H   H262      1.0  0.16204  0.73015  0.57239  1.0000
  H   H263      1.0  0.41048  0.84839  0.84270  1.0000
  C   C323      1.0  0.33460  0.87781  0.59423  1.0000
  C   C324      1.0  0.12077  0.70772  0.78802  1.0000
  C   C325      1.0  0.43211  0.78440  0.92419  1.0000
  H   H264      1.0  0.41119  0.93901  0.90268  1.0000
  C   C326      1.0  0.38819  0.91052  0.65949  1.0000
  H   H265      1.0  0.36604  0.83201  0.62439  1.0000
  S   S44       1.0  0.44433  0.70707  0.79286  1.0000
  C   C327      1.0  0.40299  0.95312  0.67271  1.0000
  S   S45       1.0  0.97665  0.65848  0.49303  1.0000
  H   H266      1.0  0.26711  0.69324  0.63174  1.0000
  C   C328      1.0  0.26190  0.71635  0.58061  1.0000
  C   C329      1.0  0.22065  0.67023  0.69170  1.0000
  P   P12       1.0  0.25924  0.69189  0.54593  1.0000
  C   C330      1.0  0.04213  0.66723  0.78870  1.0000
  H   H267      1.0  0.27056  0.72642  0.67948  1.0000
  C   C331      1.0  0.04126  0.66863  0.85853  1.0000
  C   C332      1.0  0.26521  0.71152  0.62101  1.0000
  H   H268      1.0  0.38873  0.79864  0.67279  1.0000
  C   C333      1.0  0.31759  0.70350  0.87378  1.0000
  C   C334      1.0  0.42176  0.86198  0.86601  1.0000
  C   C335      1.0  0.12485  0.68513  0.77153  1.0000
  C   C336      1.0  0.33151  0.86297  0.56079  1.0000
  C   C337      1.0  0.15954  0.72248  0.80262  1.0000
  H   H269      1.0  0.35742  0.71860  0.83810  1.0000
  H   H270      1.0  0.10308  0.66968  0.84140  1.0000
  C   C338      1.0  0.43088  0.88822  0.60278  1.0000
  C   C339      1.0  0.34564  0.70228  0.84874  1.0000
  H   H271      1.0  0.17112  0.75234  0.51412  1.0000
  H   H272      1.0  0.26124  0.77748  0.58471  1.0000
  Fe  Fe23      1.0  0.41531  0.73686  0.68562  1.0000
  C   C340      1.0  0.42306  0.95395  0.88878  1.0000
  C   C341      1.0  0.00324  0.66107  0.68010  1.0000
  C   C342      1.0  0.33857  0.95999  0.54125  1.0000
  H   H273      1.0  0.35219  0.69103  0.60425  1.0000
  Fe  Fe24      1.0  0.44290  0.74653  0.77798  1.0000
  C   C343      1.0  0.99363  0.66574  0.77567  1.0000
  H   H274      1.0  0.26887  0.96848  0.53906  1.0000
  H   H275      1.0  0.20484  0.66441  0.58589  1.0000
  C   C344      1.0  0.20264  0.71476  0.80090  1.0000
  H   H276      1.0  0.41918  0.93407  0.62540  1.0000
  C   C345      1.0  0.01839  0.70535  0.64895  1.0000
  H   H277      1.0  0.28698  0.84721  0.50603  1.0000
  C   C346      1.0  0.13300  0.73195  0.54497  1.0000
  C   C347      1.0  0.16937  0.68823  0.49083  1.0000
  H   H278      1.0  0.35628  0.80621  0.50668  1.0000
  C   C348      1.0  0.09065  0.72147  0.54277  1.0000
  C   C349      1.0  0.04602  0.69826  0.68757  1.0000
  H   H279      1.0  0.35693  0.89266  0.69979  1.0000
  H   H280      1.0  0.35415  0.92907  0.73961  1.0000
  H   H281      1.0  0.23260  0.72629  0.81168  1.0000
  C   C350      1.0  0.16825  0.67754  0.76986  1.0000
  H   H282      1.0  0.30800  0.72082  0.88300  1.0000
  C   C351      1.0  0.26696  0.73032  0.64809  1.0000
  C   C352      1.0  0.13815  0.74432  0.51160  1.0000
  C   C353      1.0  0.25115  0.88306  0.56986  1.0000
  H   H283      1.0  0.36209  0.97737  0.98280  1.0000
  C   C354      1.0  0.38980  0.83551  0.65422  1.0000
  C   C355      1.0  0.45866  0.80398  0.94433  1.0000
  H   H284      1.0  0.39463  0.84326  0.90800  1.0000
  C   C356      1.0  0.20703  0.69227  0.78473  1.0000
  P   P13       1.0  0.07456  0.66618  0.75295  1.0000
  C   C357      1.0  0.35833  0.67999  0.83699  1.0000
  C   C358      1.0  0.31438  0.66008  0.87487  1.0000
  C   C359      1.0  0.28873  0.85836  0.53204  1.0000
  C   C360      1.0  0.32047  0.71646  0.51500  1.0000
  C   C361      1.0  0.38479  0.95188  0.70497  1.0000
  C   C362      1.0  0.05306  0.72391  0.50762  1.0000
  C   C363      1.0  0.18267  0.66872  0.55572  1.0000
  C   C364      1.0  0.38487  0.96689  0.55563  1.0000
  H   H285      1.0  0.40805  0.77598  0.93723  1.0000
  C   C365      1.0  0.36995  0.90945  0.69199  1.0000
  H   H286      1.0  0.05954  0.66936  0.89069  1.0000
  C   C366      1.0  0.43577  0.77586  0.88700  1.0000
  C   C367      1.0  0.28298  0.70048  0.50631  1.0000
  C   C368      1.0  0.41285  0.85903  0.90282  1.0000
  C   C369      1.0  0.26135  0.75906  0.59463  1.0000
  C   C370      1.0  0.43845  0.78797  0.61267  1.0000
  H   H287      1.0  0.29515  0.89906  0.62425  1.0000
  H   H288      1.0  0.33512  0.72386  0.54515  1.0000
  H   H289      1.0  0.41084  0.95666  0.54727  1.0000
  C   C371      1.0  0.25921  0.74027  0.56741  1.0000
  H   H290      1.0  0.25633  0.74449  0.53637  1.0000
  C   C372      1.0  0.26549  0.75409  0.63503  1.0000
  S   S46       1.0  0.41760  0.69685  0.69501  1.0000
  H   H291      1.0  0.36234  0.85513  0.55670  1.0000
  C   C373      1.0  0.34047  0.67264  0.59808  1.0000
  H   H292      1.0  0.02444  0.72241  0.63663  1.0000
  H   H293      1.0  0.08700  0.71127  0.56817  1.0000
  H   H294      1.0  0.21551  0.86515  0.51375  1.0000
  C   C374      1.0  0.03855  0.67604  0.70353  1.0000
  C   C375      1.0  0.41713  0.90143  0.56654  1.0000
  H   H295      1.0  0.97409  0.66593  0.86690  1.0000
  C   C376      1.0  0.06571  0.66881  0.83044  1.0000
  H   H296      1.0  0.42263  0.87329  0.96236  1.0000
  C   C377      1.0  0.36827  0.93005  0.71459  1.0000
  H   H297      1.0  0.45177  0.93361  0.79769  1.0000
  C   C378      1.0  0.46325  0.95220  0.87719  1.0000
  H   H298      1.0  0.37942  0.67943  0.81716  1.0000
  C   C379      1.0  0.30174  0.68240  0.88667  1.0000
  C   C380      1.0  0.40807  0.85854  0.66532  1.0000
  H   H299      1.0  0.17223  0.66045  0.75662  1.0000
  C   C381      1.0  0.10799  0.66552  0.50452  1.0000
  H   H300      1.0  0.97410  0.66400  0.74404  1.0000
  C   C382      1.0  0.43430  0.82007  0.72005  1.0000
  H   H301      1.0  0.43684  0.91517  0.51639  1.0000
  C   C383      1.0  0.44624  0.88205  0.85979  1.0000
  C   C384      1.0  0.98304  0.69039  0.62611  1.0000
  C   C385      1.0  0.37016  0.65389  0.61658  1.0000
  C   C386      1.0  0.40470  0.93257  0.65004  1.0000
  H   H302      1.0  0.36898  0.73517  0.49220  1.0000
  C   C387      1.0  0.44934  0.80745  0.59146  1.0000
  H   H303      1.0  0.44444  0.80517  0.74109  1.0000
  C   C388      1.0  0.44797  0.90531  0.54467  1.0000
  C   C389      1.0  0.40270  0.81643  0.68162  1.0000
  C   C390      1.0  0.99311  0.66692  0.84522  1.0000
  C   C391      1.0  0.97527  0.66835  0.64186  1.0000
  C   C392      1.0  0.45349  0.89598  0.92764  1.0000
  H   H304      1.0  0.41603  0.97001  0.66529  1.0000
  C   C393      1.0  0.45316  0.84282  0.73116  1.0000
  C   C394      1.0  0.13716  0.66037  0.54336  1.0000
  C   C395      1.0  0.18844  0.65374  0.66742  1.0000
  C   C396      1.0  0.34307  0.65873  0.85009  1.0000
  H   H305      1.0  0.07289  0.65874  0.49482  1.0000
  H   H306      1.0  0.15185  0.65632  0.66220  1.0000
  H   H307      1.0  0.45556  0.87941  0.71288  1.0000
  C   C397      1.0  0.39806  0.97544  0.88334  1.0000
  H   H308      1.0  0.46171  0.78290  0.64199  1.0000
  H   H309      1.0  0.40448  0.65780  0.63666  1.0000
  C   C398      1.0  0.96937  0.66563  0.80385  1.0000
  H   H310      1.0  0.36769  0.97693  0.89323  1.0000
  H   H311      1.0  0.45316  0.88376  0.83123  1.0000
  C   C399      1.0  0.46225  0.89925  0.89060  1.0000
  Fe  Fe25      1.0  0.50177  0.26056  0.22608  1.0000
  C   C400      1.0  0.73830  0.21284  0.46583  1.0000
  S   S47       1.0  0.57508  0.27621  0.23396  1.0000
  H   H312      1.0  0.72992  0.29000  0.13490  1.0000
  C   C401      1.0  0.70732  0.31562  0.17181  1.0000
  S   S48       1.0  0.50196  0.22148  0.24364  1.0000
  C   C402      1.0  0.85058  0.28236  0.29999  1.0000
  C   C403      1.0  0.60055  0.23319  0.33571  1.0000
  H   H313      1.0  0.81006  0.31133  0.44732  1.0000
  H   H314      1.0  0.87112  0.27157  0.32510  1.0000
  H   H315      1.0  0.55664  0.02239  0.31204  1.0000
  H   H316      1.0  0.53412  0.04859  0.09131  1.0000
  H   H317      1.0  0.64717  0.20896  0.31984  1.0000
  C   C404      1.0  0.49222  0.99263  0.09508  1.0000
  C   C405      1.0  0.79729  0.31060  0.23530  1.0000
  C   C406      1.0  0.55615  0.11413  0.09037  1.0000
  C   C407      1.0  0.59503  0.15825  0.42347  1.0000
  C   C408      1.0  0.51106  0.03484  0.09560  1.0000
  H   H318      1.0  0.89791  0.31212  0.31374  1.0000
  H   H319      1.0  0.55421  0.25366  0.35876  1.0000
  H   H320      1.0  0.72427  0.21881  0.43488  1.0000
  C   C409      1.0  0.63590  0.16525  0.45337  1.0000
  C   C410      1.0  0.66388  0.29394  0.27004  1.0000
  H   H321      1.0  0.54950  0.12900  0.39699  1.0000
  H   H322      1.0  0.46569  0.20179  0.09030  1.0000
  C   C411      1.0  0.62767  0.31084  0.17115  1.0000
  H   H323      1.0  0.57870  0.23437  0.42561  1.0000
  C   C412      1.0  0.54013  0.01429  0.21145  1.0000
  H   H324      1.0  0.56578  0.12728  0.03520  1.0000
  C   C413      1.0  0.55067  0.02594  0.24884  1.0000
  C   C414      1.0  0.46824  0.19810  0.37038  1.0000
  H   H325      1.0  0.58676  0.12288  0.10984  1.0000
  C   C415      1.0  0.65887  0.28444  0.13081  1.0000
  H   H326      1.0  0.58960  0.28198  0.13479  1.0000
  C   C416      1.0  0.80889  0.27355  0.27413  1.0000
  H   H327      1.0  0.57243  0.17144  0.40415  1.0000
  H   H328      1.0  0.53822  0.09862  0.13978  1.0000
  C   C417      1.0  0.48746  0.08988  0.08215  1.0000
  C   C418      1.0  0.58125  0.24016  0.36559  1.0000
  C   C419      1.0  0.58175  0.13417  0.41929  1.0000
  C   C420      1.0  0.69777  0.30950  0.29497  1.0000
  C   C421      1.0  0.59549  0.22916  0.40366  1.0000
  H   H329      1.0  0.58938  0.24180  0.30624  1.0000
  H   H330      1.0  0.75028  0.28024  0.22229  1.0000
  H   H331      1.0  0.67389  0.28102  0.25104  1.0000
  H   H332      1.0  0.80706  0.22467  0.46973  1.0000
  C   C422      1.0  0.62971  0.21122  0.41230  1.0000
  C   C423      1.0  0.48505  0.17796  0.43636  1.0000
  C   C424      1.0  0.61714  0.29504  0.26905  1.0000
  C   C425      1.0  0.70136  0.29631  0.14461  1.0000
  H   H333      1.0  0.56144  0.04456  0.25155  1.0000
  C   C426      1.0  0.54788  0.01347  0.28287  1.0000
  C   C427      1.0  0.54453  0.11654  0.04840  1.0000
  C   C428      1.0  0.64737  0.20357  0.38144  1.0000
  H   H334      1.0  0.79694  0.25590  0.27926  1.0000
  C   C429      1.0  0.63325  0.21473  0.34349  1.0000
  C   C430      1.0  0.47311  0.15573  0.41732  1.0000
  C   C431      1.0  0.62213  0.29162  0.14430  1.0000
  H   H335      1.0  0.59739  0.09840  0.44283  1.0000
  H   H336      1.0  0.67220  0.18902  0.38685  1.0000
  C   C432      1.0  0.78244  0.28751  0.24173  1.0000
  C   C433      1.0  0.46998  0.04085  0.10386  1.0000
  C   C434      1.0  0.52810  0.10060  0.10722  1.0000
  C   C435      1.0  0.52630  0.99026  0.20795  1.0000
  C   C436      1.0  0.50509  0.10528  0.02330  1.0000
  C   C437      1.0  0.60866  0.11691  0.44523  1.0000
  C   C438      1.0  0.47633  0.09217  0.03998  1.0000
  C   C439      1.0  0.86557  0.30525  0.29371  1.0000
  C   C440      1.0  0.53427  0.98940  0.27949  1.0000
  P   P14       1.0  0.64906  0.19682  0.46144  1.0000
  C   C441      1.0  0.64900  0.12371  0.47538  1.0000
  H   H337      1.0  0.65465  0.26931  0.11040  1.0000
  H   H338      1.0  0.59951  0.31588  0.18251  1.0000
  C   C442      1.0  0.48255  0.19898  0.41305  1.0000
  C   C443      1.0  0.52203  0.01082  0.09127  1.0000
  H   H339      1.0  0.54298  0.02382  0.18517  1.0000
  H   H340      1.0  0.88636  0.29189  0.47605  1.0000
  H   H341      1.0  0.55300  0.00626  0.08368  1.0000
  H   H342      1.0  0.73330  0.30816  0.29527  1.0000
  S   S49       1.0  0.47299  0.12874  0.44493  1.0000
  C   C444      1.0  0.60519  0.31193  0.29404  1.0000
  H   H343      1.0  0.49101  0.21610  0.42818  1.0000
  H   H344      1.0  0.49608  0.10735  0.99077  1.0000
  H   H345      1.0  0.49475  0.17900  0.46895  1.0000
  H   H346      1.0  0.72512  0.31316  0.41556  1.0000
  C   C445      1.0  0.66264  0.14775  0.47950  1.0000
  H   H347      1.0  0.56962  0.31324  0.29376  1.0000
  H   H348      1.0  0.46446  0.10677  0.26136  1.0000
  H   H349      1.0  0.46815  0.18695  0.02341  1.0000
  H   H350      1.0  0.88146  0.25504  0.51482  1.0000
  S   S50       1.0  0.89532  0.24094  0.69975  1.0000
  H   H351      1.0  0.48779  0.07647  0.68639  1.0000
  Fe  Fe26      1.0  0.90486  0.20254  0.72040  1.0000
  S   S51       1.0  0.83940  0.18223  0.72228  1.0000
  H   H352      1.0  0.66888  0.11048  0.49663  1.0000
  Fe  Fe27      1.0  0.50696  0.11717  0.51116  1.0000
  S   S52       1.0  0.56832  0.09271  0.52138  1.0000
  H   H353      1.0  0.69326  0.15242  0.50387  1.0000
  S   S53       1.0  0.57040  0.08600  0.61467  1.0000
  C   C446      1.0  0.50440  0.02169  0.70527  1.0000
  Fe  Fe28      1.0  0.59978  0.11283  0.58014  1.0000
  S   S54       1.0  0.67347  0.12776  0.58904  1.0000
  Fe  Fe29      1.0  0.53315  0.06819  0.55419  1.0000
  S   S55       1.0  0.53030  0.02689  0.54422  1.0000
  S   S56       1.0  0.53915  0.13819  0.56841  1.0000
  C   C447      1.0  0.60251  0.24258  0.53226  1.0000
  H   H354      1.0  0.60709  0.26126  0.54089  1.0000
  C   C448      1.0  0.47068  0.08793  0.70245  1.0000
  C   C449      1.0  0.79355  0.16724  0.68462  1.0000
  C   C450      1.0  0.75490  0.15895  0.69493  1.0000
  C   C451      1.0  0.71821  0.14666  0.66651  1.0000
  C   C452      1.0  0.71937  0.14253  0.62705  1.0000
  C   C453      1.0  0.75805  0.15082  0.61676  1.0000
  C   C454      1.0  0.79481  0.16302  0.64523  1.0000
  H   H355      1.0  0.75342  0.16192  0.72527  1.0000
  H   H356      1.0  0.68902  0.14041  0.67519  1.0000
  H   H357      1.0  0.75978  0.14760  0.58655  1.0000
  H   H358      1.0  0.82456  0.16880  0.63698  1.0000
  H   H359      1.0  0.47648  0.01641  0.96689  1.0000
  H   H360      1.0  0.70907  0.18761  0.54381  1.0000
  C   C455      1.0  0.72997  0.19562  0.52711  1.0000
  H   H361      1.0  0.84156  0.21211  0.54127  1.0000
  C   C456      1.0  0.56590  0.20426  0.53373  1.0000
  C   C457      1.0  0.80494  0.20940  0.52592  1.0000
  H   H362      1.0  0.54264  0.19310  0.54401  1.0000
  H   H363      1.0  0.46760  0.06073  0.74588  1.0000
  C   C458      1.0  0.90474  0.29091  0.50808  1.0000
  C   C459      1.0  0.76872  0.25910  0.69993  1.0000
  Fe  Fe30      1.0  0.95706  0.24946  0.75394  1.0000
  H   H364      1.0  0.72561  0.30333  0.70638  1.0000
  S   S57       1.0  0.95308  0.19358  0.68442  1.0000
  H   H365      1.0  0.56226  0.29579  0.62038  1.0000
  C   C460      1.0  0.63794  0.20343  0.67000  1.0000
  C   C461      1.0  0.63728  0.18823  0.63786  1.0000
  C   C462      1.0  0.66216  0.19426  0.61163  1.0000
  C   C463      1.0  0.68766  0.21552  0.61726  1.0000
  C   C464      1.0  0.68789  0.23111  0.64911  1.0000
  C   C465      1.0  0.66307  0.22483  0.67561  1.0000
  H   H366      1.0  0.61928  0.19844  0.69075  1.0000
  H   H367      1.0  0.61838  0.17144  0.63369  1.0000
  H   H368      1.0  0.66203  0.18211  0.58724  1.0000
  C   C466      1.0  0.81682  0.23981  0.76139  1.0000
  H   H369      1.0  0.66332  0.23643  0.70072  1.0000
  C   C467      1.0  0.69048  0.30152  0.68681  1.0000
  H   H370      1.0  0.83399  0.30510  0.57393  1.0000
  C   C468      1.0  0.93186  0.31031  0.52739  1.0000
  H   H371      1.0  0.55381  0.23575  0.56478  1.0000
  C   C469      1.0  0.89789  0.30917  0.67296  1.0000
  C   C470      1.0  0.95619  0.30848  0.56899  1.0000
  H   H372      1.0  0.64961  0.24402  0.49724  1.0000
  C   C471      1.0  0.53610  0.02694  0.68481  1.0000
  C   C472      1.0  0.59815  0.29752  0.63870  1.0000
  H   H373      1.0  0.61905  0.26530  0.61540  1.0000
  C   C473      1.0  0.48838  0.00539  0.51632  1.0000
  C   C474      1.0  0.47298  0.03443  0.62333  1.0000
  H   H374      1.0  0.54506  0.03673  0.62789  1.0000
  P   P15       1.0  0.71803  0.25947  0.65562  1.0000
  H   H375      1.0  0.70691  0.21962  0.59669  1.0000
  C   C475      1.0  0.76373  0.27222  0.54247  1.0000
  H   H376      1.0  0.51664  0.01723  0.73717  1.0000
  H   H377      1.0  0.70088  0.29249  0.51911  1.0000
  H   H378      1.0  0.87626  0.25985  0.79664  1.0000
  C   C476      1.0  0.61192  0.31675  0.66553  1.0000
  C   C477      1.0  0.92666  0.26814  0.57175  1.0000
  C   C478      1.0  0.63047  0.28027  0.63590  1.0000
  C   C479      1.0  0.62633  0.23281  0.50737  1.0000
  H   H379      1.0  0.75699  0.22352  0.72038  1.0000
  H   H380      1.0  0.82469  0.22429  0.78118  1.0000
  C   C480      1.0  0.57233  0.22830  0.54548  1.0000
  C   C481      1.0  0.52037  0.03307  0.64385  1.0000
  H   H381      1.0  0.91807  0.29797  0.69775  1.0000
  C   C482      1.0  0.77828  0.23945  0.72658  1.0000
  C   C483      1.0  0.84604  0.25973  0.76993  1.0000
  C   C484      1.0  0.70879  0.27894  0.57908  1.0000
  C   C485      1.0  0.67704  0.28219  0.65970  1.0000
  C   C486      1.0  0.90219  0.26999  0.53016  1.0000
  Fe  Fe31      1.0  0.94537  0.23265  0.66589  1.0000
  C   C487      1.0  0.73638  0.26537  0.61181  1.0000
  H   H382      1.0  0.79956  0.24459  0.63412  1.0000
  C   C488      1.0  0.77790  0.25540  0.60953  1.0000
  C   C489      1.0  0.87542  0.29896  0.63528  1.0000
  H   H383      1.0  0.79427  0.29337  0.68664  1.0000
  C   C490      1.0  0.83753  0.27905  0.74300  1.0000
  H   H384      1.0  0.67664  0.28681  0.57988  1.0000
  C   C491      1.0  0.61929  0.20881  0.49478  1.0000
  C   C492      1.0  0.79957  0.27855  0.70773  1.0000
  H   H385      1.0  0.82408  0.25157  0.57391  1.0000
  H   H386      1.0  0.87843  0.27985  0.63098  1.0000
  C   C493      1.0  0.79161  0.25902  0.57514  1.0000
  H   H387      1.0  0.57291  0.02638  0.70060  1.0000
  H   H388      1.0  0.77451  0.27484  0.51579  1.0000
  C   C494      1.0  0.72240  0.28224  0.54449  1.0000
  S   S58       1.0  0.92253  0.24114  0.59780  1.0000
  Fe  Fe32      1.0  0.50807  0.11042  0.60032  1.0000
  H   H389      1.0  0.86129  0.29406  0.74909  1.0000
  C   C495      1.0  0.58927  0.19450  0.50850  1.0000
  H   H390      1.0  0.96270  0.25666  0.85971  1.0000
  C   C496      1.0  0.95364  0.28756  0.59107  1.0000
  C   C497      1.0  0.77704  0.19932  0.54679  1.0000
  S   S59       1.0  0.96300  0.28531  0.78838  1.0000
  H   H391      1.0  0.79201  0.19435  0.57831  1.0000
  H   H392      1.0  0.58347  0.17582  0.49978  1.0000
  C   C498      1.0  0.85015  0.31336  0.60296  1.0000
  S   S60       1.0  0.47148  0.12373  0.64573  1.0000
  S   S61       1.0  0.47026  0.09166  0.54155  1.0000
  H   H393      1.0  0.46524  0.00964  0.84325  1.0000
  S   S62       1.0  0.96391  0.21161  0.77763  1.0000
  C   C499      1.0  0.71025  0.20187  0.48616  1.0000
  C   C500      1.0  0.78547  0.21643  0.48561  1.0000
  Fe  Fe33      1.0  0.86821  0.40414  0.40651  1.0000
  S   S63       1.0  0.93154  0.38151  0.41489  1.0000
  S   S64       1.0  0.86796  0.44431  0.42570  1.0000
  Fe  Fe34      1.0  0.80345  0.35983  0.37047  1.0000
  S   S65       1.0  0.86464  0.33518  0.37838  1.0000
  S   S66       1.0  0.72598  0.34843  0.34923  1.0000
  Fe  Fe35      1.0  0.89526  0.35275  0.43936  1.0000
  Fe  Fe36      1.0  0.89579  0.36597  0.35287  1.0000
  H   H394      1.0  0.73912  0.42243  0.24916  1.0000
  S   S67       1.0  0.83284  0.37594  0.43324  1.0000
  S   S68       1.0  0.83354  0.39004  0.34281  1.0000
  H   H395      1.0  0.81606  0.45004  0.31156  1.0000
  C   C501      1.0  0.91430  0.43108  0.29359  1.0000
  C   C502      1.0  0.74070  0.38454  0.26104  1.0000
  C   C503      1.0  0.85195  0.44972  0.31238  1.0000
  H   H396      1.0  0.87178  0.47817  0.35634  1.0000
  C   C504      1.0  0.90336  0.37962  0.19100  1.0000
  C   C505      1.0  0.83992  0.32677  0.16357  1.0000
  C   C506      1.0  0.90201  0.37572  0.23088  1.0000
  H   H397      1.0  0.93210  0.51803  0.17198  1.0000
  H   H398      1.0  0.87250  0.38163  0.23948  1.0000
  C   C507      1.0  0.86127  0.32914  0.13347  1.0000
  H   H399      1.0  0.86572  0.48312  0.24906  1.0000
  H   H400      1.0  0.73154  0.38650  0.28871  1.0000
  C   C508      1.0  0.89104  0.46071  0.07222  1.0000
  H   H401      1.0  0.86123  0.32239  0.19391  1.0000
  C   C509      1.0  0.86809  0.46292  0.19680  1.0000
  C   C510      1.0  0.90760  0.46782  0.45050  1.0000
  H   H402      1.0  0.88423  0.40057  0.05318  1.0000
  S   S69       1.0  0.94056  0.35913  0.31080  1.0000
  C   C511      1.0  0.88239  0.46265  0.16223  1.0000
  H   H403      1.0  0.76753  0.34393  0.05394  1.0000
  H   H404      1.0  0.92611  0.41673  0.27827  1.0000
  S   S70       1.0  0.95558  0.37766  0.02089  1.0000
  C   C512      1.0  0.93020  0.46445  0.34059  1.0000
  C   C513      1.0  0.90425  0.55612  0.04499  1.0000
  H   H405      1.0  0.76005  0.41766  0.18582  1.0000
  C   C514      1.0  0.68548  0.32694  0.31894  1.0000
  H   H406      1.0  0.84294  0.48690  0.03589  1.0000
  C   C515      1.0  0.88336  0.46567  0.33753  1.0000
  H   H407      1.0  0.93207  0.42994  0.10080  1.0000
  H   H408      1.0  0.85032  0.33743  0.25826  1.0000
  C   C516      1.0  0.82534  0.45129  0.01340  1.0000
  C   C517      1.0  0.74847  0.36167  0.24801  1.0000
  S   S71       1.0  0.94072  0.37716  0.12790  1.0000
  H   H409      1.0  0.87461  0.38850  0.16923  1.0000
  C   C518      1.0  0.86741  0.43252  0.29022  1.0000
  C   C519      1.0  0.87532  0.41945  0.04955  1.0000
  C   C520      1.0  0.83692  0.42696  0.01792  1.0000
  C   C521      1.0  0.75876  0.35867  0.21162  1.0000
  C   C522      1.0  0.76342  0.37908  0.18948  1.0000
  S   S72       1.0  0.91756  0.62761  0.02532  1.0000
  C   C523      1.0  0.94574  0.51845  0.06128  1.0000
  C   C524      1.0  0.87540  0.54915  0.06734  1.0000
  C   C525      1.0  0.94126  0.37190  0.17888  1.0000
  C   C526      1.0  0.94584  0.44740  0.31803  1.0000
  H   H410      1.0  0.62866  0.34102  0.33676  1.0000
  H   H411      1.0  0.90636  0.51834  0.23278  1.0000
  H   H412      1.0  0.96045  0.54588  0.02329  1.0000
  C   C527      1.0  0.87675  0.48296  0.22223  1.0000
  H   H413      1.0  0.85815  0.52151  0.10297  1.0000
  P   P16       1.0  0.92461  0.48222  0.10838  1.0000
  C   C528      1.0  0.75670  0.40202  0.20314  1.0000
  C   C529      1.0  0.71339  0.33201  0.46573  1.0000
  C   C530      1.0  0.76608  0.33663  0.11451  1.0000
  C   C531      1.0  0.88175  0.52686  0.08684  1.0000
  C   C532      1.0  0.85227  0.46813  0.04040  1.0000
  C   C533      1.0  0.74407  0.63368  0.99139  1.0000
  C   C534      1.0  0.88980  0.48969  0.46000  1.0000
  C   C535      1.0  0.74493  0.40473  0.23873  1.0000
  C   C536      1.0  0.91774  0.51153  0.08478  1.0000
  C   C537      1.0  0.90244  0.43621  0.07652  1.0000
  H   H414      1.0  0.85278  0.49184  0.45265  1.0000
  C   C538      1.0  0.93886  0.36417  0.25943  1.0000
  H   H415      1.0  0.85057  0.44747  0.20400  1.0000
  H   H416      1.0  0.74537  0.34630  0.26599  1.0000
  H   H417      1.0  0.77199  0.37745  0.16164  1.0000
  C   C539      1.0  0.91399  0.50260  0.17849  1.0000
  H   H418      1.0  0.84349  0.41950  0.27200  1.0000
  H   H419      1.0  0.85230  0.33771  0.07114  1.0000
  H   H420      1.0  0.84773  0.56097  0.06895  1.0000
  H   H421      1.0  0.89833  0.32670  0.14089  1.0000
  H   H422      1.0  0.87569  0.44680  0.14330  1.0000
  C   C540      1.0  0.83527  0.33542  0.09408  1.0000
  C   C541      1.0  0.91924  0.50885  0.47917  1.0000
  C   C542      1.0  0.63893  0.32778  0.31843  1.0000
  H   H423      1.0  0.88178  0.63341  0.36628  1.0000
  H   H424      1.0  0.72923  0.33985  0.10675  1.0000
  H   H425      1.0  0.89916  0.57332  0.02960  1.0000
  C   C543      1.0  0.90520  0.48257  0.15262  1.0000
  H   H426      1.0  0.81837  0.63477  0.00811  1.0000
  C   C544      1.0  0.93914  0.54071  0.04174  1.0000
  H   H427      1.0  0.94604  0.63982  0.10974  1.0000
  C   C545      1.0  0.78788  0.64160  0.01436  1.0000
  C   C546      1.0  0.89971  0.50279  0.21308  1.0000
  C   C547      1.0  0.74078  0.32046  0.44569  1.0000
  H   H428      1.0  0.80216  0.62470  0.19876  1.0000
  H   H429      1.0  0.81641  0.41394  0.99673  1.0000
  C   C548      1.0  0.95576  0.46564  0.46037  1.0000
  C   C549      1.0  0.85779  0.64986  0.20655  1.0000
  H   H430      1.0  0.67649  0.33361  0.45094  1.0000
  C   C550      1.0  0.78764  0.33904  0.08453  1.0000
  C   C551      1.0  0.81349  0.64089  0.18748  1.0000
  H   H431      1.0  0.75023  0.64521  0.13855  1.0000
  H   H432      1.0  0.88084  0.64082  0.23272  1.0000
  C   C552      1.0  0.79208  0.33053  0.15436  1.0000
  C   C553      1.0  0.78863  0.31937  0.46361  1.0000
  C   C554      1.0  0.70476  0.64251  0.99937  1.0000
  H   H433      1.0  0.79594  0.45720  0.98854  1.0000
  H   H434      1.0  0.67360  0.33692  0.20701  1.0000
  P   P17       1.0  0.76402  0.32877  0.19322  1.0000
  H   H435      1.0  0.95430  0.47622  0.36175  1.0000
  C   C555      1.0  0.67007  0.32273  0.18507  1.0000
  C   C556      1.0  0.86276  0.65018  0.36074  1.0000
  H   H436      1.0  0.95914  0.44698  0.23743  1.0000
  C   C557      1.0  0.83861  0.31952  0.26206  1.0000
  H   H437      1.0  0.86674  0.36737  0.65127  1.0000
  Fe  Fe37      1.0  0.88722  0.60585  0.87190  1.0000
  S   S73       1.0  0.82382  0.58228  0.85734  1.0000
  H   H438      1.0  0.83151  0.43022  0.49680  1.0000
  Fe  Fe38      1.0  0.88478  0.61523  0.95951  1.0000
  S   S74       1.0  0.82270  0.59151  0.94904  1.0000
  Fe  Fe39      1.0  0.85822  0.56535  0.91882  1.0000
  S   S75       1.0  0.85934  0.52452  0.93219  1.0000
  Fe  Fe40      1.0  0.79392  0.61077  0.88910  1.0000
  S   S76       1.0  0.71958  0.62507  0.88041  1.0000
  S   S77       1.0  0.92171  0.58803  0.93242  1.0000
  S   S78       1.0  0.85587  0.63535  0.90073  1.0000
  C   C558      1.0  0.88916  0.47849  0.95729  1.0000
  C   C559      1.0  0.90299  0.50191  0.95111  1.0000
  H   H439      1.0  0.91015  0.44209  0.97677  1.0000
  P   P18       1.0  0.81002  0.35692  0.56884  1.0000
  H   H440      1.0  0.74065  0.62077  0.96727  1.0000
  C   C560      1.0  0.76850  0.36894  0.59123  1.0000
  C   C561      1.0  0.93766  0.60572  0.78276  1.0000
  H   H441      1.0  0.92183  0.52037  0.67134  1.0000
  C   C562      1.0  0.48698  0.63604  0.79014  1.0000
  C   C563      1.0  0.89746  0.60257  0.74993  1.0000
  S   S79       1.0  0.95419  0.59441  0.54199  1.0000
  C   C564      1.0  0.76882  0.39324  0.60194  1.0000
  H   H442      1.0  0.90953  0.36067  0.57913  1.0000
  C   C565      1.0  0.70594  0.36188  0.61955  1.0000
  C   C566      1.0  0.78195  0.34106  0.52231  1.0000
  H   H443      1.0  0.79371  0.40554  0.59655  1.0000
  C   C567      1.0  0.89483  0.33385  0.67851  1.0000
  H   H444      1.0  0.78530  0.40102  0.52142  1.0000
  C   C568      1.0  0.94551  0.52427  0.70114  1.0000
  C   C569      1.0  0.86910  0.34828  0.64643  1.0000
  C   C570      1.0  0.73723  0.40185  0.62059  1.0000
  H   H445      1.0  0.86862  0.59834  0.68497  1.0000
  C   C571      1.0  0.84435  0.37962  0.55475  1.0000
  C   C572      1.0  0.49312  0.62867  0.82989  1.0000
  C   C573      1.0  0.84844  0.41549  0.51619  1.0000
  C   C574      1.0  0.70569  0.38621  0.62923  1.0000
  H   H446      1.0  0.51640  0.63718  0.77887  1.0000
  C   C575      1.0  0.90010  0.60030  0.71005  1.0000
  C   C576      1.0  0.89610  0.41235  0.52512  1.0000
  H   H447      1.0  0.68188  0.34969  0.62664  1.0000
  C   C577      1.0  0.73747  0.35323  0.60091  1.0000
  C   C578      1.0  0.94287  0.60100  0.70218  1.0000
  H   H448      1.0  0.84633  0.32981  0.51429  1.0000
  C   C579      1.0  0.63576  0.64933  0.85675  1.0000
  H   H449      1.0  0.91254  0.34171  0.70777  1.0000
  C   C580      1.0  0.92177  0.45988  0.97228  1.0000
  C   C581      1.0  0.82251  0.39900  0.53041  1.0000
  C   C582      1.0  0.89241  0.52116  0.81074  1.0000
  C   C583      1.0  0.87353  0.54040  0.78459  1.0000
  C   C584      1.0  0.82719  0.54689  0.77670  1.0000
  C   C585      1.0  0.79956  0.53471  0.79568  1.0000
  C   C586      1.0  0.81848  0.51624  0.82296  1.0000
  C   C587      1.0  0.86462  0.50943  0.83042  1.0000
  H   H450      1.0  0.86419  0.60249  0.75508  1.0000
  P   P19       1.0  0.95180  0.51202  0.81897  1.0000
  H   H451      1.0  0.68133  0.39294  0.64375  1.0000
  H   H452      1.0  0.70418  0.64242  0.79668  1.0000
  C   C588      1.0  0.95721  0.47037  0.86480  1.0000
  C   C589      1.0  0.89218  0.37635  0.56296  1.0000
  H   H453      1.0  0.67093  0.63632  0.98130  1.0000
  H   H454      1.0  0.96192  0.52404  0.95468  1.0000
  C   C590      1.0  0.67437  0.64203  0.84526  1.0000
  C   C591      1.0  0.91790  0.39272  0.54831  1.0000
  H   H455      1.0  0.73788  0.33426  0.59413  1.0000
  H   H456      1.0  0.71210  0.35222  0.51774  1.0000
  C   C592      1.0  0.93721  0.51518  0.73576  1.0000
  C   C593      1.0  0.95042  0.50630  0.95966  1.0000
  H   H457      1.0  0.91581  0.42471  0.51285  1.0000
  H   H458      1.0  0.85271  0.47470  0.95026  1.0000
  H   H459      1.0  0.89454  0.55065  0.77046  1.0000
  H   H460      1.0  0.81307  0.56183  0.75671  1.0000
  H   H461      1.0  0.76401  0.54022  0.79048  1.0000
  H   H462      1.0  0.79779  0.50758  0.83928  1.0000
  H   H463      1.0  0.87831  0.49538  0.85221  1.0000
  S   S80       1.0  0.93666  0.33720  0.50127  1.0000
  C   C594      1.0  0.84643  0.33812  0.60840  1.0000
  H   H464      1.0  0.73747  0.42066  0.62861  1.0000
  S   S81       1.0  0.93668  0.61103  0.83352  1.0000
  S   S82       1.0  0.94387  0.59938  0.65074  1.0000
  H   H465      1.0  0.90672  0.50435  0.73238  1.0000
  C   C595      1.0  0.73383  0.34242  0.50380  1.0000
  H   H466      1.0  0.52754  0.62421  0.84939  1.0000
  C   C596      1.0  0.80911  0.32976  0.50160  1.0000
  H   H467      1.0  0.58674  0.32996  0.66802  1.0000
  H   H468      1.0  0.63450  0.64489  0.88668  1.0000
  H   H469      1.0  0.66860  0.33341  0.71095  1.0000
  H   H470      1.0  0.95082  0.56113  0.84750  1.0000
  C   C597      1.0  0.96285  0.44576  0.87231  1.0000
  H   H471      1.0  0.95278  0.48199  0.88830  1.0000
  H   H472      1.0  0.95446  0.38962  0.55357  1.0000
  C   C598      1.0  0.95810  0.47996  0.82763  1.0000
  C   C599      1.0  0.67504  0.64786  0.80624  1.0000
  H   H473      1.0  0.96270  0.43865  0.90137  1.0000
  H   H474      1.0  0.90455  0.52534  0.48622  1.0000
  C   C600      1.0  0.65803  0.31871  0.68963  1.0000
  Fe  Fe41      1.0  0.51511  0.89721  0.05347  1.0000
  H   H475      1.0  0.66651  0.88835  0.26057  1.0000
  S   S83       1.0  0.51463  0.93573  0.02763  1.0000
  Fe  Fe42      1.0  0.58162  0.85562  0.09814  1.0000
  S   S84       1.0  0.52154  0.83244  0.10019  1.0000
  S   S85       1.0  0.65683  0.84158  0.11131  1.0000
  C   C601      1.0  0.79844  0.67375  0.13905  1.0000
  H   H476      1.0  0.82678  0.66413  0.06317  1.0000
  C   C602      1.0  0.78511  0.71610  0.08436  1.0000
  S   S86       1.0  0.54890  0.86573  0.03215  1.0000
  S   S87       1.0  0.55276  0.88906  0.11941  1.0000
  Fe  Fe43      1.0  0.89653  0.76962  0.23863  1.0000
  C   C603      1.0  0.71401  0.75045  0.40969  1.0000
  S   S88       1.0  0.83191  0.79079  0.24116  1.0000
  C   C604      1.0  0.69276  0.70880  0.39568  1.0000
  C   C605      1.0  0.78410  0.65263  0.15357  1.0000
  S   S89       1.0  0.88705  0.73075  0.22046  1.0000
  C   C606      1.0  0.83201  0.76866  0.33956  1.0000
  H   H477      1.0  0.68394  0.71553  0.04270  1.0000
  Fe  Fe44      1.0  0.93731  0.73764  0.18603  1.0000
  H   H478      1.0  0.70995  0.76741  0.42353  1.0000
  H   H479      1.0  0.50761  0.84698  0.22666  1.0000
  C   C607      1.0  0.70411  0.82645  0.14760  1.0000
  C   C608      1.0  0.70309  0.81963  0.18616  1.0000
  C   C609      1.0  0.74208  0.80848  0.21397  1.0000
  C   C610      1.0  0.78268  0.80371  0.20377  1.0000
  C   C611      1.0  0.78344  0.81025  0.16506  1.0000
  C   C612      1.0  0.74456  0.82146  0.13732  1.0000
  H   H480      1.0  0.67253  0.82330  0.19480  1.0000
  H   H481      1.0  0.74087  0.80369  0.24378  1.0000
  H   H482      1.0  0.81463  0.80755  0.15699  1.0000
  H   H483      1.0  0.74622  0.82677  0.10787  1.0000
  C   C613      1.0  0.82000  0.76046  0.06946  1.0000
  H   H484      1.0  0.81852  0.69156  0.41021  1.0000
  C   C614      1.0  0.91895  0.69916  0.09365  1.0000
  H   H485      1.0  0.52849  0.98217  0.99669  1.0000
  H   H486      1.0  0.78997  0.73103  0.14290  1.0000
  H   H487      1.0  0.59041  0.72080  0.11270  1.0000
  C   C615      1.0  0.62584  0.78380  0.02376  1.0000
  C   C616      1.0  0.75325  0.66735  0.05349  1.0000
  H   H488      1.0  0.94791  0.67800  0.14730  1.0000
  C   C617      1.0  0.68728  0.73732  0.23363  1.0000
  C   C618      1.0  0.71217  0.74336  0.20735  1.0000
  C   C619      1.0  0.76033  0.74210  0.22073  1.0000
  C   C620      1.0  0.78381  0.73531  0.26053  1.0000
  C   C621      1.0  0.75925  0.72988  0.28756  1.0000
  C   C622      1.0  0.71065  0.73052  0.27357  1.0000
  P   P20       1.0  0.79023  0.72405  0.34031  1.0000
  C   C623      1.0  0.75069  0.72658  0.36962  1.0000
  C   C624      1.0  0.81685  0.69464  0.34749  1.0000
  Fe  Fe45      1.0  0.48857  0.84366  0.03513  1.0000
  C   C625      1.0  0.60068  0.93646  0.26887  1.0000
  C   C626      1.0  0.87318  0.74141  0.39295  1.0000
  H   H489      1.0  0.81646  0.74586  0.01134  1.0000
  C   C627      1.0  0.90534  0.78039  0.38717  1.0000
  C   C628      1.0  0.47972  0.85440  0.23610  1.0000
  H   H490      1.0  0.67367  0.92875  0.29206  1.0000
  C   C629      1.0  0.63360  0.71928  0.07400  1.0000
  C   C630      1.0  0.84353  0.68216  0.15762  1.0000
  C   C631      1.0  0.55705  0.92804  0.24560  1.0000
  C   C632      1.0  0.70603  0.69742  0.10051  1.0000
  H   H491      1.0  0.67236  0.69344  0.39879  1.0000
  H   H492      1.0  0.76478  0.76417  0.38440  1.0000
  H   H493      1.0  0.64991  0.73861  0.22339  1.0000
  H   H494      1.0  0.69432  0.74958  0.17691  1.0000
  H   H495      1.0  0.77979  0.74769  0.20100  1.0000
  H   H496      1.0  0.82128  0.73555  0.27078  1.0000
  H   H497      1.0  0.69063  0.72656  0.29360  1.0000
  H   H498      1.0  0.66377  0.73216  0.43105  1.0000
  H   H499      1.0  0.85658  0.69762  0.14593  1.0000
  C   C633      1.0  0.87286  0.67036  0.19144  1.0000
  C   C634      1.0  0.96176  0.69015  0.42902  1.0000
  H   H500      1.0  0.62126  0.89121  0.99928  1.0000
  C   C635      1.0  0.93336  0.65613  0.09316  1.0000
  P   P21       1.0  0.76056  0.68832  0.09454  1.0000
  C   C636      1.0  0.46669  0.94031  0.18762  1.0000
  C   C637      1.0  0.79497  0.73419  0.11387  1.0000
  H   H501      1.0  0.89034  0.71486  0.03441  1.0000
  C   C638      1.0  0.90040  0.67673  0.02955  1.0000
  C   C639      1.0  0.64003  0.92216  0.27428  1.0000
  H   H502      1.0  0.82207  0.76963  0.13020  1.0000
  P   P22       1.0  0.50599  0.94639  0.23772  1.0000
  C   C640      1.0  0.81266  0.75619  0.10657  1.0000
  H   H503      1.0  0.80273  0.77322  0.31357  1.0000
  H   H504      1.0  0.61597  0.96803  0.99123  1.0000
  H   H505      1.0  0.55264  0.78475  0.99258  1.0000
  C   C641      1.0  0.74522  0.74850  0.38757  1.0000
  C   C642      1.0  0.62249  0.71415  0.10922  1.0000
  C   C643      1.0  0.55332  0.90501  0.22854  1.0000
  C   C644      1.0  0.59264  0.89078  0.23392  1.0000
  S   S90       1.0  0.92089  0.72724  0.11893  1.0000
  C   C645      1.0  0.79194  0.72057  0.04685  1.0000
  H   H506      1.0  0.90755  0.67709  0.20584  1.0000
  H   H507      1.0  0.82472  0.69233  0.28758  1.0000
  C   C646      1.0  0.67522  0.71100  0.06973  1.0000
  C   C647      1.0  0.65319  0.70088  0.14026  1.0000
  C   C648      1.0  0.66847  0.77403  0.02458  1.0000
  H   H508      1.0  0.60450  0.95401  0.28282  1.0000
  S   S91       1.0  0.95604  0.76152  0.29603  1.0000
  H   H509      1.0  0.94806  0.71531  0.37896  1.0000
  C   C649      1.0  0.79251  0.65829  0.04538  1.0000
  C   C650      1.0  0.58572  0.77713  0.99316  1.0000
  H   H510      1.0  0.64496  0.69729  0.16790  1.0000
  C   C651      1.0  0.83510  0.74624  0.35872  1.0000
  H   H511      1.0  0.58937  0.87313  0.22020  1.0000
  C   C652      1.0  0.90820  0.75841  0.40703  1.0000
  H   H512      1.0  0.87627  0.72447  0.40866  1.0000
  Fe  Fe46      1.0  0.49060  0.86622  0.11743  1.0000
  H   H513      1.0  0.61028  0.73003  0.05026  1.0000
  C   C653      1.0  0.86730  0.78551  0.35346  1.0000
  H   H514      1.0  0.72683  0.68985  0.35916  1.0000
  H   H515      1.0  0.62394  0.79663  0.04679  1.0000
  C   C654      1.0  0.84993  0.66106  0.39186  1.0000
  C   C655      1.0  0.85303  0.66149  0.32315  1.0000
  C   C656      1.0  0.90192  0.69844  0.05100  1.0000
  C   C657      1.0  0.83032  0.68366  0.31650  1.0000
  H   H516      1.0  0.69948  0.77917  0.04855  1.0000
  C   C658      1.0  0.52242  0.97771  0.24176  1.0000
  C   C659      1.0  0.69510  0.69277  0.13621  1.0000
  H   H517      1.0  0.86523  0.80242  0.33755  1.0000
  C   C660      1.0  0.80950  0.74270  0.03959  1.0000
  H   H518      1.0  0.78449  0.70703  0.02340  1.0000
  C   C661      1.0  0.63603  0.89937  0.25666  1.0000
  H   H519      1.0  0.50565  0.84023  0.29685  1.0000
  H   H520      1.0  0.52003  0.89806  0.21082  1.0000
  H   H521      1.0  0.67859  0.66525  0.03702  1.0000
  H   H522      1.0  0.83510  0.77727  0.06438  1.0000
  C   C662      1.0  0.93437  0.67778  0.11460  1.0000
  C   C663      1.0  0.62335  0.92977  0.99872  1.0000
  C   C664      1.0  0.72384  0.70680  0.37344  1.0000
  C   C665      1.0  0.91659  0.65543  0.05053  1.0000
  C   C666      1.0  0.68790  0.73060  0.41385  1.0000
  Fe  Fe47      1.0  0.94941  0.72315  0.27465  1.0000
  H   H523      1.0  0.71902  0.68342  0.16132  1.0000
  S   S92       1.0  0.94425  0.77721  0.20167  1.0000
  H   H524      1.0  0.52079  0.93887  0.15913  1.0000
  C   C667      1.0  0.67116  0.75787  0.99451  1.0000
  H   H525      1.0  0.65238  0.93090  0.02624  1.0000
  H   H526      1.0  0.93778  0.75442  0.43310  1.0000
  H   H527      1.0  0.93257  0.79342  0.39783  1.0000
  C   C668      1.0  0.48406  0.93752  0.15478  1.0000
  S   S93       1.0  0.95548  0.68750  0.30936  1.0000
  C   C669      1.0  0.82702  0.68316  0.38531  1.0000
  H   H528      1.0  0.70453  0.75043  0.99625  1.0000
  H   H529      1.0  0.51586  0.90669  0.29637  1.0000
  C   C670      1.0  0.49139  0.91965  0.30090  1.0000
  H   H530      1.0  0.88757  0.67656  0.99682  1.0000
  H   H531      1.0  0.50032  0.97409  0.09058  1.0000
  C   C671      1.0  0.47869  0.93996  0.27601  1.0000
  C   C672      1.0  0.47843  0.85055  0.27592  1.0000
  C   C673      1.0  0.49210  0.98092  0.99348  1.0000
  H   H532      1.0  0.53328  0.97995  0.30645  1.0000
  C   C674      1.0  0.47510  0.95982  0.00619  1.0000
  C   C675      1.0  0.95777  0.69716  0.38897  1.0000
  C   C676      1.0  0.70928  0.65915  0.03059  1.0000
  H   H533      1.0  0.95458  0.70304  0.44952  1.0000
  C   C677      1.0  0.47256  0.91587  0.33236  1.0000
  H   H534      1.0  0.48290  0.90032  0.35181  1.0000
  H   H535      1.0  0.51905  0.98155  0.17892  1.0000
  H   H536      1.0  0.46803  0.92987  0.09107  1.0000
  H   H537      1.0  0.58235  0.66107  0.98753  1.0000
  H   H538      1.0  0.85914  0.65267  0.42149  1.0000
  H   H539      1.0  0.86498  0.65359  0.29970  1.0000
  H   H540      1.0  0.93210  0.66350  0.79371  1.0000
  H   H541      1.0  0.71920  0.75467  0.92803  1.0000
  S   S94       1.0  0.55094  0.68182  0.75358  1.0000
  C   C678      1.0  0.58823  0.76092  0.96311  1.0000
  C   C679      1.0  0.57149  0.90493  0.80944  1.0000
  C   C680      1.0  0.77964  0.70275  0.93366  1.0000
  C   C681      1.0  0.53334  0.66922  0.92936  1.0000
  C   C682      1.0  0.61566  0.74383  0.87445  1.0000
  C   C683      1.0  0.57407  0.67273  0.96133  1.0000
  H   H542      1.0  0.63062  0.71185  0.84513  1.0000
  H   H543      1.0  0.48101  0.81732  0.60476  1.0000
  H   H544      1.0  0.57678  0.77117  0.76611  1.0000
  H   H545      1.0  0.54089  0.87480  0.60458  1.0000
  C   C684      1.0  0.48544  0.92579  0.80135  1.0000
  H   H546      1.0  0.47794  0.84549  0.76091  1.0000
  C   C685      1.0  0.59866  0.66740  0.79040  1.0000
  P   P23       1.0  0.63337  0.73031  0.92411  1.0000
  H   H547      1.0  0.79721  0.74000  0.93195  1.0000
  C   C686      1.0  0.56441  0.94926  0.94415  1.0000
  C   C687      1.0  0.72622  0.73557  0.93025  1.0000
  H   H548      1.0  0.94821  0.65652  0.62412  1.0000
  H   H549      1.0  0.57180  0.79543  0.82449  1.0000
  C   C688      1.0  0.59850  0.66209  0.82978  1.0000
  C   C689      1.0  0.59945  0.76757  0.86829  1.0000
  S   S95       1.0  0.46923  0.77846  0.82079  1.0000
  H   H550      1.0  0.54862  0.96573  0.93008  1.0000
  H   H551      1.0  0.50920  0.97157  0.85154  1.0000
  H   H552      1.0  0.75143  0.66733  0.93189  1.0000
  C   C690      1.0  0.58828  0.76369  0.79637  1.0000
  C   C691      1.0  0.48962  0.81470  0.92707  1.0000
  H   H553      1.0  0.81366  0.69629  0.93474  1.0000
  H   H554      1.0  0.60563  0.72924  0.77667  1.0000
  H   H555      1.0  0.48705  0.86803  0.64381  1.0000
  H   H556      1.0  0.60483  0.89681  0.81258  1.0000
  C   C692      1.0  0.60571  0.90739  0.98352  1.0000
  H   H557      1.0  0.55292  0.90802  0.74451  1.0000
  C   C693      1.0  0.56727  0.90588  0.94877  1.0000
  C   C694      1.0  0.60414  0.69131  0.95947  1.0000
  C   C695      1.0  0.52250  0.68442  0.89576  1.0000
  C   C696      1.0  0.55254  0.70302  0.89383  1.0000
  C   C697      1.0  0.59411  0.70629  0.92542  1.0000
  C   C698      1.0  0.49287  0.80636  0.88964  1.0000
  C   C699      1.0  0.49918  0.92159  0.76704  1.0000
  C   C700      1.0  0.63109  0.75141  0.96315  1.0000
  C   C701      1.0  0.74463  0.68640  0.93252  1.0000
  H   H558      1.0  0.51007  0.65480  0.93065  1.0000
  C   C702      1.0  0.55795  0.90918  0.84383  1.0000
  C   C703      1.0  0.50664  0.88265  0.59452  1.0000
  P   P24       1.0  0.49623  0.92458  0.88407  1.0000
  C   C704      1.0  0.50219  0.98133  0.51450  1.0000
  Fe  Fe48      1.0  0.48323  0.70270  0.74750  1.0000
  C   C705      1.0  0.54618  0.92683  0.92882  1.0000
  H   H559      1.0  0.63554  0.69392  0.98430  1.0000
  C   C706      1.0  0.47798  0.97236  0.86021  1.0000
  H   H560      1.0  0.58112  0.90407  0.87318  1.0000
  H   H561      1.0  0.59678  0.77857  0.89310  1.0000
  C   C707      1.0  0.61835  0.73023  0.84118  1.0000
  C   C708      1.0  0.60452  0.74010  0.80231  1.0000
  C   C709      1.0  0.58573  0.77739  0.82932  1.0000
  H   H562      1.0  0.53781  0.97641  0.52951  1.0000
  H   H563      1.0  0.56918  0.66734  0.83909  1.0000
  C   C710      1.0  0.47587  0.87879  0.61661  1.0000
  C   C711      1.0  0.47068  0.96359  0.49311  1.0000
  H   H564      1.0  0.49088  0.68176  0.87100  1.0000
  H   H565      1.0  0.54313  0.71467  0.86756  1.0000
  H   H566      1.0  0.63814  0.66414  0.74876  1.0000
  H   H567      1.0  0.55375  0.88834  0.93786  1.0000
  H   H568      1.0  0.55672  0.75611  0.93945  1.0000
  C   C712      1.0  0.70049  0.69453  0.93064  1.0000
  C   C713      1.0  0.51503  0.91992  0.84010  1.0000
  H   H569      1.0  0.67375  0.68138  0.92810  1.0000
  C   C714      1.0  0.69112  0.71925  0.93024  1.0000
  C   C715      1.0  0.77035  0.72734  0.93220  1.0000
  H   H570      1.0  0.47655  0.92642  0.73729  1.0000
  S   S96       1.0  0.48347  0.74224  0.73387  1.0000
  C   C716      1.0  0.49270  0.89591  0.55860  1.0000
  H   H571      1.0  0.51616  0.81516  0.87619  1.0000
  C   C717      1.0  0.63737  0.66024  0.77905  1.0000
  C   C718      1.0  0.46576  0.78702  0.86920  1.0000
  H   H572      1.0  0.51016  0.82981  0.94205  1.0000
  C   C719      1.0  0.54221  0.91120  0.77108  1.0000
  C   C720      1.0  0.60283  0.95068  0.97896  1.0000
  H   H573      1.0  0.51615  0.89843  0.54099  1.0000
  H   H574      1.0  0.48242  0.94538  0.49186  1.0000
  H   H575      1.0  0.96188  0.69569  0.59602  1.0000
  H   H576      1.0  0.46621  0.90878  0.95213  1.0000
