data_image0
_chemical_formula_structural       CHSC3HCS2HCHCH8C7H4CHC8H4CHCHC2H6C6PC9HC8H4CHC2H7CHCHFeCHSCHC3H7C4HCHSHCH3FeCHC2HC2SFeSHFeS2Fe2S3HCHC6H8C5H4CHSHC6HC2H2C2PC2HC5HC3H2C2H5CSH2C5H2CHC3FeHC4PHC2H3PSCPC3HC2HCH2C6HCH2C4HC2HC4H2C3H3SCH5SHC3SFeSFeS2FeS2FeCFeS3FeCS2C6H4C6H4C4SH3C3H3C2H2FeC4H4CH4C6H3CHC2FeCHCHC7PHCH2SC2H2SC5HCH2C2H2CHC2PH3C2H2CH2C4PCH3CHCH4C3HSCSHC2H5CHC4H2C3H3C3HC2HC4H2C2HCHC2H5CH3CHC2SCPC3HC3HCH3CH2C2H5C2HCH2C4PC14H6SCH2CFeCHCSHSHCSHCH2CHCH3C3H5C2SCH3C3H2CFeSHC2HSHCHFeSH2CHCHC6H5CSC3HC4HCH2CH2CFeC2HCHC3H3CPC2FeH2C2HC2H2C2H3SCHSCHCH2C2FeS2FeSFeCS2FeSCSFeSFeSHC6H5CHCHPC3H2C10H5CHCH5C2HCHCHCH2C4SCHC3HPC4HC2HC2HC2HC3FeCH3CSH6CHCH5CHC3H2C2HCHC2PH2C2H4C4HC3SC2H2CHCHCH2FeSCS3HCHCH4C3H3C16HCH4CHCH5CH2C2H3C2HCHCFeC2H2CH2C9H6FePC6PC3PCHC3HC2H6CHCHC2HCHCH2CH2C4FeS2FeHCHFeS3FeSCFeSFeSCHC6H4C6HFeH3C2HC2HC4HCHC2HSHSHSH4CH2CH2C4H2CH2CHCH2C4HC3SH2C2H4CSHSCFeS2FeS2HC2SC3HCH2CHC5H2C7H2C3H2C2SCHCH2C3H2C8HCHC7PHCHC3HCHPH7FeSC2H3PC3FeH2CSC2HSH2C4HC2HCHC3H2CH4C3H3C2H2C2FeC3H2C2H4SH4CHSCFeS2FeCSFeHCSHSHC3SC4HC3H4C3H2C6H4CSC3PC12HCH10CPC13HCH3PHC4H2CHC2FeH2CHCSCHC2H2CHC2HFeC2HCHPCHC3SHC4HCHC2H2FeH6C3H3C2HC2HCH4CHCSH2CHCH3CHC
_chemical_formula_sum              "C720 H576 S96 P24 Fe48"
_cell_length_a       29.9489
_cell_length_b       42.391
_cell_length_c       26.6866
_cell_angle_alpha    90.0342
_cell_angle_beta     102.754
_cell_angle_gamma    90.0949

_space_group_name_H-M_alt    "P 1"
_space_group_IT_number       1

loop_
  _space_group_symop_operation_xyz
  'x, y, z'

loop_
  _atom_site_type_symbol
  _atom_site_label
  _atom_site_symmetry_multiplicity
  _atom_site_fract_x
  _atom_site_fract_y
  _atom_site_fract_z
  _atom_site_occupancy
  C   C1        1.0  0.21674  0.10693  0.01989  1.0000
  H   H1        1.0  0.11539  0.06511  0.11186  1.0000
  S   S1        1.0  0.16304  0.26441  0.40046  1.0000
  C   C2        1.0  0.37989  0.01049  0.15037  1.0000
  C   C3        1.0  0.01782  0.31946  0.36400  1.0000
  C   C4        1.0  0.18787  0.12653  0.15284  1.0000
  H   H2        1.0  0.28944  0.27390  0.21551  1.0000
  C   C5        1.0  0.04979  0.30168  0.39871  1.0000
  S   S2        1.0  0.98675  0.15335  0.14704  1.0000
  S   S3        1.0  0.40769  0.11944  0.19871  1.0000
  H   H3        1.0  0.15282  0.24257  0.24869  1.0000
  C   C6        1.0  0.39868  0.02805  0.05577  1.0000
  H   H4        1.0  0.08822  0.15236  0.18046  1.0000
  C   C7        1.0  0.01064  0.16896  0.02756  1.0000
  H   H5        1.0  0.10695  0.19233  0.10584  1.0000
  H   H6        1.0  0.30235  0.13501  0.42895  1.0000
  H   H7        1.0  0.03538  0.27439  0.13778  1.0000
  H   H8        1.0  0.23982  0.21722  0.28400  1.0000
  H   H9        1.0  0.19590  0.08175  0.11753  1.0000
  H   H10       1.0  0.17602  0.08399  0.49234  1.0000
  H   H11       1.0  0.04448  0.23086  0.08075  1.0000
  H   H12       1.0  0.09176  0.28196  0.21997  1.0000
  C   C8        1.0  0.27244  0.12748  0.49445  1.0000
  C   C9        1.0  0.39373  0.14097  0.14028  1.0000
  C   C10       1.0  0.34730  0.14494  0.11650  1.0000
  C   C11       1.0  0.33391  0.16431  0.07287  1.0000
  C   C12       1.0  0.36689  0.18081  0.05350  1.0000
  C   C13       1.0  0.41346  0.17626  0.07648  1.0000
  C   C14       1.0  0.42689  0.15617  0.11935  1.0000
  H   H13       1.0  0.32142  0.13378  0.13303  1.0000
  H   H14       1.0  0.36998  0.06003  0.16167  1.0000
  H   H15       1.0  0.43925  0.18888  0.06177  1.0000
  H   H16       1.0  0.14352  0.14622  0.36333  1.0000
  C   C15       1.0  0.43223  0.02869  0.44064  1.0000
  H   H17       1.0  0.98745  0.32549  0.50141  1.0000
  C   C16       1.0  0.40300  0.01889  0.47275  1.0000
  C   C17       1.0  0.38715  0.05101  0.08871  1.0000
  C   C18       1.0  0.03862  0.20476  0.31861  1.0000
  C   C19       1.0  0.06496  0.19670  0.36708  1.0000
  C   C20       1.0  0.10238  0.21531  0.39124  1.0000
  C   C21       1.0  0.11336  0.24319  0.36854  1.0000
  C   C22       1.0  0.08606  0.25224  0.32095  1.0000
  C   C23       1.0  0.04938  0.23270  0.29539  1.0000
  H   H18       1.0  0.05677  0.17553  0.38586  1.0000
  H   H19       1.0  0.12279  0.20807  0.42805  1.0000
  H   H20       1.0  0.09367  0.27413  0.30403  1.0000
  H   H21       1.0  0.02910  0.23935  0.25830  1.0000
  C   C24       1.0  0.27466  0.12411  0.44292  1.0000
  H   H22       1.0  0.20166  0.18061  0.41798  1.0000
  C   C25       1.0  0.12721  0.08787  0.12804  1.0000
  H   H23       1.0  0.19432  0.22354  0.11547  1.0000
  C   C26       1.0  0.24155  0.10634  0.40950  1.0000
  C   C27       1.0  0.20370  0.09534  0.47908  1.0000
  H   H24       1.0  0.18029  0.07837  0.40150  1.0000
  H   H25       1.0  0.24932  0.21623  0.37804  1.0000
  H   H26       1.0  0.13315  0.14712  0.26956  1.0000
  H   H27       1.0  0.07130  0.14036  0.03952  1.0000
  H   H28       1.0  0.08582  0.30749  0.40574  1.0000
  H   H29       1.0  0.30994  0.27731  0.02646  1.0000
  C   C28       1.0  0.26715  0.22565  0.12434  1.0000
  C   C29       1.0  0.30967  0.21540  0.15236  1.0000
  C   C30       1.0  0.31203  0.19503  0.19400  1.0000
  C   C31       1.0  0.27191  0.18534  0.20821  1.0000
  C   C32       1.0  0.22912  0.19653  0.18148  1.0000
  C   C33       1.0  0.22695  0.21608  0.13853  1.0000
  P   P1        1.0  0.17732  0.18426  0.20024  1.0000
  C   C34       1.0  0.15779  0.14667  0.17112  1.0000
  C   C35       1.0  0.18683  0.18154  0.26946  1.0000
  C   C36       1.0  0.15960  0.16167  0.29251  1.0000
  C   C37       1.0  0.16539  0.16106  0.34593  1.0000
  C   C38       1.0  0.19808  0.18045  0.37674  1.0000
  C   C39       1.0  0.22505  0.20046  0.35420  1.0000
  C   C40       1.0  0.21945  0.20103  0.30082  1.0000
  C   C41       1.0  0.11213  0.13716  0.16697  1.0000
  C   C42       1.0  0.05475  0.16151  0.02199  1.0000
  H   H30       1.0  0.06068  0.26230  0.45072  1.0000
  C   C43       1.0  0.18148  0.31557  0.24143  1.0000
  C   C44       1.0  0.25557  0.08888  0.03971  1.0000
  C   C45       1.0  0.13377  0.21386  0.17991  1.0000
  C   C46       1.0  0.10356  0.21132  0.13183  1.0000
  C   C47       1.0  0.06827  0.23315  0.11716  1.0000
  C   C48       1.0  0.06345  0.25809  0.14937  1.0000
  C   C49       1.0  0.09489  0.26194  0.19593  1.0000
  C   C50       1.0  0.12969  0.23970  0.21165  1.0000
  H   H31       1.0  0.26543  0.24040  0.09089  1.0000
  H   H32       1.0  0.34075  0.22212  0.14046  1.0000
  H   H33       1.0  0.34497  0.18590  0.21416  1.0000
  H   H34       1.0  0.27436  0.16891  0.23976  1.0000
  C   C51       1.0  0.17257  0.09721  0.13151  1.0000
  H   H35       1.0  0.24348  0.10362  0.36963  1.0000
  C   C52       1.0  0.23086  0.30279  0.18365  1.0000
  C   C53       1.0  0.20932  0.29764  0.27993  1.0000
  H   H36       1.0  0.46273  0.15356  0.13751  1.0000
  H   H37       1.0  0.20066  0.29528  0.31707  1.0000
  H   H38       1.0  0.06154  0.10078  0.14212  1.0000
  H   H39       1.0  0.09487  0.06988  0.01897  1.0000
  H   H40       1.0  0.02122  0.09460  0.02360  1.0000
  H   H41       1.0  0.38589  0.07580  0.07848  1.0000
  H   H42       1.0  0.42143  0.02623  0.39939  1.0000
  C   C54       1.0  0.47380  0.08324  0.04879  1.0000
  H   H43       1.0  0.28576  0.09987  0.06291  1.0000
  C   C55       1.0  0.03557  0.27616  0.42434  1.0000
  H   H44       1.0  0.99256  0.15278  0.04706  1.0000
  Fe  Fe1       1.0  0.17694  0.31755  0.40681  1.0000
  C   C56       1.0  0.37787  0.04219  0.13585  1.0000
  H   H45       1.0  0.22308  0.13328  0.15488  1.0000
  S   S4        1.0  0.46129  0.04591  0.26679  1.0000
  C   C57       1.0  0.20594  0.09215  0.42749  1.0000
  H   H46       1.0  0.14837  0.27479  0.11848  1.0000
  C   C58       1.0  0.09692  0.10792  0.14543  1.0000
  C   C59       1.0  0.24850  0.28301  0.27084  1.0000
  C   C60       1.0  0.25560  0.05666  0.02911  1.0000
  H   H47       1.0  0.27079  0.27007  0.30142  1.0000
  H   H48       1.0  0.29797  0.16772  0.05587  1.0000
  H   H49       1.0  0.98868  0.33141  0.11543  1.0000
  H   H50       1.0  0.21664  0.13198  0.02814  1.0000
  H   H51       1.0  0.99602  0.01227  0.05582  1.0000
  H   H52       1.0  0.28588  0.04271  0.04418  1.0000
  H   H53       1.0  0.23992  0.30475  0.14672  1.0000
  C   C61       1.0  0.13619  0.27063  0.03667  1.0000
  C   C62       1.0  0.14522  0.28752  0.08279  1.0000
  C   C63       1.0  0.27022  0.31826  0.03736  1.0000
  C   C64       1.0  0.47562  0.04111  0.46204  1.0000
  H   H54       1.0  0.37402  0.00386  0.18760  1.0000
  C   C65       1.0  0.98930  0.26811  0.41495  1.0000
  H   H55       1.0  0.06309  0.32142  0.09392  1.0000
  S   S5        1.0  0.99086  0.18008  0.29220  1.0000
  H   H56       1.0  0.24797  0.30525  0.05686  1.0000
  C   C66       1.0  0.25908  0.28535  0.22258  1.0000
  H   H57       1.0  0.13275  0.24514  0.03695  1.0000
  H   H58       1.0  0.98535  0.28816  0.26729  1.0000
  H   H59       1.0  0.36980  0.00902  0.45561  1.0000
  Fe  Fe2       1.0  0.47403  0.09401  0.23621  1.0000
  C   C67       1.0  0.14933  0.32052  0.08267  1.0000
  H   H60       1.0  0.15220  0.32728  0.25028  1.0000
  C   C68       1.0  0.19183  0.31815  0.19275  1.0000
  C   C69       1.0  0.30484  0.30246  0.01993  1.0000
  H   H61       1.0  0.26651  0.24896  0.48606  1.0000
  C   C70       1.0  0.99097  0.19786  0.01008  1.0000
  C   C71       1.0  0.15390  0.05704  0.77065  1.0000
  S   S6        1.0  0.38405  0.06907  0.80755  1.0000
  Fe  Fe3       1.0  0.17732  0.19885  0.95030  1.0000
  S   S7        1.0  0.22129  0.24082  0.97935  1.0000
  H   H62       1.0  0.17136  0.23020  0.76167  1.0000
  Fe  Fe4       1.0  0.21643  0.19179  0.85585  1.0000
  S   S8        1.0  0.26295  0.23326  0.87749  1.0000
  S   S9        1.0  0.21578  0.16262  0.78499  1.0000
  Fe  Fe5       1.0  0.27769  0.21288  0.95730  1.0000
  Fe  Fe6       1.0  0.20174  0.25720  0.89682  1.0000
  S   S10       1.0  0.18868  0.30876  0.87259  1.0000
  S   S11       1.0  0.23511  0.16986  0.93378  1.0000
  S   S12       1.0  0.15384  0.21673  0.86958  1.0000
  H   H63       1.0  0.35960  0.30659  0.98009  1.0000
  C   C72       1.0  0.45931  0.03455  0.54799  1.0000
  H   H64       1.0  0.06586  0.31583  0.59992  1.0000
  C   C73       1.0  0.33612  0.09391  0.80309  1.0000
  C   C74       1.0  0.29486  0.08751  0.76824  1.0000
  C   C75       1.0  0.25808  0.10867  0.76280  1.0000
  C   C76       1.0  0.26185  0.13592  0.79323  1.0000
  C   C77       1.0  0.30259  0.14189  0.82921  1.0000
  C   C78       1.0  0.33983  0.12117  0.83360  1.0000
  H   H65       1.0  0.29143  0.06654  0.74480  1.0000
  H   H66       1.0  0.22666  0.10370  0.73514  1.0000
  H   H67       1.0  0.30570  0.16279  0.85302  1.0000
  H   H68       1.0  0.37157  0.12641  0.86053  1.0000
  H   H69       1.0  0.12457  0.27352  0.95412  1.0000
  H   H70       1.0  0.27141  0.30396  0.51731  1.0000
  H   H71       1.0  0.13806  0.01179  0.63812  1.0000
  H   H72       1.0  0.42149  0.19030  0.73025  1.0000
  C   C79       1.0  0.15108  0.07780  0.85442  1.0000
  C   C80       1.0  0.15856  0.08228  0.80506  1.0000
  C   C81       1.0  0.39401  0.19814  0.79732  1.0000
  C   C82       1.0  0.28941  0.07410  0.91256  1.0000
  C   C83       1.0  0.28028  0.22878  0.56220  1.0000
  H   H73       1.0  0.06222  0.00841  0.97992  1.0000
  H   H74       1.0  0.21382  0.00408  0.61731  1.0000
  H   H75       1.0  0.16053  0.32768  0.71699  1.0000
  H   H76       1.0  0.16104  0.06038  0.73298  1.0000
  C   C84       1.0  0.33909  0.24438  0.73844  1.0000
  H   H77       1.0  0.16839  0.10534  0.79379  1.0000
  S   S13       1.0  0.32129  0.02033  0.68251  1.0000
  H   H78       1.0  0.36205  0.21227  0.85865  1.0000
  C   C85       1.0  0.36869  0.08871  0.63285  1.0000
  C   C86       1.0  0.33389  0.31059  0.72005  1.0000
  C   C87       1.0  0.22845  0.24905  0.73435  1.0000
  C   C88       1.0  0.13141  0.02312  0.83390  1.0000
  C   C89       1.0  0.38238  0.10558  0.67861  1.0000
  C   C90       1.0  0.13994  0.02755  0.78490  1.0000
  H   H79       1.0  0.24650  0.22673  0.73906  1.0000
  C   C91       1.0  0.17798  0.18885  0.64622  1.0000
  C   C92       1.0  0.16611  0.21068  0.60633  1.0000
  H   H80       1.0  0.14875  0.10753  0.97293  1.0000
  H   H81       1.0  0.41527  0.09195  0.92466  1.0000
  C   C93       1.0  0.20820  0.15345  0.59006  1.0000
  C   C94       1.0  0.19885  0.16042  0.63817  1.0000
  P   P2        1.0  0.23544  0.11650  0.58004  1.0000
  C   C95       1.0  0.20354  0.08347  0.59744  1.0000
  C   C96       1.0  0.28841  0.23500  0.61493  1.0000
  H   H82       1.0  0.41446  0.17987  0.81981  1.0000
  C   C97       1.0  0.32469  0.09278  0.60245  1.0000
  C   C98       1.0  0.22231  0.05303  0.60019  1.0000
  C   C99       1.0  0.19862  0.02739  0.61460  1.0000
  C   C100      1.0  0.15579  0.03176  0.62605  1.0000
  C   C101      1.0  0.13148  0.28654  0.99001  1.0000
  H   H83       1.0  0.31535  0.25396  0.80762  1.0000
  C   C102      1.0  0.29380  0.11389  0.61748  1.0000
  C   C103      1.0  0.30847  0.13143  0.66288  1.0000
  C   C104      1.0  0.35245  0.12714  0.69328  1.0000
  H   H84       1.0  0.17097  0.19379  0.68359  1.0000
  H   H85       1.0  0.15046  0.23290  0.61294  1.0000
  C   C105      1.0  0.37067  0.22713  0.71755  1.0000
  C   C106      1.0  0.33745  0.23960  0.78999  1.0000
  H   H86       1.0  0.20728  0.14377  0.66959  1.0000
  H   H87       1.0  0.12834  0.28063  0.75131  1.0000
  H   H88       1.0  0.25532  0.04885  0.59134  1.0000
  H   H89       1.0  0.27855  0.20468  0.54856  1.0000
  H   H90       1.0  0.30547  0.31734  0.78737  1.0000
  C   C107      1.0  0.28557  0.29112  0.59740  1.0000
  S   S14       1.0  0.13666  0.17388  0.99947  1.0000
  H   H91       1.0  0.28606  0.14772  0.67628  1.0000
  H   H92       1.0  0.36262  0.13954  0.72951  1.0000
  C   C108      1.0  0.27128  0.04835  0.88203  1.0000
  C   C109      1.0  0.33178  0.07147  0.94715  1.0000
  C   C110      1.0  0.27381  0.25364  0.52703  1.0000
  C   C111      1.0  0.27634  0.28473  0.54466  1.0000
  C   C112      1.0  0.18552  0.25081  0.74674  1.0000
  H   H93       1.0  0.29138  0.21539  0.64147  1.0000
  H   H94       1.0  0.09351  0.28577  0.85387  1.0000
  C   C113      1.0  0.35667  0.04317  0.95063  1.0000
  H   H95       1.0  0.37471  0.23168  0.67890  1.0000
  C   C114      1.0  0.17948  0.30572  0.72148  1.0000
  C   C115      1.0  0.17807  0.09287  0.98882  1.0000
  C   C116      1.0  0.23728  0.11274  0.51307  1.0000
  Fe  Fe7       1.0  0.37327  0.02564  0.75667  1.0000
  H   H96       1.0  0.45713  0.14260  0.93569  1.0000
  C   C117      1.0  0.07684  0.06315  0.93667  1.0000
  C   C118      1.0  0.39768  0.20388  0.74678  1.0000
  C   C119      1.0  0.29261  0.26626  0.63301  1.0000
  C   C120      1.0  0.17423  0.20372  0.55793  1.0000
  P   P3        1.0  0.30338  0.27418  0.70113  1.0000
  H   H97       1.0  0.07525  0.22524  0.95331  1.0000
  C   C121      1.0  0.36432  0.21628  0.81912  1.0000
  C   C122      1.0  0.99387  0.09209  0.94217  1.0000
  H   H98       1.0  0.10267  0.06513  0.63040  1.0000
  H   H99       1.0  0.99819  0.23989  0.96697  1.0000
  H   H100      1.0  0.14343  0.11042  0.60396  1.0000
  P   P4        1.0  0.41135  0.03960  0.99537  1.0000
  S   S15       1.0  0.37816  0.00774  0.56508  1.0000
  C   C123      1.0  0.44261  0.07630  0.00255  1.0000
  P   P5        1.0  0.12920  0.04286  0.93377  1.0000
  C   C124      1.0  0.05724  0.20951  0.97389  1.0000
  C   C125      1.0  0.29470  0.01968  0.88708  1.0000
  C   C126      1.0  0.04205  0.06683  0.89218  1.0000
  H   H101      1.0  0.41576  0.10142  0.70330  1.0000
  C   C127      1.0  0.17777  0.06046  0.97764  1.0000
  C   C128      1.0  0.24783  0.27596  0.71692  1.0000
  H   H102      1.0  0.31472  0.07873  0.56783  1.0000
  C   C129      1.0  0.06912  0.07331  0.98409  1.0000
  H   H103      1.0  0.16488  0.22063  0.52686  1.0000
  H   H104      1.0  0.39169  0.07171  0.62153  1.0000
  C   C130      1.0  0.13613  0.31928  0.98950  1.0000
  C   C131      1.0  0.13834  0.04800  0.86961  1.0000
  C   C132      1.0  0.19492  0.17515  0.54968  1.0000
  C   C133      1.0  0.44879  0.01197  0.97334  1.0000
  C   C134      1.0  0.13609  0.06178  0.62191  1.0000
  C   C135      1.0  0.07862  0.18203  0.99639  1.0000
  H   H105      1.0  0.15518  0.09770  0.88051  1.0000
  C   C136      1.0  0.01342  0.21758  0.98111  1.0000
  H   H106      1.0  0.34520  0.09167  0.97061  1.0000
  H   H107      1.0  0.04628  0.05807  0.85541  1.0000
  C   C137      1.0  0.09349  0.30957  0.83927  1.0000
  C   C138      1.0  0.41639  0.02141  0.52669  1.0000
  C   C139      1.0  0.43771  0.09748  0.96134  1.0000
  C   C140      1.0  0.46193  0.12597  0.96721  1.0000
  H   H108      1.0  0.01959  0.31297  0.81900  1.0000
  C   C141      1.0  0.22244  0.30406  0.70909  1.0000
  C   C142      1.0  0.33288  0.31901  0.99361  1.0000
  H   H109      1.0  0.27097  0.09627  0.90880  1.0000
  C   C143      1.0  0.00084  0.08144  0.89497  1.0000
  C   C144      1.0  0.02758  0.08742  0.98681  1.0000
  C   C145      1.0  0.16119  0.27916  0.74065  1.0000
  C   C146      1.0  0.15968  0.08754  0.60735  1.0000
  H   H110      1.0  0.13282  0.33124  0.95305  1.0000
  H   H111      1.0  0.23926  0.05063  0.85415  1.0000
  C   C147      1.0  0.36593  0.32196  0.69316  1.0000
  C   C148      1.0  0.44528  0.00709  0.92051  1.0000
  C   C149      1.0  0.32878  0.32629  0.76489  1.0000
  H   H112      1.0  0.42025  0.01980  0.89218  1.0000
  H   H113      1.0  0.13565  0.00808  0.75797  1.0000
  H   H114      1.0  0.28714  0.31549  0.61002  1.0000
  S   S16       1.0  0.35107  0.20901  0.00347  1.0000
  C   C150      1.0  0.33691  0.01692  0.92185  1.0000
  H   H115      1.0  0.21852  0.01769  0.99000  1.0000
  H   H116      1.0  0.37164  0.30980  0.65942  1.0000
  H   H117      1.0  0.20071  0.17037  0.51184  1.0000
  H   H118      1.0  0.23608  0.32477  0.69402  1.0000
  H   H119      1.0  0.47000  0.03729  0.58919  1.0000
  S   S17       1.0  0.43099  0.00782  0.72287  1.0000
  H   H120      1.0  0.29856  0.14117  0.51993  1.0000
  C   C151      1.0  0.13504  0.32544  0.84222  1.0000
  C   C152      1.0  0.05153  0.32501  0.81921  1.0000
  C   C153      1.0  0.21698  0.04250  0.99820  1.0000
  S   S18       1.0  0.20770  0.40638  0.43343  1.0000
  Fe  Fe8       1.0  0.20252  0.37931  0.36052  1.0000
  S   S19       1.0  0.20622  0.40571  0.28815  1.0000
  Fe  Fe9       1.0  0.37818  0.57170  0.13694  1.0000
  S   S20       1.0  0.43209  0.55059  0.19953  1.0000
  S   S21       1.0  0.37798  0.57112  0.05087  1.0000
  Fe  Fe10      1.0  0.32428  0.59751  0.21467  1.0000
  S   S22       1.0  0.37532  0.57807  0.28250  1.0000
  S   S23       1.0  0.26803  0.63079  0.22836  1.0000
  Fe  Fe11      1.0  0.42936  0.59567  0.24351  1.0000
  C   C154      1.0  0.09828  0.37056  0.19640  1.0000
  Fe  Fe12      1.0  0.37360  0.53476  0.23372  1.0000
  S   S24       1.0  0.38016  0.48660  0.27098  1.0000
  S   S25       1.0  0.37928  0.61825  0.17834  1.0000
  S   S26       1.0  0.31891  0.55267  0.16805  1.0000
  Fe  Fe13      1.0  0.14341  0.38033  0.43888  1.0000
  C   C155      1.0  0.99283  0.35055  0.49807  1.0000
  S   S27       1.0  0.07474  0.59895  0.28202  1.0000
  S   S28       1.0  0.00628  0.61404  0.38800  1.0000
  C   C156      1.0  0.21423  0.62152  0.24289  1.0000
  C   C157      1.0  0.19658  0.59084  0.23886  1.0000
  C   C158      1.0  0.15367  0.58461  0.25051  1.0000
  C   C159      1.0  0.12783  0.60885  0.26639  1.0000
  C   C160      1.0  0.14530  0.63961  0.27007  1.0000
  C   C161      1.0  0.18824  0.64585  0.25840  1.0000
  H   H121      1.0  0.21582  0.57193  0.22646  1.0000
  H   H122      1.0  0.14040  0.56075  0.24735  1.0000
  H   H123      1.0  0.09469  0.60945  0.48546  1.0000
  H   H124      1.0  0.12851  0.38196  0.21895  1.0000
  C   C162      1.0  0.33079  0.46643  0.27957  1.0000
  C   C163      1.0  0.33590  0.43959  0.31107  1.0000
  C   C164      1.0  0.29752  0.42182  0.31635  1.0000
  C   C165      1.0  0.25380  0.43053  0.28943  1.0000
  C   C166      1.0  0.24849  0.45793  0.25916  1.0000
  C   C167      1.0  0.28687  0.47590  0.25429  1.0000
  H   H125      1.0  0.36976  0.43222  0.33092  1.0000
  H   H126      1.0  0.30195  0.40072  0.33970  1.0000
  H   H127      1.0  0.21471  0.46483  0.23836  1.0000
  H   H128      1.0  0.28253  0.49660  0.23005  1.0000
  C   C168      1.0  0.25149  0.41379  0.16135  1.0000
  C   C169      1.0  0.46852  0.51825  0.38383  1.0000
  C   C170      1.0  0.03200  0.36169  0.48231  1.0000
  C   C171      1.0  0.16680  0.57068  0.42368  1.0000
  S   S29       1.0  0.08720  0.40978  0.45891  1.0000
  H   H129      1.0  0.01235  0.44043  0.48782  1.0000
  H   H130      1.0  0.05675  0.34534  0.47359  1.0000
  H   H131      1.0  0.34412  0.50844  0.07294  1.0000
  C   C172      1.0  0.28944  0.63427  0.38922  1.0000
  C   C173      1.0  0.45428  0.53562  0.04122  1.0000
  C   C174      1.0  0.17996  0.59640  0.39705  1.0000
  H   H132      1.0  0.46081  0.53215  0.08235  1.0000
  H   H133      1.0  0.36764  0.64408  0.05784  1.0000
  H   H134      1.0  0.98363  0.36574  0.18913  1.0000
  C   C175      1.0  0.01647  0.36163  0.17975  1.0000
  C   C176      1.0  0.36782  0.61716  0.39771  1.0000
  H   H135      1.0  0.47579  0.50090  0.35686  1.0000
  H   H136      1.0  0.32686  0.39313  0.09534  1.0000
  Fe  Fe14      1.0  0.24505  0.36438  0.47268  1.0000
  C   C177      1.0  0.29251  0.62783  0.44122  1.0000
  C   C178      1.0  0.47772  0.55013  0.37749  1.0000
  C   C179      1.0  0.27821  0.51570  0.42765  1.0000
  C   C180      1.0  0.33014  0.41822  0.08970  1.0000
  H   H137      1.0  0.13288  0.45023  0.28000  1.0000
  H   H138      1.0  0.23717  0.36265  0.04290  1.0000
  H   H139      1.0  0.18857  0.47437  0.35157  1.0000
  H   H140      1.0  0.25799  0.64338  0.36543  1.0000
  C   C181      1.0  0.35833  0.46907  0.12492  1.0000
  H   H141      1.0  0.44502  0.65723  0.33600  1.0000
  H   H142      1.0  0.32521  0.63487  0.32769  1.0000
  H   H143      1.0  0.09034  0.54753  0.36156  1.0000
  H   H144      1.0  0.24270  0.46152  0.13364  1.0000
  C   C182      1.0  0.00753  0.41532  0.49095  1.0000
  C   C183      1.0  0.33998  0.48326  0.07768  1.0000
  C   C184      1.0  0.43752  0.53130  0.45780  1.0000
  C   C185      1.0  0.37080  0.60945  0.44947  1.0000
  C   C186      1.0  0.16288  0.62657  0.40279  1.0000
  C   C187      1.0  0.35369  0.43658  0.13083  1.0000
  H   H145      1.0  0.11804  0.65451  0.43789  1.0000
  H   H146      1.0  0.36814  0.42576  0.16766  1.0000
  H   H147      1.0  0.37629  0.48323  0.15698  1.0000
  C   C188      1.0  0.10182  0.35013  0.15601  1.0000
  H   H148      1.0  0.28613  0.41779  0.18300  1.0000
  C   C189      1.0  0.24333  0.54101  0.34740  1.0000
  C   C190      1.0  0.05588  0.37598  0.20863  1.0000
  Fe  Fe15      1.0  0.01591  0.62407  0.30812  1.0000
  C   C191      1.0  0.44437  0.56357  0.45006  1.0000
  H   H149      1.0  0.05656  0.47466  0.24844  1.0000
  C   C192      1.0  0.44920  0.50880  0.42451  1.0000
  H   H150      1.0  0.16121  0.45364  0.09006  1.0000
  C   C193      1.0  0.17332  0.47882  0.47381  1.0000
  C   C194      1.0  0.06892  0.51240  0.30384  1.0000
  C   C195      1.0  0.08061  0.48504  0.28051  1.0000
  C   C196      1.0  0.12364  0.47137  0.29813  1.0000
  C   C197      1.0  0.15519  0.48518  0.33877  1.0000
  C   C198      1.0  0.14374  0.51279  0.36226  1.0000
  C   C199      1.0  0.10017  0.52610  0.34479  1.0000
  P   P6        1.0  0.18505  0.53090  0.41391  1.0000
  H   H151      1.0  0.28727  0.54856  0.29474  1.0000
  C   C200      1.0  0.32730  0.62931  0.36776  1.0000
  H   H152      1.0  0.34845  0.50173  0.43564  1.0000
  H   H153      1.0  0.27636  0.50511  0.46394  1.0000
  S   S30       1.0  0.18096  0.34022  0.48422  1.0000
  C   C201      1.0  0.23979  0.52992  0.39581  1.0000
  C   C202      1.0  0.32327  0.52631  0.36458  1.0000
  H   H154      1.0  0.03602  0.52360  0.28969  1.0000
  H   H155      1.0  0.17198  0.64610  0.38084  1.0000
  S   S31       1.0  0.13503  0.35642  0.36241  1.0000
  C   C203      1.0  0.41629  0.55331  0.01668  1.0000
  C   C204      1.0  0.22671  0.43858  0.13410  1.0000
  C   C205      1.0  0.31959  0.51375  0.41182  1.0000
  C   C206      1.0  0.19001  0.50969  0.47333  1.0000
  C   C207      1.0  0.16004  0.40472  0.11176  1.0000
  H   H156      1.0  0.15355  0.46790  0.43929  1.0000
  C   C208      1.0  0.33317  0.61586  0.47144  1.0000
  H   H157      1.0  0.44233  0.48401  0.42956  1.0000
  H   H158      1.0  0.98121  0.46338  0.30238  1.0000
  C   C209      1.0  0.18087  0.43411  0.10964  1.0000
  C   C210      1.0  0.31663  0.46502  0.03644  1.0000
  H   H159      1.0  0.12426  0.40178  0.09326  1.0000
  H   H160      1.0  0.35533  0.52461  0.35229  1.0000
  C   C211      1.0  0.01937  0.34219  0.13830  1.0000
  H   H161      1.0  0.14737  0.36170  0.03394  1.0000
  C   C212      1.0  0.23090  0.38441  0.16356  1.0000
  C   C213      1.0  0.18503  0.37954  0.13843  1.0000
  P   P7        1.0  0.42349  0.59345  0.48771  1.0000
  H   H162      1.0  0.05376  0.39131  0.24059  1.0000
  H   H163      1.0  0.12569  0.65854  0.28181  1.0000
  H   H164      1.0  0.20215  0.59334  0.37061  1.0000
  C   C214      1.0  0.45406  0.65597  0.49662  1.0000
  C   C215      1.0  0.28503  0.53981  0.33224  1.0000
  H   H165      1.0  0.25058  0.36615  0.18663  1.0000
  H   H166      1.0  0.00238  0.43345  0.38365  1.0000
  C   C216      1.0  0.03945  0.39418  0.47896  1.0000
  H   H167      1.0  0.21351  0.55003  0.32101  1.0000
  H   H168      1.0  0.39669  0.61403  0.38017  1.0000
  C   C217      1.0  0.31114  0.43235  0.04218  1.0000
  C   C218      1.0  0.11929  0.60591  0.46168  1.0000
  C   C219      1.0  0.26376  0.35066  0.02866  1.0000
  C   C220      1.0  0.13619  0.57571  0.45594  1.0000
  P   P8        1.0  0.15731  0.34204  0.14254  1.0000
  C   C221      1.0  0.13244  0.63132  0.43489  1.0000
  H   H169      1.0  0.47302  0.59731  0.40452  1.0000
  H   H170      1.0  0.41888  0.66298  0.48200  1.0000
  H   H171      1.0  0.22549  0.46273  0.01000  1.0000
  C   C222      1.0  0.98310  0.42194  0.34926  1.0000
  H   H172      1.0  0.12417  0.55610  0.47537  1.0000
  C   C223      1.0  0.39648  0.65360  0.04423  1.0000
  H   H173      1.0  0.02972  0.33888  0.34401  1.0000
  H   H174      1.0  0.97952  0.37779  0.38701  1.0000
  H   H175      1.0  0.06629  0.48043  0.50515  1.0000
  H   H176      1.0  0.26340  0.63225  0.45815  1.0000
  C   C224      1.0  0.46609  0.57268  0.41067  1.0000
  C   C225      1.0  0.06182  0.33655  0.12626  1.0000
  C   C226      1.0  0.46626  0.62400  0.50236  1.0000
  H   H177      1.0  0.42261  0.52325  0.48884  1.0000
  S   S32       1.0  0.24442  0.33847  0.39866  1.0000
  C   C227      1.0  0.14470  0.33633  0.03555  1.0000
  S   S33       1.0  0.39220  0.48015  0.68020  1.0000
  H   H178      1.0  0.43292  0.42026  0.65743  1.0000
  C   C228      1.0  0.37625  0.55638  0.54548  1.0000
  C   C229      1.0  0.29097  0.36728  0.00089  1.0000
  H   H179      1.0  0.34817  0.36361  0.96352  1.0000
  H   H180      1.0  0.21783  0.46022  0.59830  1.0000
  H   H181      1.0  0.30097  0.47734  0.72110  1.0000
  H   H182      1.0  0.35060  0.36525  0.81648  1.0000
  H   H183      1.0  0.40600  0.38574  0.76736  1.0000
  C   C230      1.0  0.27982  0.45650  0.71082  1.0000
  H   H184      1.0  0.17111  0.43714  0.51915  1.0000
  C   C231      1.0  0.05053  0.35626  0.80112  1.0000
  C   C232      1.0  0.08077  0.33828  0.61414  1.0000
  C   C233      1.0  0.09218  0.37185  0.80395  1.0000
  C   C234      1.0  0.42913  0.57589  0.64027  1.0000
  H   H185      1.0  0.09185  0.39637  0.79345  1.0000
  H   H186      1.0  0.16585  0.36920  0.82628  1.0000
  C   C235      1.0  0.40841  0.55738  0.96305  1.0000
  C   C236      1.0  0.43801  0.54409  0.93426  1.0000
  C   C237      1.0  0.44076  0.65638  0.97855  1.0000
  H   H187      1.0  0.30982  0.47316  0.60323  1.0000
  H   H188      1.0  0.37903  0.57081  0.94351  1.0000
  H   H189      1.0  0.99581  0.56311  0.55880  1.0000
  C   C238      1.0  0.37370  0.44987  0.63424  1.0000
  C   C239      1.0  0.39914  0.42239  0.63275  1.0000
  C   C240      1.0  0.38008  0.39711  0.60059  1.0000
  H   H190      1.0  0.33866  0.52859  0.59004  1.0000
  C   C241      1.0  0.32980  0.45214  0.60200  1.0000
  C   C242      1.0  0.27386  0.40070  0.69177  1.0000
  H   H191      1.0  0.14280  0.47274  0.98918  1.0000
  C   C243      1.0  0.39163  0.34904  0.71023  1.0000
  C   C244      1.0  0.12554  0.42816  0.95112  1.0000
  C   C245      1.0  0.21458  0.52328  0.51927  1.0000
  C   C246      1.0  0.36629  0.54527  0.59111  1.0000
  H   H192      1.0  0.44541  0.64907  0.94112  1.0000
  H   H193      1.0  0.99466  0.64699  0.71530  1.0000
  C   C247      1.0  0.22401  0.50565  0.56458  1.0000
  C   C248      1.0  0.31083  0.42692  0.56976  1.0000
  H   H194      1.0  0.39970  0.37577  0.60006  1.0000
  C   C249      1.0  0.18324  0.46121  0.51909  1.0000
  H   H195      1.0  0.08896  0.43259  0.94201  1.0000
  C   C250      1.0  0.41292  0.57737  0.54689  1.0000
  C   C251      1.0  0.33559  0.39902  0.56966  1.0000
  H   H196      1.0  0.08869  0.47125  0.85700  1.0000
  H   H197      1.0  0.37939  0.62855  0.97250  1.0000
  H   H198      1.0  0.11865  0.38272  0.91469  1.0000
  H   H199      1.0  0.24401  0.40112  0.87707  1.0000
  H   H200      1.0  0.38483  0.54671  0.67387  1.0000
  C   C252      1.0  0.22036  0.41651  0.97404  1.0000
  H   H201      1.0  0.22785  0.54708  0.51952  1.0000
  H   H202      1.0  0.07647  0.39231  0.70624  1.0000
  H   H203      1.0  0.41655  0.35764  0.68959  1.0000
  C   C253      1.0  0.30316  0.41896  0.93198  1.0000
  H   H204      1.0  0.33755  0.42602  0.71237  1.0000
  C   C254      1.0  0.18950  0.39406  0.94706  1.0000
  C   C255      1.0  0.14236  0.39994  0.93577  1.0000
  S   S34       1.0  0.46986  0.53557  0.77479  1.0000
  C   C256      1.0  0.43942  0.58692  0.59482  1.0000
  P   P9        1.0  0.28149  0.40891  0.98815  1.0000
  C   C257      1.0  0.34699  0.43236  0.93734  1.0000
  C   C258      1.0  0.36359  0.44028  0.89395  1.0000
  C   C259      1.0  0.33708  0.43431  0.84488  1.0000
  H   H205      1.0  0.07698  0.53554  0.53534  1.0000
  C   C260      1.0  0.27714  0.41242  0.88248  1.0000
  C   C261      1.0  0.20904  0.47443  0.56411  1.0000
  C   C262      1.0  0.06905  0.35224  0.65682  1.0000
  H   H206      1.0  0.20669  0.38117  0.67392  1.0000
  C   C263      1.0  0.40313  0.64484  0.99596  1.0000
  H   H207      1.0  0.09235  0.43666  0.56419  1.0000
  H   H208      1.0  0.15146  0.39508  0.58575  1.0000
  H   H209      1.0  0.05771  0.46045  0.69323  1.0000
  C   C264      1.0  0.08397  0.48531  0.54434  1.0000
  H   H210      1.0  0.20172  0.37199  0.93442  1.0000
  H   H211      1.0  0.27382  0.41495  0.80120  1.0000
  C   C265      1.0  0.29405  0.42013  0.83918  1.0000
  C   C266      1.0  0.09058  0.51646  0.56116  1.0000
  H   H212      1.0  0.36868  0.43669  0.97491  1.0000
  H   H213      1.0  0.04498  0.34072  0.67589  1.0000
  H   H214      1.0  0.39715  0.45111  0.89840  1.0000
  H   H215      1.0  0.35019  0.44055  0.81143  1.0000
  H   H216      1.0  0.24392  0.51583  0.59973  1.0000
  C   C267      1.0  0.15586  0.45071  0.97756  1.0000
  C   C268      1.0  0.20302  0.44492  0.98915  1.0000
  H   H217      1.0  0.46792  0.60304  0.59789  1.0000
  C   C269      1.0  0.30060  0.42756  0.70580  1.0000
  H   H218      1.0  0.03442  0.47615  0.77254  1.0000
  H   H219      1.0  0.21682  0.48126  0.70574  1.0000
  C   C270      1.0  0.11306  0.52286  0.61175  1.0000
  C   C271      1.0  0.12910  0.49808  0.64547  1.0000
  C   C272      1.0  0.12277  0.46655  0.62891  1.0000
  C   C273      1.0  0.09938  0.46042  0.57813  1.0000
  P   P10       1.0  0.14282  0.43479  0.67376  1.0000
  C   C274      1.0  0.20471  0.43179  0.68667  1.0000
  C   C275      1.0  0.12577  0.44554  0.73230  1.0000
  C   C276      1.0  0.15627  0.44255  0.78029  1.0000
  C   C277      1.0  0.14309  0.45209  0.82510  1.0000
  C   C278      1.0  0.09922  0.46422  0.82234  1.0000
  C   C279      1.0  0.06860  0.46700  0.77477  1.0000
  C   C280      1.0  0.08183  0.45786  0.72987  1.0000
  C   C281      1.0  0.22622  0.40262  0.68322  1.0000
  C   C282      1.0  0.39246  0.55529  0.63844  1.0000
  C   C283      1.0  0.23210  0.45863  0.70162  1.0000
  C   C284      1.0  0.11733  0.39744  0.64937  1.0000
  C   C285      1.0  0.08731  0.38162  0.67433  1.0000
  C   C286      1.0  0.11078  0.35374  0.58904  1.0000
  C   C287      1.0  0.12872  0.38328  0.60620  1.0000
  H   H220      1.0  0.11929  0.34316  0.55548  1.0000
  H   H221      1.0  0.11689  0.54702  0.62517  1.0000
  H   H222      1.0  0.14490  0.50361  0.68496  1.0000
  H   H223      1.0  0.29016  0.37844  0.68692  1.0000
  H   H224      1.0  0.19002  0.43269  0.78336  1.0000
  H   H225      1.0  0.16669  0.44971  0.86200  1.0000
  S   S35       1.0  0.99763  0.37717  0.78590  1.0000
  C   C288      1.0  0.35449  0.35339  0.78173  1.0000
  H   H226      1.0  0.43139  0.54747  0.89310  1.0000
  H   H227      1.0  0.44985  0.58323  0.67706  1.0000
  C   C289      1.0  0.13408  0.35648  0.82359  1.0000
  Fe  Fe16      1.0  0.46444  0.49117  0.72679  1.0000
  C   C290      1.0  0.38580  0.36483  0.75429  1.0000
  H   H228      1.0  0.33497  0.61182  0.51184  1.0000
  C   C291      1.0  0.32613  0.35132  0.98418  1.0000
  S   S36       1.0  0.98545  0.41148  0.64095  1.0000
  H   H229      1.0  0.02693  0.65697  0.63877  1.0000
  S   S37       1.0  0.31143  0.36533  0.53419  1.0000
  H   H230      1.0  0.27670  0.42871  0.54595  1.0000
  C   C292      1.0  0.47601  0.52646  0.95878  1.0000
  S   S38       1.0  0.98494  0.50411  0.60902  1.0000
  H   H231      1.0  0.30319  0.47647  0.99994  1.0000
  C   C293      1.0  0.98656  0.66871  0.69380  1.0000
  H   H232      1.0  0.35516  0.54883  0.50911  1.0000
  H   H233      1.0  0.03564  0.93822  0.08268  1.0000
  C   C294      1.0  0.39884  0.99610  0.06969  1.0000
  H   H234      1.0  0.00399  0.96843  0.14649  1.0000
  C   C295      1.0  0.98118  0.95797  0.11344  1.0000
  H   H235      1.0  0.39207  0.96290  0.12867  1.0000
  H   H236      1.0  0.45084  0.86471  0.15099  1.0000
  H   H237      1.0  0.99526  0.75264  0.50620  1.0000
  C   C296      1.0  0.99899  0.94115  0.07729  1.0000
  C   C297      1.0  0.39008  0.98744  0.11716  1.0000
  C   C298      1.0  0.44075  0.71949  0.24484  1.0000
  H   H238      1.0  0.40495  0.71776  0.24637  1.0000
  H   H239      1.0  0.46958  0.70112  0.39818  1.0000
  H   H240      1.0  0.44667  0.76804  0.26828  1.0000
  H   H241      1.0  0.40636  0.97788  0.04436  1.0000
  H   H242      1.0  0.47405  0.83762  0.23433  1.0000
  C   C299      1.0  0.46463  0.74777  0.25780  1.0000
  C   C300      1.0  0.46495  0.68583  0.05789  1.0000
  S   S39       1.0  0.98884  0.67400  0.30753  1.0000
  C   C301      1.0  0.46310  0.69328  0.23027  1.0000
  H   H243      1.0  0.44489  0.67116  0.22137  1.0000
  H   H244      1.0  0.42168  0.68115  0.11233  1.0000
  H   H245      1.0  0.47849  0.70401  0.50490  1.0000
  C   C302      1.0  0.47681  0.84650  0.15611  1.0000
  C   C303      1.0  0.47249  0.67652  0.00982  1.0000
  C   C304      1.0  0.42715  0.67429  0.07502  1.0000
  H   H246      1.0  0.20130  0.66974  0.26114  1.0000
  H   H247      1.0  0.44636  0.87981  0.94228  1.0000
  C   C305      1.0  0.47056  0.88371  0.91823  1.0000
  Fe  Fe17      1.0  0.41232  0.96025  0.75049  1.0000
  S   S40       1.0  0.36237  0.94979  0.67555  1.0000
  H   H248      1.0  0.47208  0.98045  0.61774  1.0000
  C   C306      1.0  0.11446  0.93802  0.97492  1.0000
  C   C307      1.0  0.03379  0.93441  0.60317  1.0000
  H   H249      1.0  0.43904  0.72379  0.94334  1.0000
  S   S41       1.0  0.23409  0.95524  0.69213  1.0000
  H   H250      1.0  0.05525  0.76497  0.78556  1.0000
  C   C308      1.0  0.45763  0.90220  0.87329  1.0000
  H   H251      1.0  0.20162  0.85556  0.56993  1.0000
  Fe  Fe18      1.0  0.00974  0.92856  0.82107  1.0000
  S   S42       1.0  0.08786  0.93117  0.83048  1.0000
  H   H252      1.0  0.47801  0.93353  0.67376  1.0000
  H   H253      1.0  0.15089  0.86923  0.73332  1.0000
  C   C309      1.0  0.06785  0.83194  0.71913  1.0000
  H   H254      1.0  0.98403  0.84138  0.57963  1.0000
  C   C310      1.0  0.15033  0.94752  0.95268  1.0000
  H   H255      1.0  0.42376  0.91242  0.86306  1.0000
  C   C311      1.0  0.19357  0.95055  0.73136  1.0000
  C   C312      1.0  0.20682  0.94893  0.78488  1.0000
  C   C313      1.0  0.17394  0.94300  0.81429  1.0000
  C   C314      1.0  0.12725  0.93928  0.79088  1.0000
  C   C315      1.0  0.11382  0.94147  0.73735  1.0000
  C   C316      1.0  0.14690  0.94674  0.70780  1.0000
  H   H256      1.0  0.24259  0.95142  0.80352  1.0000
  H   H257      1.0  0.18491  0.94109  0.85550  1.0000
  H   H258      1.0  0.07813  0.93864  0.71878  1.0000
  H   H259      1.0  0.11918  0.00034  0.84340  1.0000
  H   H260      1.0  0.00717  0.70597  0.58836  1.0000
  C   C317      1.0  0.04766  0.81638  0.60761  1.0000
  S   S43       1.0  0.35786  0.97886  0.78911  1.0000
  C   C318      1.0  0.05976  0.78976  0.77824  1.0000
  C   C319      1.0  0.07179  0.85369  0.75961  1.0000
  C   C320      1.0  0.99558  0.94036  0.62371  1.0000
  H   H261      1.0  0.25472  0.87739  0.64698  1.0000
  C   C321      1.0  0.15458  0.97918  0.93971  1.0000
  C   C322      1.0  0.20608  0.87337  0.69508  1.0000
  C   C323      1.0  0.07018  0.84353  0.80896  1.0000
  C   C324      1.0  0.22053  0.86992  0.64912  1.0000
  H   H262      1.0  0.08642  0.90165  0.59655  1.0000
  C   C325      1.0  0.06143  0.79984  0.72877  1.0000
  H   H263      1.0  0.22906  0.88364  0.72827  1.0000
  H   H264      1.0  0.18180  0.98592  0.92105  1.0000
  C   C326      1.0  0.00982  0.77034  0.53461  1.0000
  H   H265      1.0  0.13636  0.94763  0.66638  1.0000
  H   H266      1.0  0.06293  0.80387  0.85669  1.0000
  C   C327      1.0  0.46808  0.73633  0.93509  1.0000
  Fe  Fe19      1.0  0.37780  0.99872  0.65041  1.0000
  C   C328      1.0  0.04132  0.88232  0.64232  1.0000
  C   C329      1.0  0.16145  0.86511  0.69770  1.0000
  H   H267      1.0  0.17385  0.93012  0.94379  1.0000
  C   C330      1.0  0.06418  0.81159  0.81833  1.0000
  H   H268      1.0  0.12261  0.84116  0.57361  1.0000
  C   C331      1.0  0.05657  0.90551  0.61232  1.0000
  C   C332      1.0  0.13087  0.85302  0.65425  1.0000
  C   C333      1.0  0.00371  0.82043  0.57641  1.0000
  H   H269      1.0  0.07349  0.86061  0.83990  1.0000
  H   H270      1.0  0.04618  0.95236  0.58071  1.0000
  H   H271      1.0  0.07288  0.74511  0.56079  1.0000
  C   C334      1.0  0.07241  0.78895  0.60199  1.0000
  P   P11       1.0  0.07172  0.84540  0.65588  1.0000
  C   C335      1.0  0.19049  0.85780  0.60573  1.0000
  C   C336      1.0  0.14578  0.84947  0.60815  1.0000
  Fe  Fe20      1.0  0.30889  0.97217  0.71226  1.0000
  H   H272      1.0  0.05789  0.78246  0.69854  1.0000
  H   H273      1.0  0.42630  0.77467  0.89780  1.0000
  C   C337      1.0  0.99390  0.70205  0.62254  1.0000
  C   C338      1.0  0.05359  0.76612  0.56545  1.0000
  H   H274      1.0  0.07636  0.87861  0.75326  1.0000
  C   C339      1.0  0.98486  0.79741  0.54020  1.0000
  C   C340      1.0  0.00235  0.88830  0.66202  1.0000
  H   H275      1.0  0.10630  0.78526  0.62583  1.0000
  H   H276      1.0  0.11026  0.91333  0.98328  1.0000
  C   C341      1.0  0.46063  0.76520  0.90917  1.0000
  C   C342      1.0  0.08321  0.96025  0.98489  1.0000
  H   H277      1.0  0.05473  0.95284  0.00089  1.0000
  H   H278      1.0  0.98953  0.87082  0.68496  1.0000
  H   H279      1.0  0.35438  0.99442  0.92550  1.0000
  S   S44       1.0  0.98728  0.93742  0.89526  1.0000
  C   C343      1.0  0.47422  0.98563  0.90360  1.0000
  H   H280      1.0  0.47061  0.98133  0.86281  1.0000
  S   S45       1.0  0.47433  0.92915  0.78348  1.0000
  C   C344      1.0  0.00481  0.67432  0.65075  1.0000
  H   H281      1.0  0.00058  0.75615  0.87190  1.0000
  C   C345      1.0  0.08751  0.99194  0.97242  1.0000
  H   H282      1.0  0.28044  0.99975  0.86341  1.0000
  H   H283      1.0  0.98300  0.91426  0.00681  1.0000
  C   C346      1.0  0.97987  0.91730  0.65297  1.0000
  C   C347      1.0  0.12319  0.00172  0.94946  1.0000
  Fe  Fe21      1.0  0.57860  0.08723  0.27241  1.0000
  S   S46       1.0  0.52903  0.07738  0.19718  1.0000
  S   S47       1.0  0.65393  0.10246  0.28740  1.0000
  Fe  Fe22      1.0  0.51404  0.05899  0.33780  1.0000
  S   S48       1.0  0.51585  0.05158  0.42407  1.0000
  Fe  Fe23      1.0  0.51987  0.03030  0.23231  1.0000
  C   C348      1.0  0.94755  0.05047  0.04228  1.0000
  S   S49       1.0  0.57166  0.03902  0.30538  1.0000
  S   S50       1.0  0.52419  0.10810  0.30939  1.0000
  Fe  Fe24      1.0  0.93798  0.11225  0.12999  1.0000
  S   S51       1.0  0.88271  0.13878  0.07660  1.0000
  C   C349      1.0  0.91055  0.28451  0.15168  1.0000
  S   S52       1.0  0.89846  0.19611  0.16120  1.0000
  Fe  Fe25      1.0  0.85629  0.15143  0.14685  1.0000
  S   S53       1.0  0.77829  0.15156  0.13686  1.0000
  Fe  Fe26      1.0  0.92969  0.18019  0.09615  1.0000
  S   S54       1.0  0.90871  0.12183  0.19980  1.0000
  H   H284      1.0  0.90949  0.16419  0.33172  1.0000
  C   C350      1.0  0.68759  0.11585  0.24440  1.0000
  C   C351      1.0  0.66816  0.12930  0.19674  1.0000
  C   C352      1.0  0.69648  0.13997  0.16435  1.0000
  C   C353      1.0  0.74446  0.13744  0.17918  1.0000
  C   C354      1.0  0.76390  0.12406  0.22690  1.0000
  C   C355      1.0  0.73558  0.11338  0.25924  1.0000
  H   H285      1.0  0.63134  0.13143  0.18479  1.0000
  H   H286      1.0  0.68105  0.15027  0.12753  1.0000
  H   H287      1.0  0.80072  0.12196  0.23886  1.0000
  H   H288      1.0  0.75092  0.10273  0.29574  1.0000
  H   H289      1.0  0.81900  0.23494  0.19040  1.0000
  C   C356      1.0  0.79838  0.32991  0.37416  1.0000
  H   H290      1.0  0.55146  0.03462  0.11702  1.0000
  C   C357      1.0  0.87240  0.22181  0.31509  1.0000
  H   H291      1.0  0.87035  0.29880  0.46187  1.0000
  P   P12       1.0  0.92926  0.33399  0.30961  1.0000
  C   C358      1.0  0.61960  0.05124  0.14965  1.0000
  C   C359      1.0  0.91389  0.10662  0.44547  1.0000
  C   C360      1.0  0.58782  0.04646  0.05832  1.0000
  H   H292      1.0  0.78721  0.21903  0.45591  1.0000
  H   H293      1.0  0.95814  0.11751  0.33961  1.0000
  C   C361      1.0  0.66565  0.06472  0.08904  1.0000
  C   C362      1.0  0.79152  0.04448  0.10601  1.0000
  C   C363      1.0  0.95531  0.29371  0.23785  1.0000
  C   C364      1.0  0.91075  0.21195  0.48281  1.0000
  C   C365      1.0  0.88627  0.13350  0.44146  1.0000
  C   C366      1.0  0.77238  0.19688  0.44036  1.0000
  C   C367      1.0  0.95712  0.28600  0.38074  1.0000
  C   C368      1.0  0.93986  0.10083  0.40887  1.0000
  C   C369      1.0  0.58309  0.04354  0.10904  1.0000
  C   C370      1.0  0.91042  0.14865  0.36400  1.0000
  H   H294      1.0  0.85494  0.06344  0.09326  1.0000
  H   H295      1.0  0.92147  0.27933  0.37378  1.0000
  H   H296      1.0  0.89311  0.24457  0.25187  1.0000
  H   H297      1.0  0.83413  0.25745  0.40026  1.0000
  H   H298      1.0  0.86629  0.13765  0.47008  1.0000
  C   C371      1.0  0.94906  0.27820  0.19050  1.0000
  H   H299      1.0  0.51084  0.15515  0.01833  1.0000
  C   C372      1.0  0.76415  0.01749  0.10389  1.0000
  H   H300      1.0  0.77326  0.29607  0.31421  1.0000
  H   H301      1.0  0.67632  0.15271  0.43588  1.0000
  H   H302      1.0  0.90556  0.22511  0.34076  1.0000
  H   H303      1.0  0.76880  0.18593  0.30676  1.0000
  H   H304      1.0  0.84249  0.29775  0.27921  1.0000
  C   C373      1.0  0.80124  0.31164  0.33135  1.0000
  C   C374      1.0  0.66089  0.06154  0.13960  1.0000
  H   H305      1.0  0.84823  0.31115  0.12996  1.0000
  C   C375      1.0  0.92250  0.31535  0.24716  1.0000
  H   H306      1.0  0.71558  0.11833  0.38429  1.0000
  C   C376      1.0  0.88152  0.27451  0.46730  1.0000
  H   H307      1.0  0.78017  0.06694  0.11819  1.0000
  C   C377      1.0  0.79596  0.19944  0.29617  1.0000
  H   H308      1.0  0.91507  0.09024  0.47687  1.0000
  H   H309      1.0  0.55958  0.03959  0.02764  1.0000
  C   C378      1.0  0.70956  0.15951  0.42952  1.0000
  C   C379      1.0  0.87818  0.30641  0.16016  1.0000
  C   C380      1.0  0.87694  0.33316  0.33296  1.0000
  C   C381      1.0  0.82388  0.22732  0.23002  1.0000
  S   S55       1.0  0.94380  0.21181  0.03320  1.0000
  C   C382      1.0  0.78921  0.21058  0.24576  1.0000
  H   H310      1.0  0.75760  0.20523  0.21828  1.0000
  C   C383      1.0  0.73178  0.14004  0.40055  1.0000
  C   C384      1.0  0.77426  0.14890  0.39145  1.0000
  C   C385      1.0  0.79488  0.17741  0.41119  1.0000
  H   H311      1.0  0.90565  0.27211  0.11519  1.0000
  P   P13       1.0  0.84825  0.18933  0.39579  1.0000
  C   C386      1.0  0.87570  0.21954  0.44014  1.0000
  C   C387      1.0  0.88448  0.15484  0.40079  1.0000
  C   C388      1.0  0.93810  0.12185  0.36820  1.0000
  C   C389      1.0  0.96890  0.02339  0.02807  1.0000
  H   H312      1.0  0.76816  0.32867  0.39018  1.0000
  C   C390      1.0  0.83381  0.04254  0.09227  1.0000
  C   C391      1.0  0.88404  0.32176  0.20766  1.0000
  H   H313      1.0  0.92268  0.18797  0.48977  1.0000
  C   C392      1.0  0.86550  0.23285  0.26466  1.0000
  C   C393      1.0  0.83770  0.20498  0.33128  1.0000
  H   H314      1.0  0.47890  0.06692  0.08076  1.0000
  C   C394      1.0  0.86128  0.25106  0.43263  1.0000
  C   C395      1.0  0.84926  0.01356  0.07771  1.0000
  H   H315      1.0  0.79061  0.13380  0.36809  1.0000
  C   C396      1.0  0.67722  0.01911  0.40432  1.0000
  C   C397      1.0  0.62930  0.05694  0.04780  1.0000
  C   C398      1.0  0.49851  0.11151  0.05430  1.0000
  Fe  Fe27      1.0  0.95265  0.16613  0.21091  1.0000
  C   C399      1.0  0.84054  0.31295  0.31116  1.0000
  H   H316      1.0  0.52208  0.11690  0.09036  1.0000
  H   H317      1.0  0.88188  0.01262  0.06682  1.0000
  H   H318      1.0  0.61625  0.04897  0.18909  1.0000
  C   C400      1.0  0.97107  0.31201  0.35540  1.0000
  S   S56       1.0  0.96405  0.06508  0.10632  1.0000
  H   H319      1.0  0.68947  0.06688  0.17115  1.0000
  H   H320      1.0  0.76155  0.13527  0.01701  1.0000
  H   H321      1.0  0.69839  0.07227  0.08295  1.0000
  H   H322      1.0  0.67722  0.03721  0.43302  1.0000
  H   H323      1.0  0.97354  0.26067  0.18411  1.0000
  H   H324      1.0  0.96123  0.08001  0.41183  1.0000
  C   C401      1.0  0.72994  0.18784  0.44962  1.0000
  H   H325      1.0  0.70312  0.05022  0.35340  1.0000
  C   C402      1.0  0.69055  0.00349  0.32168  1.0000
  H   H326      1.0  0.89613  0.08553  0.01585  1.0000
  H   H327      1.0  0.73148  0.01859  0.11475  1.0000
  H   H328      1.0  0.97848  0.24782  0.43386  1.0000
  H   H329      1.0  0.68357  0.11572  0.01469  1.0000
  H   H330      1.0  0.71256  0.20292  0.47200  1.0000
  C   C403      1.0  0.69184  0.02647  0.35948  1.0000
  H   H331      1.0  0.70112  0.00946  0.28653  1.0000
  C   C404      1.0  0.49228  0.13300  0.01368  1.0000
  C   C405      1.0  0.92101  0.02520  0.94142  1.0000
  C   C406      1.0  0.89957  0.05217  0.95572  1.0000
  H   H332      1.0  0.56619  0.14418  0.87332  1.0000
  H   H333      1.0  0.87301  0.06369  0.92769  1.0000
  C   C407      1.0  0.70694  0.10104  0.99926  1.0000
  C   C408      1.0  0.59723  0.10589  0.92181  1.0000
  H   H334      1.0  0.62967  0.11800  0.93262  1.0000
  C   C409      1.0  0.75121  0.11218  0.00088  1.0000
  H   H335      1.0  0.52202  0.05381  0.53303  1.0000
  C   C410      1.0  0.62121  0.00506  0.91307  1.0000
  C   C411      1.0  0.76989  0.06312  0.96396  1.0000
  P   P14       1.0  0.63789  0.05512  0.98289  1.0000
  H   H336      1.0  0.81687  0.10198  0.98436  1.0000
  H   H337      1.0  0.61272  0.02275  0.88321  1.0000
  C   C412      1.0  0.72575  0.05178  0.96266  1.0000
  C   C413      1.0  0.69377  0.07068  0.98024  1.0000
  H   H338      1.0  0.96193  0.10338  0.94437  1.0000
  H   H339      1.0  0.54270  0.03720  0.93801  1.0000
  H   H340      1.0  0.71723  0.02808  0.94866  1.0000
  H   H341      1.0  0.79458  0.04831  0.95091  1.0000
  C   C414      1.0  0.51906  0.10559  0.87181  1.0000
  C   C415      1.0  0.56122  0.12085  0.88776  1.0000
  C   C416      1.0  0.63456  0.01396  0.96498  1.0000
  C   C417      1.0  0.51272  0.07550  0.89020  1.0000
  H   H342      1.0  0.49120  0.11693  0.84504  1.0000
  C   C418      1.0  0.59118  0.07560  0.94066  1.0000
  C   C419      1.0  0.54839  0.06065  0.92472  1.0000
  C   C420      1.0  0.78257  0.09330  0.98298  1.0000
  S   S57       1.0  0.90377  0.01098  0.87731  1.0000
  C   C421      1.0  0.95563  0.01073  0.97802  1.0000
  C   C422      1.0  0.91276  0.06473  0.00573  1.0000
  H   H343      1.0  0.95768  0.22952  0.55040  1.0000
  H   H344      1.0  0.93158  0.28507  0.53648  1.0000
  C   C423      1.0  0.48873  0.04407  0.51592  1.0000
  H   H345      1.0  0.97384  0.08395  0.86074  1.0000
  C   C424      1.0  0.93085  0.23550  0.51737  1.0000
  H   H346      1.0  0.48005  0.06366  0.87742  1.0000
  C   C425      1.0  0.91623  0.26676  0.50961  1.0000
  H   H347      1.0  0.73403  0.55843  0.49208  1.0000
  H   H348      1.0  0.64721  0.63016  0.40698  1.0000
  Fe  Fe28      1.0  0.93643  0.59693  0.35069  1.0000
  S   S58       1.0  0.90982  0.55154  0.37873  1.0000
  C   C426      1.0  0.55997  0.65406  0.34569  1.0000
  S   S59       1.0  0.90150  0.64372  0.35059  1.0000
  S   S60       1.0  0.94679  0.60407  0.27059  1.0000
  S   S61       1.0  0.49898  0.61511  0.28383  1.0000
  H   H349      1.0  0.82271  0.39667  0.50504  1.0000
  C   C427      1.0  0.94616  0.37493  0.30652  1.0000
  H   H350      1.0  0.57613  0.64852  0.07075  1.0000
  C   C428      1.0  0.60481  0.58501  0.13351  1.0000
  H   H351      1.0  0.93763  0.43708  0.22340  1.0000
  H   H352      1.0  0.60804  0.52813  0.03939  1.0000
  H   H353      1.0  0.90288  0.36479  0.39682  1.0000
  H   H354      1.0  0.64371  0.65491  0.25679  1.0000
  C   C429      1.0  0.94681  0.42390  0.25898  1.0000
  C   C430      1.0  0.93318  0.53864  0.44237  1.0000
  C   C431      1.0  0.92324  0.50804  0.45656  1.0000
  H   H355      1.0  0.86134  0.44504  0.47927  1.0000
  H   H356      1.0  0.56294  0.57188  0.05906  1.0000
  H   H357      1.0  0.90303  0.49266  0.42811  1.0000
  C   C432      1.0  0.70863  0.62193  0.15221  1.0000
  C   C433      1.0  0.76765  0.59488  0.23711  1.0000
  C   C434      1.0  0.70473  0.46180  0.44677  1.0000
  C   C435      1.0  0.67201  0.43749  0.43786  1.0000
  C   C436      1.0  0.62587  0.44438  0.41757  1.0000
  C   C437      1.0  0.61215  0.47553  0.40593  1.0000
  C   C438      1.0  0.64467  0.49975  0.41388  1.0000
  C   C439      1.0  0.69087  0.49286  0.43372  1.0000
  C   C440      1.0  0.62659  0.58048  0.49886  1.0000
  C   C441      1.0  0.97037  0.39027  0.35093  1.0000
  C   C442      1.0  0.79464  0.44152  0.42793  1.0000
  C   C443      1.0  0.84266  0.43991  0.44057  1.0000
  C   C444      1.0  0.86703  0.43210  0.40329  1.0000
  C   C445      1.0  0.84368  0.42592  0.35291  1.0000
  C   C446      1.0  0.79584  0.42701  0.34003  1.0000
  C   C447      1.0  0.77134  0.43479  0.37735  1.0000
  H   H358      1.0  0.85825  0.33833  0.21375  1.0000
  C   C448      1.0  0.63143  0.54335  0.02487  1.0000
  H   H359      1.0  0.66395  0.61142  0.31840  1.0000
  H   H360      1.0  0.57626  0.48092  0.39119  1.0000
  H   H361      1.0  0.63395  0.52394  0.40546  1.0000
  H   H362      1.0  0.71568  0.51178  0.43942  1.0000
  C   C449      1.0  0.81629  0.50869  0.48509  1.0000
  H   H363      1.0  0.74670  0.66491  0.17448  1.0000
  C   C450      1.0  0.74268  0.64024  0.18335  1.0000
  H   H364      1.0  0.90415  0.43118  0.41357  1.0000
  H   H365      1.0  0.86278  0.42013  0.32407  1.0000
  H   H366      1.0  0.77778  0.42189  0.30106  1.0000
  H   H367      1.0  0.73437  0.43575  0.36650  1.0000
  H   H368      1.0  0.58725  0.61710  0.45315  1.0000
  C   C451      1.0  0.48096  0.66297  0.34866  1.0000
  H   H369      1.0  0.49274  0.55753  0.34596  1.0000
  H   H370      1.0  0.90486  0.62665  0.46518  1.0000
  C   C452      1.0  0.60412  0.59935  0.18077  1.0000
  C   C453      1.0  0.70412  0.58976  0.16280  1.0000
  H   H371      1.0  0.77843  0.66630  0.40165  1.0000
  H   H372      1.0  0.73063  0.55198  0.21611  1.0000
  H   H373      1.0  0.68199  0.41329  0.44744  1.0000
  C   C454      1.0  0.52356  0.61121  0.15128  1.0000
  C   C455      1.0  0.65957  0.56503  0.05732  1.0000
  H   H374      1.0  0.79086  0.58451  0.26996  1.0000
  C   C456      1.0  0.97134  0.43877  0.30335  1.0000
  H   H375      1.0  0.56377  0.62337  0.22605  1.0000
  C   C457      1.0  0.68543  0.63211  0.32307  1.0000
  Fe  Fe29      1.0  0.91891  0.65330  0.27447  1.0000
  C   C458      1.0  0.72354  0.63479  0.36456  1.0000
  C   C459      1.0  0.87278  0.62425  0.47738  1.0000
  H   H376      1.0  0.60059  0.42562  0.41177  1.0000
  H   H377      1.0  0.63453  0.59994  0.21148  1.0000
  C   C460      1.0  0.73364  0.57645  0.20600  1.0000
  H   H378      1.0  0.83414  0.61392  0.40163  1.0000
  H   H379      1.0  0.82239  0.50335  0.44761  1.0000
  C   C461      1.0  0.74951  0.66273  0.36981  1.0000
  C   C462      1.0  0.65961  0.52700  0.14763  1.0000
  C   C463      1.0  0.62771  0.51562  0.17482  1.0000
  C   C464      1.0  0.62988  0.48431  0.19172  1.0000
  C   C465      1.0  0.66387  0.46422  0.18178  1.0000
  C   C466      1.0  0.69580  0.47542  0.15496  1.0000
  C   C467      1.0  0.69368  0.50669  0.13788  1.0000
  C   C468      1.0  0.70174  0.57093  0.48256  1.0000
  C   C469      1.0  0.56409  0.58347  0.09540  1.0000
  H   H380      1.0  0.68603  0.63283  0.11961  1.0000
  H   H381      1.0  0.60072  0.53056  0.18253  1.0000
  H   H382      1.0  0.60467  0.47549  0.21184  1.0000
  H   H383      1.0  0.66503  0.43983  0.19421  1.0000
  H   H384      1.0  0.72182  0.45977  0.14664  1.0000
  H   H385      1.0  0.71843  0.51499  0.11671  1.0000
  Fe  Fe30      1.0  0.97254  0.66146  0.38384  1.0000
  P   P15       1.0  0.76378  0.45326  0.47612  1.0000
  C   C470      1.0  0.78839  0.52594  0.34476  1.0000
  C   C471      1.0  0.74845  0.51216  0.31621  1.0000
  C   C472      1.0  0.70597  0.52527  0.31737  1.0000
  C   C473      1.0  0.70351  0.55236  0.34661  1.0000
  C   C474      1.0  0.74356  0.56686  0.37478  1.0000
  C   C475      1.0  0.78601  0.55299  0.37411  1.0000
  P   P16       1.0  0.73893  0.60283  0.41041  1.0000
  C   C476      1.0  0.69456  0.59455  0.44477  1.0000
  C   C477      1.0  0.79098  0.61313  0.45697  1.0000
  C   C478      1.0  0.56387  0.61261  0.18932  1.0000
  P   P17       1.0  0.65728  0.56715  0.12460  1.0000
  C   C479      1.0  0.51358  0.64597  0.32942  1.0000
  H   H386      1.0  0.71434  0.59931  0.06116  1.0000
  C   C480      1.0  0.83265  0.61664  0.44154  1.0000
  C   C481      1.0  0.65310  0.61118  0.43453  1.0000
  C   C482      1.0  0.61907  0.60396  0.46115  1.0000
  H   H387      1.0  0.83373  0.36258  0.43147  1.0000
  C   C483      1.0  0.95969  0.55843  0.47947  1.0000
  C   C484      1.0  0.93411  0.39216  0.26052  1.0000
  H   H388      1.0  0.81762  0.56227  0.39653  1.0000
  H   H389      1.0  0.82156  0.51570  0.34451  1.0000
  H   H390      1.0  0.75051  0.49124  0.29352  1.0000
  H   H391      1.0  0.67486  0.51433  0.29593  1.0000
  H   H392      1.0  0.67014  0.56159  0.34793  1.0000
  H   H393      1.0  0.58528  0.64143  0.33035  1.0000
  C   C485      1.0  0.52367  0.59665  0.10436  1.0000
  H   H394      1.0  0.79911  0.64087  0.24935  1.0000
  C   C486      1.0  0.93886  0.49736  0.50735  1.0000
  H   H395      1.0  0.96738  0.58217  0.46928  1.0000
  C   C487      1.0  0.69057  0.58347  0.03718  1.0000
  C   C488      1.0  0.67365  0.65681  0.28787  1.0000
  H   H396      1.0  0.91493  0.38139  0.22573  1.0000
  C   C489      1.0  0.77224  0.62671  0.22570  1.0000
  H   H397      1.0  0.62887  0.66051  0.15372  1.0000
  C   C490      1.0  0.83507  0.34917  0.39719  1.0000
  H   H398      1.0  0.85800  0.55074  0.49295  1.0000
  H   H399      1.0  0.49207  0.59521  0.07522  1.0000
  C   C491      1.0  0.87433  0.35054  0.37707  1.0000
  H   H400      1.0  0.51325  0.50884  0.03187  1.0000
  H   H401      1.0  0.49201  0.62078  0.15858  1.0000
  C   C492      1.0  0.48402  0.52245  0.01245  1.0000
  C   C493      1.0  0.96952  0.40431  0.50806  1.0000
  C   C494      1.0  0.78971  0.62000  0.50829  1.0000
  C   C495      1.0  0.78977  0.48850  0.50862  1.0000
  Fe  Fe31      1.0  0.53407  0.54531  0.74656  1.0000
  S   S62       1.0  0.57957  0.52078  0.81333  1.0000
  S   S63       1.0  0.54622  0.59594  0.72529  1.0000
  Fe  Fe32      1.0  0.96139  0.40490  0.71422  1.0000
  H   H402      1.0  0.57574  0.64232  0.84117  1.0000
  C   C496      1.0  0.69178  0.63212  0.78197  1.0000
  H   H403      1.0  0.90266  0.63553  0.55624  1.0000
  Fe  Fe33      1.0  0.56691  0.47792  0.76227  1.0000
  S   S64       1.0  0.62159  0.44107  0.75855  1.0000
  S   S65       1.0  0.52521  0.50343  0.69348  1.0000
  S   S66       1.0  0.89165  0.38601  0.67522  1.0000
  Fe  Fe34      1.0  0.95370  0.45971  0.63538  1.0000
  S   S67       1.0  0.88527  0.44343  0.59178  1.0000
  C   C497      1.0  0.53864  0.62571  0.96901  1.0000
  Fe  Fe35      1.0  0.86798  0.43677  0.66913  1.0000
  S   S68       1.0  0.80421  0.46427  0.67710  1.0000
  Fe  Fe36      1.0  0.91532  0.39482  0.60208  1.0000
  S   S69       1.0  0.93605  0.45528  0.71299  1.0000
  C   C498      1.0  0.87149  0.62949  0.52869  1.0000
  H   H404      1.0  0.71624  0.59514  0.97000  1.0000
  C   C499      1.0  0.67213  0.44782  0.73550  1.0000
  C   C500      1.0  0.70427  0.42331  0.73813  1.0000
  C   C501      1.0  0.74498  0.42780  0.72058  1.0000
  C   C502      1.0  0.75378  0.45685  0.69988  1.0000
  C   C503      1.0  0.72144  0.48124  0.69679  1.0000
  C   C504      1.0  0.68090  0.47682  0.71459  1.0000
  H   H405      1.0  0.69777  0.40080  0.75424  1.0000
  H   H406      1.0  0.76956  0.40887  0.72324  1.0000
  H   H407      1.0  0.72791  0.50380  0.68083  1.0000
  H   H408      1.0  0.65649  0.49584  0.71220  1.0000
  C   C505      1.0  0.58741  0.60579  0.68959  1.0000
  C   C506      1.0  0.59330  0.63765  0.67839  1.0000
  C   C507      1.0  0.62783  0.64694  0.65340  1.0000
  C   C508      1.0  0.65659  0.62446  0.63870  1.0000
  C   C509      1.0  0.65063  0.59250  0.64966  1.0000
  C   C510      1.0  0.61606  0.58314  0.67493  1.0000
  H   H409      1.0  0.75790  0.61976  0.52122  1.0000
  Fe  Fe37      1.0  0.51447  0.50797  0.83822  1.0000
  H   H410      1.0  0.67293  0.57492  0.63886  1.0000
  H   H411      1.0  0.61213  0.55852  0.68384  1.0000
  H   H412      1.0  0.57160  0.65533  0.69000  1.0000
  C   C511      1.0  0.78160  0.49701  0.55662  1.0000
  C   C512      1.0  0.76517  0.42206  0.52293  1.0000
  H   H413      1.0  0.54527  0.57654  0.95098  1.0000
  C   C513      1.0  0.80194  0.52397  0.58208  1.0000
  C   C514      1.0  0.96496  0.51708  0.54464  1.0000
  H   H414      1.0  0.56966  0.58733  0.86988  1.0000
  C   C515      1.0  0.97562  0.54763  0.53031  1.0000
  C   C516      1.0  0.76826  0.37527  0.59827  1.0000
  C   C517      1.0  0.73541  0.39909  0.59260  1.0000
  C   C518      1.0  0.73370  0.42228  0.55502  1.0000
  H   H415      1.0  0.84663  0.56348  0.57976  1.0000
  C   C519      1.0  0.66348  0.55973  0.95325  1.0000
  H   H416      1.0  0.79705  0.52937  0.62025  1.0000
  C   C520      1.0  0.54914  0.60073  0.93938  1.0000
  C   C521      1.0  0.56282  0.60678  0.89358  1.0000
  H   H417      1.0  0.71203  0.40014  0.61834  1.0000
  S   S70       1.0  0.91603  0.35966  0.53826  1.0000
  H   H418      1.0  0.77039  0.35786  0.62843  1.0000
  S   S71       1.0  0.50516  0.46271  0.79232  1.0000
  H   H419      1.0  0.66289  0.61736  0.76506  1.0000
  S   S72       1.0  0.70054  0.63578  0.60749  1.0000
  H   H420      1.0  0.52623  0.62038  0.00310  1.0000
  H   H421      1.0  0.94606  0.42089  0.51893  1.0000
  H   H422      1.0  0.60085  0.57539  0.52056  1.0000
  H   H423      1.0  0.58098  0.63285  0.55035  1.0000
  C   C522      1.0  0.56624  0.63785  0.87749  1.0000
  H   H424      1.0  0.74100  0.60040  0.76174  1.0000
  H   H425      1.0  0.76050  0.48261  0.57544  1.0000
  C   C523      1.0  0.83631  0.53581  0.51048  1.0000
  H   H426      1.0  0.79896  0.65252  0.67084  1.0000
  H   H427      1.0  0.67428  0.54641  0.53983  1.0000
  C   C524      1.0  0.77350  0.64099  0.80346  1.0000
  C   C525      1.0  0.82974  0.54316  0.55930  1.0000
  C   C526      1.0  0.73598  0.62238  0.78061  1.0000
  C   C527      1.0  0.79903  0.37437  0.56586  1.0000
  H   H428      1.0  0.66492  0.55754  0.91312  1.0000
  H   H429      1.0  0.80780  0.63340  0.80236  1.0000
  C   C528      1.0  0.69217  0.58097  0.98528  1.0000
  H   H430      1.0  0.52205  0.59120  0.52715  1.0000
  H   H431      1.0  0.61161  0.52397  0.94839  1.0000
  C   C529      1.0  0.55572  0.66295  0.90702  1.0000
  H   H432      1.0  0.82839  0.63304  0.58331  1.0000
  C   C530      1.0  0.54554  0.63919  0.53514  1.0000
  H   H433      1.0  0.70839  0.44080  0.55205  1.0000
  H   H434      1.0  0.67127  0.65969  0.89974  1.0000
  C   C531      1.0  0.82982  0.62796  0.54392  1.0000
  C   C532      1.0  0.63339  0.54080  0.97316  1.0000
  C   C533      1.0  0.54147  0.65711  0.95302  1.0000
  C   C534      1.0  0.76681  0.66936  0.82759  1.0000
  H   H435      1.0  0.82505  0.35617  0.57083  1.0000
  C   C535      1.0  0.68480  0.66077  0.80499  1.0000
  C   C536      1.0  0.79755  0.39761  0.52834  1.0000
  C   C537      1.0  0.66798  0.56404  0.50967  1.0000
  S   S73       1.0  0.51495  0.50940  0.92469  1.0000
  H   H436      1.0  0.65325  0.64774  0.98292  1.0000
  H   H437      1.0  0.65011  0.66807  0.80485  1.0000
  C   C538      1.0  0.51223  0.61575  0.52157  1.0000
  C   C539      1.0  0.96209  0.37206  0.51205  1.0000
  H   H438      1.0  0.93078  0.47388  0.51777  1.0000
  H   H439      1.0  0.54299  0.80711  0.08864  1.0000
  H   H440      1.0  0.54567  0.85304  0.30069  1.0000
  H   H441      1.0  0.70458  0.80625  0.27147  1.0000
  C   C540      1.0  0.51949  0.94498  0.46898  1.0000
  S   S74       1.0  0.77497  0.73818  0.43893  1.0000
  H   H442      1.0  0.59453  0.74581  0.34864  1.0000
  S   S75       1.0  0.55878  0.72678  0.44540  1.0000
  C   C541      1.0  0.63332  0.79772  0.27016  1.0000
  Fe  Fe38      1.0  0.68417  0.80801  0.10490  1.0000
  S   S76       1.0  0.73575  0.84195  0.08673  1.0000
  S   S77       1.0  0.70660  0.77363  0.17174  1.0000
  Fe  Fe39      1.0  0.68215  0.87918  0.08728  1.0000
  S   S78       1.0  0.69351  0.92609  0.12873  1.0000
  S   S79       1.0  0.63254  0.84592  0.11051  1.0000
  H   H443      1.0  0.50047  0.85100  0.44243  1.0000
  C   C542      1.0  0.64385  0.94322  0.14287  1.0000
  C   C543      1.0  0.64817  0.96640  0.18124  1.0000
  S   S80       1.0  0.68229  0.76494  0.50125  1.0000
  C   C544      1.0  0.56529  0.97031  0.16782  1.0000
  C   C545      1.0  0.56099  0.94748  0.12890  1.0000
  C   C546      1.0  0.60008  0.93389  0.11657  1.0000
  H   H444      1.0  0.52647  0.88106  0.37428  1.0000
  C   C547      1.0  0.61818  0.75894  0.33109  1.0000
  H   H445      1.0  0.52729  0.94002  0.10855  1.0000
  H   H446      1.0  0.59626  0.91618  0.08670  1.0000
  C   C548      1.0  0.68036  0.79326  0.28839  1.0000
  H   H447      1.0  0.69456  0.82129  0.43006  1.0000
  C   C549      1.0  0.92209  0.70452  0.45376  1.0000
  C   C550      1.0  0.61495  0.67940  0.12783  1.0000
  C   C551      1.0  0.83149  0.72477  0.44601  1.0000
  C   C552      1.0  0.85229  0.72772  0.40415  1.0000
  C   C553      1.0  0.89713  0.71712  0.40771  1.0000
  H   H448      1.0  0.83353  0.73782  0.36846  1.0000
  H   H449      1.0  0.91248  0.71877  0.37468  1.0000
  C   C554      1.0  0.82872  0.70444  0.19734  1.0000
  C   C555      1.0  0.81273  0.71874  0.14912  1.0000
  C   C556      1.0  0.77694  0.74104  0.14134  1.0000
  C   C557      1.0  0.75552  0.74860  0.18132  1.0000
  C   C558      1.0  0.77176  0.73461  0.22973  1.0000
  C   C559      1.0  0.80843  0.71289  0.23795  1.0000
  C   C560      1.0  0.51173  0.79027  0.36255  1.0000
  H   H450      1.0  0.76572  0.75209  0.10426  1.0000
  H   H451      1.0  0.75607  0.74077  0.26114  1.0000
  C   C561      1.0  0.52279  0.96410  0.42740  1.0000
  C   C562      1.0  0.58510  0.67274  0.08073  1.0000
  C   C563      1.0  0.50283  0.80600  0.40538  1.0000
  H   H452      1.0  0.81065  0.82261  0.01602  1.0000
  H   H453      1.0  0.82037  0.70222  0.27533  1.0000
  C   C564      1.0  0.66523  0.75457  0.34919  1.0000
  C   C565      1.0  0.85610  0.71177  0.49204  1.0000
  S   S81       1.0  0.51528  0.98601  0.18334  1.0000
  C   C566      1.0  0.54164  0.69547  0.40095  1.0000
  H   H454      1.0  0.69128  0.70344  0.26616  1.0000
  C   C567      1.0  0.52558  0.80723  0.32344  1.0000
  H   H455      1.0  0.56909  0.72461  0.23991  1.0000
  H   H456      1.0  0.73281  0.76826  0.34177  1.0000
  C   C568      1.0  0.62690  0.71055  0.14168  1.0000
  C   C569      1.0  0.69631  0.77170  0.32780  1.0000
  C   C570      1.0  0.71293  0.91150  0.45096  1.0000
  H   H457      1.0  0.63751  0.85849  0.38239  1.0000
  H   H458      1.0  0.60768  0.89496  0.46792  1.0000
  C   C571      1.0  0.56615  0.91837  0.28882  1.0000
  C   C572      1.0  0.90395  0.94824  0.06406  1.0000
  C   C573      1.0  0.93383  0.96125  0.10716  1.0000
  C   C574      1.0  0.60784  0.73512  0.10927  1.0000
  C   C575      1.0  0.60189  0.78032  0.29105  1.0000
  C   C576      1.0  0.55054  0.90719  0.23868  1.0000
  C   C577      1.0  0.73814  0.68702  0.33394  1.0000
  C   C578      1.0  0.66745  0.86770  0.40886  1.0000
  H   H459      1.0  0.82825  0.71251  0.11750  1.0000
  C   C579      1.0  0.58780  0.93355  0.41393  1.0000
  H   H460      1.0  0.49325  0.94971  0.49029  1.0000
  C   C580      1.0  0.54316  0.79913  0.16866  1.0000
  C   C581      1.0  0.81926  0.89856  0.18392  1.0000
  C   C582      1.0  0.83142  0.86793  0.17287  1.0000
  C   C583      1.0  0.84607  0.86192  0.12759  1.0000
  C   C584      1.0  0.84780  0.88640  0.09302  1.0000
  C   C585      1.0  0.83537  0.91718  0.10355  1.0000
  C   C586      1.0  0.82200  0.92323  0.14990  1.0000
  P   P18       1.0  0.84309  0.94849  0.06035  1.0000
  H   H461      1.0  0.61681  0.75933  0.12004  1.0000
  C   C587      1.0  0.67408  0.97322  0.32829  1.0000
  H   H462      1.0  0.64876  0.98388  0.44573  1.0000
  C   C588      1.0  0.92212  0.93127  0.02794  1.0000
  C   C589      1.0  0.52488  0.80813  0.21062  1.0000
  C   C590      1.0  0.62454  0.88383  0.24100  1.0000
  H   H463      1.0  0.65089  0.71583  0.17749  1.0000
  C   C591      1.0  0.53338  0.72346  0.24180  1.0000
  H   H464      1.0  0.75866  0.70830  0.33835  1.0000
  P   P19       1.0  0.63295  0.92769  0.37956  1.0000
  H   H465      1.0  0.56789  0.88193  0.17554  1.0000
  H   H466      1.0  0.56825  0.78044  0.17275  1.0000
  H   H467      1.0  0.80761  0.90323  0.21883  1.0000
  H   H468      1.0  0.82912  0.84879  0.19912  1.0000
  H   H469      1.0  0.85550  0.83818  0.11891  1.0000
  H   H470      1.0  0.85947  0.88153  0.05826  1.0000
  H   H471      1.0  0.81387  0.94680  0.16035  1.0000
  Fe  Fe40      1.0  0.63105  0.72552  0.49522  1.0000
  S   S82       1.0  0.97735  0.68967  0.45655  1.0000
  C   C592      1.0  0.53257  0.83988  0.32905  1.0000
  C   C593      1.0  0.57959  0.88972  0.21495  1.0000
  H   H472      1.0  0.49919  0.98353  0.41648  1.0000
  H   H473      1.0  0.62186  0.81476  0.23997  1.0000
  H   H474      1.0  0.65851  0.99662  0.04291  1.0000
  P   P20       1.0  0.54114  0.78684  0.27050  1.0000
  C   C594      1.0  0.55696  0.95866  0.40029  1.0000
  C   C595      1.0  0.52880  0.81400  0.12105  1.0000
  C   C596      1.0  0.55024  0.92012  0.48325  1.0000
  Fe  Fe41      1.0  0.60479  0.83992  0.02543  1.0000
  H   H475      1.0  0.67562  0.89072  0.31006  1.0000
  H   H476      1.0  0.68188  0.97380  0.20159  1.0000
  C   C597      1.0  0.67434  0.90041  0.41541  1.0000
  S   S83       1.0  0.68005  0.68774  0.48432  1.0000
  C   C598      1.0  0.51130  0.74978  0.25715  1.0000
  C   C599      1.0  0.56627  0.69735  0.04756  1.0000
  H   H477      1.0  0.56133  0.74849  0.04029  1.0000
  S   S84       1.0  0.87121  0.67448  0.20319  1.0000
  H   H478      1.0  0.67248  0.95614  0.29782  1.0000
  H   H479      1.0  0.60971  0.68479  0.39248  1.0000
  C   C600      1.0  0.57703  0.72870  0.06304  1.0000
  C   C601      1.0  0.49497  0.68789  0.38384  1.0000
  C   C602      1.0  0.74435  0.89017  0.47921  1.0000
  C   C603      1.0  0.77925  0.98863  0.08850  1.0000
  H   H480      1.0  0.51646  0.91325  0.21736  1.0000
  C   C604      1.0  0.58429  0.91433  0.45592  1.0000
  C   C605      1.0  0.61088  0.91167  0.31599  1.0000
  H   H481      1.0  0.67769  0.73796  0.38000  1.0000
  C   C606      1.0  0.66088  0.98884  0.41120  1.0000
  H   H482      1.0  0.61266  0.99675  0.22476  1.0000
  C   C607      1.0  0.60903  0.97959  0.19417  1.0000
  C   C608      1.0  0.50928  0.69532  0.22849  1.0000
  C   C609      1.0  0.64019  0.89474  0.29122  1.0000
  H   H483      1.0  0.67047  0.68697  0.05391  1.0000
  H   H484      1.0  0.71886  0.93655  0.45680  1.0000
  C   C610      1.0  0.69948  0.84649  0.43620  1.0000
  H   H485      1.0  0.50853  0.76481  0.36057  1.0000
  H   H486      1.0  0.77401  0.89880  0.50686  1.0000
  H   H487      1.0  0.75738  0.96803  0.08642  1.0000
  H   H488      1.0  0.55956  0.97444  0.36905  1.0000
  C   C611      1.0  0.57395  0.67855  0.38126  1.0000
  C   C612      1.0  0.65860  0.96572  0.37290  1.0000
  C   C613      1.0  0.82278  0.98620  0.07743  1.0000
  H   H489      1.0  0.76596  0.90607  0.01700  1.0000
  H   H490      1.0  0.48830  0.70176  0.08252  1.0000
  H   H491      1.0  0.54338  0.93273  0.30540  1.0000
  C   C614      1.0  0.90186  0.70239  0.49631  1.0000
  C   C615      1.0  0.67701  0.69255  0.01666  1.0000
  H   H492      1.0  0.64774  0.87169  0.22159  1.0000
  H   H493      1.0  0.92055  0.97363  0.13626  1.0000
  C   C616      1.0  0.70020  0.68419  0.29316  1.0000
  C   C617      1.0  0.73783  0.85770  0.47152  1.0000
  Fe  Fe42      1.0  0.73237  0.72652  0.49591  1.0000
  C   C618      1.0  0.49065  0.83138  0.20361  1.0000
  C   C619      1.0  0.52264  0.85570  0.37126  1.0000
  C   C620      1.0  0.50780  0.83877  0.40950  1.0000
  H   H494      1.0  0.76248  0.84118  0.49285  1.0000
  H   H495      1.0  0.70218  0.73900  0.03959  1.0000
  C   C621      1.0  0.49604  0.83791  0.11492  1.0000
  C   C622      1.0  0.96946  0.92782  0.03456  1.0000
  H   H496      1.0  0.49249  0.79257  0.43549  1.0000
  H   H497      1.0  0.53907  0.96305  0.01913  1.0000
  H   H498      1.0  0.89123  0.83636  0.01484  1.0000
  H   H499      1.0  0.48535  0.84958  0.07802  1.0000
  S   S85       1.0  0.64980  0.79778  0.02229  1.0000
  H   H500      1.0  0.65307  0.94105  0.01854  1.0000
  H   H501      1.0  0.48819  0.00073  0.04974  1.0000
  H   H502      1.0  0.59219  0.80464  0.50323  1.0000
  H   H503      1.0  0.52650  0.67485  0.21774  1.0000
  C   C623      1.0  0.48354  0.99650  0.00882  1.0000
  H   H504      1.0  0.67018  0.84277  0.69324  1.0000
  S   S86       1.0  0.64434  0.72025  0.58117  1.0000
  C   C624      1.0  0.61806  0.97315  0.89940  1.0000
  Fe  Fe43      1.0  0.70142  0.75562  0.58627  1.0000
  S   S87       1.0  0.71581  0.79001  0.65392  1.0000
  S   S88       1.0  0.75418  0.71905  0.58070  1.0000
  Fe  Fe44      1.0  0.91065  0.91476  0.76336  1.0000
  C   C625      1.0  0.91049  0.80439  0.64999  1.0000
  S   S89       1.0  0.86742  0.89883  0.68577  1.0000
  Fe  Fe45      1.0  0.92965  0.96531  0.84870  1.0000
  H   H505      1.0  0.87592  0.80384  0.74038  1.0000
  C   C626      1.0  0.57911  0.95609  0.61139  1.0000
  S   S90       1.0  0.93257  0.86138  0.93585  1.0000
  H   H506      1.0  0.53164  0.82407  0.54563  1.0000
  S   S91       1.0  0.88120  0.92414  0.83218  1.0000
  H   H507      1.0  0.86932  0.68070  0.66437  1.0000
  C   C627      1.0  0.66555  0.86265  0.81525  1.0000
  C   C628      1.0  0.51268  0.97527  0.99170  1.0000
  C   C629      1.0  0.62930  0.94999  0.93732  1.0000
  S   S92       1.0  0.72795  0.82374  0.93521  1.0000
  C   C630      1.0  0.80446  0.67662  0.68453  1.0000
  C   C631      1.0  0.88955  0.77450  0.64521  1.0000
  C   C632      1.0  0.87524  0.85248  0.93641  1.0000
  C   C633      1.0  0.92378  0.76485  0.75734  1.0000
  H   H508      1.0  0.80710  0.96536  0.87311  1.0000
  C   C634      1.0  0.78437  0.83599  0.93723  1.0000
  C   C635      1.0  0.79536  0.84797  0.89255  1.0000
  C   C636      1.0  0.84056  0.85650  0.89230  1.0000
  H   H509      1.0  0.52946  0.95255  0.92602  1.0000
  H   H510      1.0  0.76895  0.85046  0.85789  1.0000
  H   H511      1.0  0.84867  0.86517  0.85741  1.0000
  H   H512      1.0  0.57058  0.78434  0.90771  1.0000
  C   C637      1.0  0.53223  0.89350  0.85534  1.0000
  C   C638      1.0  0.54534  0.87544  0.90047  1.0000
  C   C639      1.0  0.51455  0.87034  0.93222  1.0000
  H   H513      1.0  0.55601  0.89679  0.83066  1.0000
  H   H514      1.0  0.57888  0.86477  0.90990  1.0000
  C   C640      1.0  0.75913  0.81944  0.66258  1.0000
  C   C641      1.0  0.77768  0.83111  0.71220  1.0000
  C   C642      1.0  0.81114  0.85518  0.72015  1.0000
  C   C643      1.0  0.82539  0.86847  0.67825  1.0000
  C   C644      1.0  0.80563  0.85750  0.62856  1.0000
  C   C645      1.0  0.77355  0.83262  0.62082  1.0000
  H   H515      1.0  0.76627  0.82141  0.74471  1.0000
  H   H516      1.0  0.82548  0.86369  0.75855  1.0000
  H   H517      1.0  0.81574  0.86804  0.59590  1.0000
  H   H518      1.0  0.75923  0.82405  0.58249  1.0000
  C   C646      1.0  0.66785  0.67046  0.97689  1.0000
  S   S93       1.0  0.95411  0.95924  0.77480  1.0000
  C   C647      1.0  0.50619  0.93970  0.65610  1.0000
  C   C648      1.0  0.82220  0.95798  0.95484  1.0000
  C   C649      1.0  0.95901  0.75165  0.79512  1.0000
  P   P21       1.0  0.71319  0.71567  0.86104  1.0000
  C   C650      1.0  0.66950  0.73941  0.82065  1.0000
  C   C651      1.0  0.64785  0.76365  0.84224  1.0000
  C   C652      1.0  0.61566  0.78307  0.81078  1.0000
  C   C653      1.0  0.60544  0.77881  0.75752  1.0000
  C   C654      1.0  0.62740  0.75513  0.73566  1.0000
  C   C655      1.0  0.65918  0.73543  0.76701  1.0000
  C   C656      1.0  0.76574  0.73826  0.87448  1.0000
  C   C657      1.0  0.77360  0.76183  0.84044  1.0000
  C   C658      1.0  0.81488  0.77855  0.85050  1.0000
  C   C659      1.0  0.84819  0.77232  0.89497  1.0000
  C   C660      1.0  0.84072  0.74890  0.92894  1.0000
  C   C661      1.0  0.79986  0.73168  0.91855  1.0000
  H   H519      1.0  0.84972  0.97522  0.96167  1.0000
  C   C662      1.0  0.53944  0.97449  0.60248  1.0000
  H   H520      1.0  0.71954  0.75216  0.95596  1.0000
  H   H521      1.0  0.65652  0.76818  0.88316  1.0000
  H   H522      1.0  0.59954  0.80201  0.82756  1.0000
  H   H523      1.0  0.58121  0.79429  0.73312  1.0000
  H   H524      1.0  0.62039  0.75233  0.69424  1.0000
  H   H525      1.0  0.67614  0.71757  0.74900  1.0000
  H   H526      1.0  0.74791  0.76764  0.80642  1.0000
  H   H527      1.0  0.82050  0.79708  0.82466  1.0000
  H   H528      1.0  0.87939  0.78615  0.90378  1.0000
  H   H529      1.0  0.92085  0.69224  0.53172  1.0000
  C   C663      1.0  0.61923  0.87215  0.60457  1.0000
  P   P22       1.0  0.63205  0.90350  0.65146  1.0000
  C   C664      1.0  0.68284  0.92408  0.64257  1.0000
  C   C665      1.0  0.58250  0.92906  0.64243  1.0000
  C   C666      1.0  0.54567  0.92112  0.66490  1.0000
  C   C667      1.0  0.64691  0.99055  0.00268  1.0000
  C   C668      1.0  0.72100  0.92751  0.68374  1.0000
  C   C669      1.0  0.76151  0.94097  0.67584  1.0000
  C   C670      1.0  0.76440  0.95121  0.62696  1.0000
  C   C671      1.0  0.72665  0.94811  0.58581  1.0000
  C   C672      1.0  0.68616  0.93434  0.59340  1.0000
  C   C673      1.0  0.64353  0.88696  0.71523  1.0000
  C   C674      1.0  0.63628  0.90511  0.75678  1.0000
  C   C675      1.0  0.66298  0.85684  0.72441  1.0000
  C   C676      1.0  0.53319  0.67091  0.52936  1.0000
  H   H530      1.0  0.54709  0.90047  0.68911  1.0000
  C   C677      1.0  0.57527  0.85864  0.59185  1.0000
  H   H531      1.0  0.72036  0.91918  0.72187  1.0000
  H   H532      1.0  0.79122  0.94277  0.70747  1.0000
  H   H533      1.0  0.79624  0.96114  0.62111  1.0000
  P   P23       1.0  0.52360  0.68899  0.98963  1.0000
  H   H534      1.0  0.65781  0.93106  0.56072  1.0000
  C   C678      1.0  0.48759  0.67932  0.51003  1.0000
  C   C679      1.0  0.54956  0.74157  0.93975  1.0000
  C   C680      1.0  0.81154  0.94095  0.99578  1.0000
  C   C681      1.0  0.96464  0.72422  0.63719  1.0000
  H   H535      1.0  0.86208  0.83444  0.53226  1.0000
  H   H536      1.0  0.54850  0.86655  0.61019  1.0000
  C   C682      1.0  0.51271  0.72444  0.95108  1.0000
  H   H537      1.0  0.62631  0.92529  0.92676  1.0000
  C   C683      1.0  0.91856  0.80814  0.81576  1.0000
  C   C684      1.0  0.64701  0.89285  0.80657  1.0000
  Fe  Fe46      1.0  0.69956  0.83357  0.00482  1.0000
  H   H538      1.0  0.67346  0.85316  0.85373  1.0000
  H   H539      1.0  0.54770  0.90550  0.51573  1.0000
  C   C685      1.0  0.84456  0.69277  0.68133  1.0000
  H   H540      1.0  0.82722  0.78096  0.52219  1.0000
  C   C686      1.0  0.65363  0.86016  0.58176  1.0000
  S   S94       1.0  0.96802  0.88382  0.80478  1.0000
  C   C687      1.0  0.59958  0.82358  0.53126  1.0000
  H   H541      1.0  0.74846  0.73592  0.73014  1.0000
  C   C688      1.0  0.77591  0.72349  0.71831  1.0000
  C   C689      1.0  0.69710  0.70687  0.92117  1.0000
  H   H542      1.0  0.91426  0.84968  0.61458  1.0000
  H   H543      1.0  0.60665  0.96321  0.59379  1.0000
  C   C690      1.0  0.50760  0.96953  0.93920  1.0000
  H   H544      1.0  0.93479  0.81117  0.68469  1.0000
  C   C691      1.0  0.70499  0.72923  0.96110  1.0000
  C   C692      1.0  0.86438  0.84002  0.98089  1.0000
  H   H545      1.0  0.90298  0.83008  0.82390  1.0000
  Fe  Fe47      1.0  0.69597  0.68419  0.57046  1.0000
  C   C693      1.0  0.79789  0.95253  0.90452  1.0000
  C   C694      1.0  0.87012  0.81765  0.56353  1.0000
  H   H546      1.0  0.72380  0.89638  0.92814  1.0000
  C   C695      1.0  0.90336  0.79311  0.76843  1.0000
  H   H547      1.0  0.84458  0.74308  0.59382  1.0000
  P   P24       1.0  0.90352  0.74548  0.69587  1.0000
  C   C696      1.0  0.64402  0.95876  0.98885  1.0000
  H   H548      1.0  0.81923  0.76411  0.72714  1.0000
  C   C697      1.0  0.81628  0.73953  0.71618  1.0000
  C   C698      1.0  0.95372  0.79490  0.85288  1.0000
  C   C699      1.0  0.54196  0.77054  0.91433  1.0000
  S   S95       1.0  0.52943  0.84615  0.98794  1.0000
  H   H549      1.0  0.97824  0.96290  0.61730  1.0000
  C   C700      1.0  0.94540  0.71857  0.67996  1.0000
  C   C701      1.0  0.75096  0.91382  0.93559  1.0000
  C   C702      1.0  0.77532  0.91913  0.98598  1.0000
  C   C703      1.0  0.67413  0.84482  0.77436  1.0000
  H   H550      1.0  0.83981  0.70870  0.52398  1.0000
  C   C704      1.0  0.76248  0.93029  0.89483  1.0000
  H   H551      1.0  0.74430  0.92560  0.85574  1.0000
  C   C705      1.0  0.85021  0.78768  0.55800  1.0000
  C   C706      1.0  0.85135  0.72425  0.69831  1.0000
  H   H552      1.0  0.68957  0.82166  0.78142  1.0000
  H   H553      1.0  0.67055  0.82760  0.52764  1.0000
  Fe  Fe48      1.0  0.94073  0.89585  0.87432  1.0000
  H   H554      1.0  0.58437  0.73307  0.95223  1.0000
  H   H555      1.0  0.72905  0.95605  0.54798  1.0000
  H   H556      1.0  0.60643  0.96636  0.85947  1.0000
  H   H557      1.0  0.79651  0.68323  0.84509  1.0000
  H   H558      1.0  0.64108  0.90676  0.83852  1.0000
  H   H559      1.0  0.62257  0.92879  0.75083  1.0000
  C   C707      1.0  0.85978  0.76628  0.59875  1.0000
  C   C708      1.0  0.81884  0.83231  0.98165  1.0000
  C   C709      1.0  0.89992  0.82609  0.60968  1.0000
  H   H560      1.0  0.97246  0.98998  0.96768  1.0000
  H   H561      1.0  0.53701  0.99516  0.57822  1.0000
  H   H562      1.0  0.79487  0.71339  0.94512  1.0000
  C   C710      1.0  0.56549  0.83455  0.55512  1.0000
  C   C711      1.0  0.72231  0.67957  0.82841  1.0000
  H   H563      1.0  0.95092  0.80055  0.51614  1.0000
  C   C712      1.0  0.64359  0.83643  0.54475  1.0000
  C   C713      1.0  0.67799  0.67749  0.92939  1.0000
  H   H564      1.0  0.68851  0.86868  0.59291  1.0000
  C   C714      1.0  0.77011  0.69199  0.70294  1.0000
  H   H565      1.0  0.95046  0.92208  0.66914  1.0000
  H   H566      1.0  0.86642  0.74438  0.96369  1.0000
  H   H567      1.0  0.55758  0.68664  0.89277  1.0000
  H   H568      1.0  0.55901  0.68904  0.53943  1.0000
  C   C715      1.0  0.97362  0.76652  0.84276  1.0000
  H   H569      1.0  0.96528  0.80660  0.88964  1.0000
  C   C716      1.0  0.50294  0.96626  0.62469  1.0000
  S   S96       1.0  0.65249  0.87475  0.00291  1.0000
  H   H570      1.0  0.97549  0.72998  0.78831  1.0000
  H   H571      1.0  0.94185  0.68539  0.74071  1.0000
  C   C717      1.0  0.48843  0.90704  0.84143  1.0000
  H   H572      1.0  0.63260  0.67158  0.64648  1.0000
  C   C718      1.0  0.95695  0.69067  0.70832  1.0000
  H   H573      1.0  0.89993  0.91983  0.99540  1.0000
  H   H574      1.0  0.73835  0.67975  0.70342  1.0000
  H   H575      1.0  0.95634  0.74523  0.61402  1.0000
  C   C719      1.0  0.49754  0.78240  0.89916  1.0000
  H   H576      1.0  0.49184  0.80529  0.88068  1.0000
  C   C720      1.0  0.69519  0.72195  0.00863  1.0000
