data_image0
_chemical_formula_structural       H2SHS2FeS2FeS2FeSFeS3FeHSC2HCFeSHS2HCSFeS2FeS2FeSFeS4CHSC4SHC3H2SFeHSHCHCSH2C2HC4HC3H2CH4C3H2C12H4C4H3C6SH3C6H4CHCHC3HCH2C4HCHC6H5C4H2C6H4C6H8FeHC2H2C11PC16H5C2H10CH2C3PHC2SH4C2H2C2HC4H4C2HC2HCHCH2CH3C8PC14H16PCHCHC4H2FeHCHC4H2C2HFeCHCHCHCH4C2H3CH2C3HC2HCH2C3H2C2H3C4HCHPCS2CHCPHC3H5CH6CHC2HC2H6C2FeCH5C2HCH2CHCH2C4HC4HCHCH2CHC3FeC2HCSCH2C2PCHCH2CH2C2HC4FeH3C3H2PC4HSCHCH3C2H2PC2HCPC12HCH3CHC2H2CH5C10HCH3C4FeC2HC2H2C2H3C2HC2HC3H3SC2HCH3SHCH2C2HC5HC2HC5HFeSC4H3CH3PFeH8CHC2H5C3HSH2FeSCHFeS2FeSHFeSFeS3CSCHCHFeSC3HFeHSCHCHS2CH3CH3C2PFeS2C3HSCHSCFeS2FeS2FeHFeS3H4CHCHC6H5C2HCH2C3H3CHC2H2C8H3C7H2SHSHCSC2HCHCHC3HSH5C4H2C3FeC7H5C10H4C6H3CHCHPC8HC3HCHCH3C3HCH2CH2CHC2HCSCFeC3PC21H13C2SH3CHC7PC18H20C6PC18H7C2H11CPCHPC10HC3H2SCH9CHC2SC2HCHC5H2SHCHCH2C3H2CH2CHCHC6PHCH2C2HCH5C2H10CHCHCH6CPC2HCH2CHC5HFeH6C2HCH4CH3C2HC3HCHCH2C2HC3HC4SPC7SCHCH4CH3C2H2CHCHCFeHCH3CHCHSH3C4SFeS2FeS2FeSFeHS2FeSCFeS2FeHCSHCFeS2FeS2FeSFeS3C2FeS2FeS2FeSFeS3HSHC8H3C6H4C6H3C6H4C5HCH2CH2SC6H4C2HC6H4C4H4C8H4C6H4C3PH2CHC6HCH2CSC6PC18H19CPCHCHC2SC8H2CHCFeH2CHC2H2C4PHC9HC2H4C2H7SC3FeC2H2CH2C2FeH2CH2C2H2C2HCHC4HC5FeCH2C4H2CH4CSCH2CPCHCHC2HCSHCH2CHC2H6CHC6PC18HCH14CH5CHSC3PC18HCH17CHCH2CH2PC13H4CH2CH9CH2C3HCHC6PC3S2C13H8CH11CFeSHC4H2PHFeCH2CSCHCHSHCSC2H2CH2C2HC5HC2H2CHCHC2H2CH3CHCSHCH3CHS2CHC6HC2H3CH2C2PHCH3CH5SHC2H3CH2CH2C4HCHC2HCH2SCFeSHFeS2FeSFeS3C2FeCFeSHSFeS2FeS2FeSFeS3CFeC3SHFeSFeS2FeSFeS4HSHC3HFeS2HCFeS2C6H2CHC2HCHC2HC7H4C6H2C8H4C6H5CHCH7C2HC3H4C2H2C7H4C2H2C7H4C6H5SH9CSH2C3H4SCHC4H4CH2C2HCFeH2C6PC18H6SCH12PC18H16CSC2FeCPC7HCHC2H2C2H2CH7CSCPHCHC2H3C2SC2H4CHC4H3CSHPH3C4H2C3SCH2CSHC2PC4HCHC9H4CHCH3C2HCHPC3HC9HCH8C2HC5H2C4H2CH2CH3C2H2SH2C3H2C3HC3HC3PCHSFeHC4H4C3HFeH2C2H2CSC8SHC2H2CHC2H3CH2C6PC14H3CH17C2HC6PC18H13CH6C7PC3HC9HSCH2C2HPC4H2CHC2H3C5HFeC2SCHCHFeH6CHC2HCH2CH2SC3FeCHCHPH2C2H2CH2C2H4C2SCHCHCFeHC2HC2HC3H2SHFeS2CH4CSH2C2FeS2FeSCFeSFeS3FeS2FeS2FeCFeS3FeS2FeSFeSHCS2CFeCSHCHSPFeS2FeS2FeSFeS3C2H2C6H4C5H2C7H3C6H4CH3C4H2CH2C8H6PC3H3CHC5SH2C4FeSHC3HC2SC7H4C6H2CHC6H5CHCHCH4CHC2HCH3C2SHC6PC18H2PH15CHC3PC3H3C12H4C2H12CH3CH4C5HSHCPHCH2CHC6PC8HCHC7H11SCH4CH2C3HPCH3CH2C3HC2PC2HFeHCHC3HC3H5CH2C2FeHC6PC13H5CH7C6PC2HC12H3C2H10C2H2CHC3H2C2H2SH2C2HCHCHC2HSCH2CH2CFeSH4CHFeHFeC3PC9HCH7CH2CPCHC8H5C4H2CH2C2H2SC2HC3HCHCH2CH2SH2CHCH3CH2SCHC2H2C4H2CHC5H2C2FeHC6HC2H2C2HCH2C3HCHC2H2C2FeSCHFeSHS3HSCFeSCH2FeSHFeS2FeSFeS3FeS2FeS2FeSFeS3FeCSFeCSCHCS2CFeS2FeSFeSFeS3FeCSFeSC2S2C3HC6H3C2FeCHCHC2HC2H4C3HC2HC6H4CH2CH2C6H4C5H4C5HCH2C3H4CHC6H4C7H3C6H3C3H2FeC3HCH2C3H5C4PCH2C3SC8HC4H2SHCHC2HCH4C2HC2H2CH5SHC2H2CHCHC2HC6H2C3H2C2H2C3HSH5C2H2C2HCHC2HC2HCH2C8PC14H2C3HCH12CPCH3CH2SHCH3CH5CHPCHCH2PHC2H2CH4C2H2CH3CH2C2HC3H2CH2C5HCH3CHCH2C7PC16H5CH10CHCSHSC2HC8H2CHCHSC2HCHCH6C3HCH6C2PC15HC2H2CH12CFeCHC2HS2C4HC2HC3HC2H2C6HCH3C2H3C2HC6PC8HCPC6H10CHCH3CH2C7PHCHCH2C2HSH2CH5CHCHCH2C6PC9SC3H5CH4CHC5HCH4FeHC2HC2FeCPH3C2SCHC3HCFeCSC4H2CH5CFeS2CFeSCSHFeCSFeS2C2FeS3HCFeS2FeS2FeSFeS3C7H2C6H4SH2C4HCH3C5H3CHC5H2C6H3C3SH2C4H2CHS2FePC6H2C7H3C2FeHC2HCHCH3C2H3CFeH2C2HCHCSHCHCSCH3CH4CH3C2HC2HCH2C2H8CH3C6PC18H21CH3C3PC3PC2FeC2H2C4SHC2HC4HC4HCH2CH2C3H2CH4C3HCPSC3H4C3HC7SHCHC2H2SC2H8SCPC3HC2H3C4HCHC2H4SCHCHCHC3HCHC4H2CSHC2PCSHC3HCHC6H4C3H2SHC3HCSC2PC4H2C2HC3HCHC4HC3HCH3CH2C3SC6HC4HCH3CH2CHCH2CHCH3CHFeHC2H2C2HC2H4CHC2HPH3CSC6H5CHCHC2H2C2PH3CH2C2HCHPCH3CH3CHC5HCH2SC5HCH2SC2H2CH4C2HC6H2C3HFeHCHC3HC2FeHC2H2CHC2H3SCHCHSFeSCH2SCFeS2FeSFe2S3H2SFeS2FeS2FeSFeS3C3FeS2CHCHS3HFeS2C5H6C6H4C6H5FeCHC2HC2HCH2CFeC2HC7H4CHC2HC2SHC2H2CSHCH2C5H2CHCHC6HC7PC8H3C7H11CH6C6HPC14HCH2CFeH11CHCHCHC2HCHC10HC2H4C2H2C2HC2H2CHC2H3CHC2H2C4HCHC4HCH6CHC3HC3H3SHCHFeHFeC2HP2C11HC8HFeH7C4HCH3C6PC18H18FeHC2H3C3H2C3PCHCH2SHC7HFeHCH2CHCHCH2CH8CH2SPCSH2CHPH2CH2C3HC2HFeSH2C2HCH2CHC3HSH4C2SH2CSC4HCH2C6HC2HC3HCHSCHSH3C2HCHC4SH2C2HSHPCHCHC2PC16H16CFeHCH4C3HSH2C2H4CH3CHCSFeC3H5CHCHCHC2HCHCH2CH4C4HPH2CSC5HS3FeS2FeS2FeSFeS3FeSCSHC2FeSFeS4FeSFeS2HFeS2FeSCFeSFeS3HFeSCFeS2Fe2S3FeS2FeS2FeSFeHS2HC8H5C6H4SHCH5CHC6H4CH5C6H4C6H4C5H3SHC4HCH2CHC6H2CHC6H4CHCHFeSFeC7H4C4H2C4H3C6PC15HC2H16CH3C6PC18H7CH13C3HC9H3C2SCH2CH5CHC2HC2FeH3CHCHC2HFeH2C4H2CHC2H3CSC4HC3H3CH2CH3PCH3SH3CHC4H2C2HC6PC18H11CH8SH2CHCHCHCH2C4H2C3H4PCSH2C4HCH3CHC2HFeC5HC2H6CHCH5CHCHC2HCHC2HCFeC2H2CHCH2C3HCH2CH2C3FeH2C2HCHSH5CHCHCHC3HC4H2C6H3CH3CHC2HC2PC18HPSH5CH4SCH5CHC3SPC19SH4CH3C3H6C4PC18HC2H2CHCH2CHC2H2CH2CHCHC5HCHCHCHC3H3CSHPCH2C2H2C4H4C2HCH3C2FeH2C4HSCSFeS2FeS2FeSFeS3Fe2S2FeSCS2C2SHPH3SFeS2FeS2Fe2S3FeSCFeS2FeSFeS3FeS2FeS2FeSFeS2FeS2FeSFeSFeS3CH2FeCHC3HC7H4C6H5C6H6C2HC6H4C6H6CHC2HCSC5H3C6H4C4H2C6H4C2H3C4H8C2HC3H2C6HCHCHCHC4HSC2H2CH2C2HC2HC7SCHCSCHC2HC2H3C2H2CHCHC3H3CH3CHC10H2CH5C2HC6PC3HC3H2CH2CPH2C2H6C2H2C2H3C2SCHC6PC18HC2H17C3SC3HCHCHC2H3C3HCHC3HC8HC3H5CH3C4HC3HC3HCHC2HCH5C2H2C6PC18H20C2H3SCHC2H5C3HPC8HC4H3C4H8C2H3CH2C6PC18H20C5PH3C4HC2H4PCH3CFePCH2C5H2C2H3C6HC2HCHPCHCH2C4HCPC2H2C8H3C3HCH3CHC2H5CH3C3HCHFeC2HC5H3C2H6CHC2HCHC2HCHCH4C2H2CHCSC3H3FeS2FeSFeSCHFeSCFeS2FeSFeS3FeSFeS2FeHFeS4CS2CSFeS2FeS2FeSFeS3FeS2FeS2FeSFeS3CSHS2H2FeS2CH4C6H4CH4C8H4C2H2C16H4C8H4C6H5SC7H4C6H4C6H4C6PC3SC14H6CH2SH7C8PHC3HC2HFe2C6H6C2H2C3H6PH2CHCHCHC5HSC2HCHC4HC3H2CHC2HCH4CH3C3H2C2H2FePC9H2C2HC2HCSH7C2H2C2H3C2HC6PC18H21PC10H10C6PC18H24CHC2H4SH2CHC10PCH3C2H3C6H5C2H3C2H6CFeH4C6HSC2HSHC2H3C2H6FeH3CHCH3CHC3HC2H5CH3PH2C2HC2H2C2HC2HCHC4FeH2C3HC2SHCHCH2CH2C2H2C2HC3H2C2H2C3FeC3PC18H3S2CHCH3SH2CHCHCH2CHCHC3H2C2H3CH3C3H2C4FeCHC3HC5SFeS2FeSFeS3C2HFeS2FeS2FeHFeS3FeS2FeS2FeSFeHS2HC3SHFeSCHCHFeS2FeS2FeSFeS3FeS2FeS2FeSFeS3CSHPFeSH2PC2FeS2HC3HC6H4C9H4CH3C4HCH2C6H4C6H4C2HC3H2C6H4CH3C5H2C2HCHC6HPH2C6H4C6H2CHC5HC5H3CHCSH2CHCHCHCH4CH2C2HCHC12H9C6PC4H2C9HC2H4C3H10FeH2C6PC3H2CHC4H2CSHSCH11CHCHC3H2C3HCH4CH2CH2CHFeH3CSH2C5HC2H3CHCHCH2CH6C3HCH4C2HCHC7FeH2CFeC2H3C5HCHC3HCHC2HC6PC19H15CH5CHCHC3HC3SH2CHC2HC4PC11H11C6PC18H22C2H3C8PH2CH6CH2CHCH2C6H7CHC3SC5PC2HC10FeC2HCH3CSH2CH2CHCHC2HC3H2C2SCSH2C4PCH2CH3C2H2C4H2CHC2H3C3H3CH4C10HCHCH4C3HCHCH2C2HCH2C3HC3H4C2H4C4PC2HCFeS2FeS2FeHS2HC3SCFeS2FeSFeS2H2SHC3FeS5FeS2FeS2FeSFeS3C6H4C6H4Fe2H2C5HCHSC5HC8H5C2H6C6H4C6H4C3HC4HCHCHCH2C8H2C4HCH5CHCHCH2CH4CH2C3HPC15HC2HC3H11C3H2C5FeHCHPC9H2SC6H2C4H7CH7FeHC5H2C2HCH2CH2C5H2C4PH2CH2C2SCH4C2H3CHCHS2HC5H4PC3H2CFeH3CHC3FeHC4H10CH2C2H2C9PC7HCH2C7HCH8CH6C3SC3PC7SCH2C3HC2H2C2H8SHCH2CHCHC3HC3HC2HCH2CSC2HCSC3H2C6PC18H19C4H3CH2C2H2CHC2HSPC2PH2C3HCHCHCH2SCH3CFeHCSC2H2CHSC2HCH4CHCHSHCHC2SCHCHPCH3CHC6HCHCH2CH4CHCH4C2PH2CHCHC2HC2HC2HC2H2C2HC5HCSHCFeHPCH4C2H4C2H2SH4C3HC2PCH3CPCHFeCFeS2FeS2HSCHCHCHCH2CHC2FeC2SC2HS2FeHS2HSFeS2FeSFeSCFeHSH2CFeSCFeS2FeSFeS3C6H4CHCHC2H4C6H4CH2SHCHCFeHSCH3CS2HCHC3HCFeCHC2HC2H3CH4CH2SH2C6H2C6H5C11SH3C3H6PH2FeC2PCHC2HCH2C4H2CH10SC9H3C2H2CH3FeH7FeH5C2H2C3HCHCH2C3HCH2FeHC2H3CHC2SC6H2CHC4H2C6HPCHC2SHCPC5HCHC2H4C2H2CHCHCH2CHPHC5HPHPHCHC3HFeSC3HC7H2FeC2HC3HCHCH4C6PC18H6CH16SHFeC6HFeC3HCSCH2C2HCHCHSCHCHCH3PCHCHCH2C3SH2CHSC2HCHC2H2C2H2C4HC6HCHC3HC6PC13H4CH4C6HC3HFeH4CH3C3FeH2C3HSHCHC6H4CHCHFeHCFeS2FeSCS3FeS2FeS2FeSFeHS2H3FeCSFeSHSCFeS2FeS2FeSFeS3HC2HSCFeS2FeS2FeSFeS3FeS2FeSFeSFeS2HC6H4C3H2C6H4C6H4C3HCH2CPC2HC3HC2HSCHCHCHCHC7H4C6H4C6H4C6H4C2H2SC3SHC5HC7PC5HC14H5CFeH11C6HC2SHCPC3H3CHC2H3C5H2CH4C6PC2H2C3HC6PSHCH2PH2CH4CH4CHFeH2C2H2C5H2C6H3CH3C2HCH2CH2C3SHC2H3C4HC2PC8FeH2SC4PC8HPH4CHCH3SH6C3HC3H2CHC3HC4H2PH5CHC6H2C3H6C2H3C4PC11H12C6PC4H13C2HC8PC7HPHCHCHC2H2CH2C3H2CHCSHC5PC16H15C6PC18H20CH3C2HFeHC2FeCSH3CH2C3H2C3H4C2H3C2H2CH3SH6C9HCHCH4C6HCHCHCHCSH2C2HCHCHC10HC2H2CH2C4FeS2FeSCSCSFeS2FeSHFeCFeS3CSHFeSCFeSCSHFeS2FeS2FeSFeS3CSCHSFeS3FeS2FeS2FeSFeS3C6H4C2HCHC6H4C4HCH2CHC6H5CPFeHFeHCH3C3H3CHCH3CH3C2H3SHC2H2C6H4S2PH3C6H4C6HCHC6H4C2H2CHCHCHC6H4C3SFeHCH2SH2C7PC5H3C7H3CHC2HPH2CHC5PC18H17C6H2C2H4FeHC3HC4PC18H19CHCHPC2HC7H2C2PH5C3HC2SH3CFeCHC4H4C3HCHCHCHCH2C3HCH4CHC3HCHC2H2C4H2C4HC2HCHC4HCHCH2CHCHC2H2FeCH2C2H2PC2HCH3CH3CHC4H3C9HC2H2C2HC3HC6PC8HFeC4H3CHCH9SH3CH3CHC2H2CH3C5H4CH3C5HC3H3CH2PH2CH2C2PC6HC2HC6H3CH6CHCH5CHCHCSH4C4SC4HFeC2PH8C5HCHCHC2HC2HCHSC3H2SH2C4H2CHC3HC6HCFeS2FeS2FeHFeS3C2FeCSCHS4FeSFeS2FeS2FeSFeS3HS2HCHFeS2FeS2FeSFeS3C3HC3HC2H2CHC7H2C4H2C6H5C5HC7H4SFeH2C4HCHC6H7C7H4C6H5C4H6PCH2SCHSPHCH3C8PC7HSHCH2C2H6CH4CFeH5C10PC3HC14H6CPH7C2HC6PC18HCH4CHCH11C2HC4HC3H2FeH2C2HPC14HC3H9C2H3CHC4HCH4C2H4C2H4C3PC5HC12FeSC2H11CHCH2C6H2C3H4C2HC2HC2H5CH3CHCH3C4H5C2HC2HCH2C2SCHCPC6PC18H23CHSC3SPH2C4HCH2CH2CHCHCHFeHCH2C10HC2H3SHCHC5HCHCSHC11PHCHCH3CSCH3C3HC2H2CH3CH3C2HC2H2CHSFeS2FeS2FeSFeSCHFeS2HFeS2FeS2FeSFeS3FeS2FeHFeS2FeS2FeS2FeS2FeSFeS3CHPSHC2HC5H2C3H2C3H2C6H4C2H2SC7H3C6H5C2HCHSC8H4C5H2C4HCH4C6H3CSH2SHCH3C6PC13H2CHCH16CHCHC6PC9HC8H20C3HCPC10SH2CHC2H2C2H5C2H3CH4C4H2C2HCH5CH3CHC4HCHSHCHCSCHCHC3FeC2HC2SCFeCHCH2SHSH3CHCHSCH2C2H2CHCSHC2HC3H2CFeC2H3C2HCHCH2CFeHFePCH3C6PC18H20C6PC18H20C6PC18H19CHC6PC18HCH11CFeH5CH3SH3CHC3H2CSCHSH3FeHCH3C2PC5SFeC6H4C2HC4FeS2H2SFeH2FeHSHCHFeS2FeS2FeSFeS3FeSH2SHFeSFeS2HC3H2SH3FeSC3HCH2CHC2H2FeS2FeS2FeSFeS3C5HCH2SH2C4HCH3C5H2CH3CHC5H2C6H6C4HCH3C3H2CH3C7HCHC6H4CHC2HC2HC2HC3H4C5H2C2H2CHCPC5HCHCHC6H2CH2C3HCHCHCHCPHC2SC2H2CH2C4H2C2HC2H3PHC2HCHCH3CH2C2H2C3HC2H2CH2C2H3CHC2FeCH2CHCSC3H3CHCHC3H4C2H3C2H2C6PC18H20C6PC18H8CH8C2H3CH3CH3C2HC3PCH2C3HC2HCH2CHCH4CHCH3C4H2CHPCHCSCHCHCHC4H3SCHCH2C4HC3HCHCH2FeCFe2S2FeS2FeSFeS3FeCSFeHSC2H2S2FeSHCSFeSFeS2FeS2FeS2FeSFeS2HSCHCHSCH2CSC3H2PSCFeS2CSFeSFeS2C7H3C7H4C2H4C7H3C8H2SH2C3HC6H4CHC8HC2H4C2FeCHCHC6H4C4H3C6HC7H4C6H4CH4C3H2C3H2CH2CH2PH3CH5CPH2CHC6PC10HC4HC2SCSH8C2H4CH2C3HSCH2CHCH3C2HC2HCHC4HC2H3CHC3HC2H3SH2C6PC18H20C2FeH3C2HCHCHCHC7FeCH3CSCHCH4C3HC3PH2C6PC9H2C7H10CH2CH8C2H3CHC2HC2HC2HC2HC2HCH6CH2C2HCHC6PC18HCH15CH3CHC7PC5HC9HC2H5CH10CH2C6PC6HCH2C3H2C3HC2H3CHC2H2CSCH3CHC3HC4HCH2SCH3C2HCHCHCHCH3CS2CFeCH2C2SH2CHC2H
_chemical_formula_sum              "H5472 S912 Fe456 C6840 P228"
_cell_length_a       91.7303
_cell_length_b       91.2679
_cell_length_c       50.0668
_cell_angle_alpha    77.772
_cell_angle_beta     78.1649
_cell_angle_gamma    101.548

_space_group_name_H-M_alt    "P 1"
_space_group_IT_number       1

loop_
  _space_group_symop_operation_xyz
  'x, y, z'

loop_
  _atom_site_type_symbol
  _atom_site_label
  _atom_site_symmetry_multiplicity
  _atom_site_fract_x
  _atom_site_fract_y
  _atom_site_fract_z
  _atom_site_occupancy
  H   H1        1.0  0.99237  0.24392  0.24234  1.0000
  H   H2        1.0  0.01237  0.12923  0.02018  1.0000
  S   S1        1.0  0.15700  0.36187  0.29849  1.0000
  H   H3        1.0  0.12250  0.44478  0.41293  1.0000
  S   S2        1.0  0.15791  0.43738  0.22853  1.0000
  S   S3        1.0  0.16156  0.40770  0.29438  1.0000
  Fe  Fe1       1.0  0.08999  0.42299  0.16131  1.0000
  S   S4        1.0  0.06742  0.42659  0.18286  1.0000
  S   S5        1.0  0.10273  0.40747  0.18299  1.0000
  Fe  Fe2       1.0  0.08881  0.43959  0.10259  1.0000
  S   S6        1.0  0.06617  0.44439  0.11936  1.0000
  S   S7        1.0  0.09878  0.44588  0.05520  1.0000
  Fe  Fe3       1.0  0.07633  0.45072  0.15388  1.0000
  S   S8        1.0  0.07343  0.47373  0.16125  1.0000
  Fe  Fe4       1.0  0.05933  0.42000  0.14648  1.0000
  S   S9        1.0  0.03577  0.40417  0.15352  1.0000
  S   S10       1.0  0.09962  0.44763  0.13508  1.0000
  S   S11       1.0  0.08119  0.41465  0.12715  1.0000
  Fe  Fe5       1.0  0.00314  0.34990  0.06542  1.0000
  H   H4        1.0  0.03264  0.15200  0.01953  1.0000
  S   S12       1.0  0.02514  0.36721  0.06254  1.0000
  C   C1        1.0  0.02186  0.31628  0.98863  1.0000
  C   C2        1.0  0.98846  0.31781  0.20998  1.0000
  H   H5        1.0  0.01075  0.31073  0.00365  1.0000
  C   C3        1.0  0.03772  0.25359  0.45680  1.0000
  Fe  Fe6       1.0  0.99474  0.31575  0.06531  1.0000
  S   S13       1.0  0.00719  0.29674  0.06884  1.0000
  H   H6        1.0  0.99962  0.24094  0.10693  1.0000
  S   S14       1.0  0.00757  0.33751  0.03181  1.0000
  S   S15       1.0  0.16082  0.19143  0.16937  1.0000
  H   H7        1.0  0.02138  0.32041  0.24366  1.0000
  C   C4        1.0  0.13088  0.00528  0.15035  1.0000
  S   S16       1.0  0.15897  0.23652  0.15044  1.0000
  Fe  Fe7       1.0  0.07462  0.26161  0.27379  1.0000
  S   S17       1.0  0.08217  0.24480  0.30468  1.0000
  S   S18       1.0  0.05323  0.25636  0.25557  1.0000
  Fe  Fe8       1.0  0.10151  0.28877  0.27366  1.0000
  S   S19       1.0  0.11126  0.27346  0.30288  1.0000
  S   S20       1.0  0.11074  0.31511  0.25554  1.0000
  Fe  Fe9       1.0  0.10618  0.25635  0.27727  1.0000
  S   S21       1.0  0.12094  0.23974  0.26932  1.0000
  Fe  Fe10      1.0  0.08670  0.26316  0.32824  1.0000
  S   S22       1.0  0.07942  0.25670  0.37701  1.0000
  S   S23       1.0  0.09864  0.27251  0.24544  1.0000
  S   S24       1.0  0.07694  0.27916  0.29989  1.0000
  S   S25       1.0  0.09655  0.12350  0.00606  1.0000
  C   C5        1.0  0.04982  0.17627  0.21411  1.0000
  H   H8        1.0  0.03362  0.40254  0.01527  1.0000
  S   S26       1.0  0.13076  0.16022  0.00790  1.0000
  C   C6        1.0  0.17434  0.12404  0.22284  1.0000
  C   C7        1.0  0.15616  0.38011  0.44017  1.0000
  C   C8        1.0  0.02715  0.16126  0.02212  1.0000
  C   C9        1.0  0.15077  0.09118  0.07296  1.0000
  S   S27       1.0  0.17119  0.01510  0.17242  1.0000
  H   H9        1.0  0.01647  0.37859  0.99385  1.0000
  C   C10       1.0  0.03417  0.30952  0.98962  1.0000
  C   C11       1.0  0.15054  0.99383  0.08890  1.0000
  C   C12       1.0  0.17919  0.45331  0.46784  1.0000
  H   H10       1.0  0.03758  0.47884  0.26863  1.0000
  H   H11       1.0  0.04428  0.21551  0.43977  1.0000
  S   S28       1.0  0.99182  0.32793  0.09959  1.0000
  Fe  Fe11      1.0  0.00064  0.19909  0.18055  1.0000
  H   H12       1.0  0.98401  0.28823  0.28091  1.0000
  S   S29       1.0  0.02324  0.20649  0.19423  1.0000
  H   H13       1.0  0.02458  0.18805  0.06008  1.0000
  C   C13       1.0  0.00918  0.17606  0.00993  1.0000
  H   H14       1.0  0.08775  0.31435  0.34489  1.0000
  C   C14       1.0  0.17810  0.40003  0.45667  1.0000
  S   S30       1.0  0.99994  0.20471  0.13451  1.0000
  H   H15       1.0  0.16836  0.08469  0.26725  1.0000
  H   H16       1.0  0.14021  0.27844  0.37518  1.0000
  C   C15       1.0  0.11042  0.00721  0.12696  1.0000
  C   C16       1.0  0.98763  0.48001  0.27455  1.0000
  H   H17       1.0  0.00140  0.11829  0.11557  1.0000
  C   C17       1.0  0.13766  0.47776  0.04998  1.0000
  C   C18       1.0  0.16909  0.13052  0.11003  1.0000
  C   C19       1.0  0.16260  0.00667  0.07280  1.0000
  C   C20       1.0  0.17595  0.48052  0.25916  1.0000
  H   H18       1.0  0.00277  0.07342  0.06751  1.0000
  C   C21       1.0  0.06632  0.17062  0.01244  1.0000
  C   C22       1.0  0.15286  0.00467  0.03098  1.0000
  C   C23       1.0  0.16359  0.01205  0.04376  1.0000
  H   H19       1.0  0.01805  0.10002  0.11204  1.0000
  H   H20       1.0  0.08326  0.18939  0.14580  1.0000
  C   C24       1.0  0.05501  0.38156  0.00202  1.0000
  H   H21       1.0  0.09324  0.42120  0.00539  1.0000
  H   H22       1.0  0.11965  0.09260  0.04600  1.0000
  H   H23       1.0  0.16001  0.28651  0.32943  1.0000
  H   H24       1.0  0.04977  0.34228  0.06731  1.0000
  C   C25       1.0  0.14180  0.35735  0.38558  1.0000
  C   C26       1.0  0.07569  0.46918  0.21667  1.0000
  C   C27       1.0  0.08984  0.16972  0.04010  1.0000
  H   H25       1.0  0.04022  0.17313  0.23271  1.0000
  H   H26       1.0  0.17093  0.26878  0.22422  1.0000
  C   C28       1.0  0.16752  0.24199  0.28541  1.0000
  C   C29       1.0  0.12370  0.47407  0.15572  1.0000
  C   C30       1.0  0.16211  0.10250  0.11776  1.0000
  C   C31       1.0  0.02554  0.48160  0.20805  1.0000
  C   C32       1.0  0.05545  0.41738  0.01469  1.0000
  C   C33       1.0  0.04664  0.36016  0.21595  1.0000
  C   C34       1.0  0.04506  0.24215  0.23891  1.0000
  C   C35       1.0  0.05248  0.23110  0.23105  1.0000
  C   C36       1.0  0.04558  0.22034  0.21768  1.0000
  C   C37       1.0  0.03115  0.22030  0.21186  1.0000
  C   C38       1.0  0.02370  0.23128  0.21987  1.0000
  C   C39       1.0  0.03063  0.24211  0.23307  1.0000
  H   H27       1.0  0.06358  0.23089  0.23511  1.0000
  H   H28       1.0  0.05150  0.21195  0.21177  1.0000
  H   H29       1.0  0.01259  0.23141  0.21594  1.0000
  H   H30       1.0  0.02467  0.25047  0.23895  1.0000
  C   C40       1.0  0.08929  0.26293  0.40161  1.0000
  C   C41       1.0  0.10241  0.27538  0.39316  1.0000
  C   C42       1.0  0.10957  0.28014  0.41345  1.0000
  C   C43       1.0  0.08361  0.25527  0.43066  1.0000
  H   H31       1.0  0.10701  0.28140  0.37096  1.0000
  H   H32       1.0  0.11966  0.28980  0.40646  1.0000
  H   H33       1.0  0.07359  0.24552  0.43756  1.0000
  C   C44       1.0  0.14972  0.16488  0.08558  1.0000
  C   C45       1.0  0.14172  0.15025  0.08425  1.0000
  C   C46       1.0  0.13597  0.14850  0.06065  1.0000
  C   C47       1.0  0.13800  0.16142  0.03811  1.0000
  C   C48       1.0  0.14595  0.17603  0.03952  1.0000
  C   C49       1.0  0.15183  0.17776  0.06296  1.0000
  S   S31       1.0  0.15671  0.16635  0.11597  1.0000
  H   H34       1.0  0.12988  0.13719  0.05998  1.0000
  H   H35       1.0  0.14761  0.18612  0.02226  1.0000
  H   H36       1.0  0.15800  0.18907  0.06346  1.0000
  C   C50       1.0  0.14783  0.23702  0.18327  1.0000
  C   C51       1.0  0.14505  0.22496  0.20757  1.0000
  C   C52       1.0  0.13675  0.22600  0.23371  1.0000
  C   C53       1.0  0.13086  0.23889  0.23572  1.0000
  C   C54       1.0  0.13344  0.25089  0.21133  1.0000
  C   C55       1.0  0.14197  0.24997  0.18519  1.0000
  H   H37       1.0  0.14956  0.21497  0.20634  1.0000
  H   H38       1.0  0.13505  0.21684  0.25257  1.0000
  H   H39       1.0  0.12893  0.26085  0.21264  1.0000
  H   H40       1.0  0.14404  0.25930  0.16638  1.0000
  C   C56       1.0  0.99585  0.27784  0.08622  1.0000
  H   H41       1.0  0.14666  0.05144  0.12998  1.0000
  C   C57       1.0  0.06366  0.30889  0.16955  1.0000
  H   H42       1.0  0.17415  0.32255  0.33878  1.0000
  C   C58       1.0  0.06285  0.16841  0.04192  1.0000
  C   C59       1.0  0.00291  0.26553  0.08968  1.0000
  C   C60       1.0  0.01223  0.18458  0.02918  1.0000
  H   H43       1.0  0.10820  0.33855  0.32019  1.0000
  C   C61       1.0  0.01025  0.11712  0.03090  1.0000
  H   H44       1.0  0.01520  0.26771  0.08123  1.0000
  H   H45       1.0  0.12035  0.36364  0.38463  1.0000
  C   C62       1.0  0.11582  0.46092  0.04210  1.0000
  C   C63       1.0  0.12412  0.46579  0.06048  1.0000
  C   C64       1.0  0.07417  0.18547  0.16526  1.0000
  C   C65       1.0  0.12110  0.46823  0.01302  1.0000
  H   H46       1.0  0.12025  0.46024  0.08278  1.0000
  C   C66       1.0  0.12566  0.04658  0.16206  1.0000
  H   H47       1.0  0.11456  0.46474  0.99875  1.0000
  C   C67       1.0  0.02797  0.37617  0.08956  1.0000
  C   C68       1.0  0.01571  0.37568  0.11182  1.0000
  C   C69       1.0  0.01829  0.38402  0.13177  1.0000
  C   C70       1.0  0.03309  0.39295  0.12941  1.0000
  C   C71       1.0  0.04539  0.39312  0.10749  1.0000
  C   C72       1.0  0.04283  0.38474  0.08767  1.0000
  H   H48       1.0  0.00418  0.36931  0.11311  1.0000
  H   H49       1.0  0.00872  0.38392  0.14859  1.0000
  H   H50       1.0  0.05676  0.40015  0.10516  1.0000
  H   H51       1.0  0.05230  0.38536  0.07020  1.0000
  H   H52       1.0  0.17066  0.05269  0.21585  1.0000
  C   C73       1.0  0.09311  0.17176  0.01086  1.0000
  C   C74       1.0  0.07284  0.47872  0.19354  1.0000
  C   C75       1.0  0.14695  0.34238  0.16554  1.0000
  C   C76       1.0  0.11456  0.05267  0.17634  1.0000
  H   H53       1.0  0.14710  0.03284  0.98369  1.0000
  H   H54       1.0  0.12469  0.03422  0.16788  1.0000
  C   C77       1.0  0.14235  0.42886  0.21658  1.0000
  C   C78       1.0  0.13922  0.41317  0.21691  1.0000
  C   C79       1.0  0.12697  0.40670  0.20668  1.0000
  C   C80       1.0  0.11778  0.41587  0.19615  1.0000
  C   C81       1.0  0.12076  0.43149  0.19613  1.0000
  C   C82       1.0  0.13304  0.43797  0.20632  1.0000
  H   H55       1.0  0.14625  0.40603  0.22497  1.0000
  H   H56       1.0  0.12466  0.39458  0.20684  1.0000
  H   H57       1.0  0.11353  0.43851  0.18846  1.0000
  H   H58       1.0  0.13524  0.45001  0.20644  1.0000
  C   C83       1.0  0.14452  0.34910  0.28540  1.0000
  C   C84       1.0  0.13745  0.35453  0.26438  1.0000
  C   C85       1.0  0.12703  0.34399  0.25582  1.0000
  C   C86       1.0  0.12361  0.32789  0.26785  1.0000
  C   C87       1.0  0.13067  0.32246  0.28885  1.0000
  C   C88       1.0  0.14105  0.33299  0.29748  1.0000
  H   H59       1.0  0.13980  0.36687  0.25508  1.0000
  H   H60       1.0  0.12142  0.34837  0.24002  1.0000
  H   H61       1.0  0.12818  0.31013  0.29841  1.0000
  H   H62       1.0  0.14631  0.32858  0.31386  1.0000
  H   H63       1.0  0.10498  0.04502  0.19324  1.0000
  H   H64       1.0  0.14823  0.44697  0.14533  1.0000
  H   H65       1.0  0.12603  0.08405  0.09133  1.0000
  H   H66       1.0  0.03097  0.44511  0.22109  1.0000
  Fe  Fe12      1.0  0.10791  0.10934  0.97997  1.0000
  H   H67       1.0  0.16852  0.44429  0.41861  1.0000
  C   C89       1.0  0.16503  0.11751  0.09996  1.0000
  C   C90       1.0  0.14477  0.31123  0.41216  1.0000
  H   H68       1.0  0.07812  0.45821  0.21518  1.0000
  H   H69       1.0  0.03221  0.42379  0.08389  1.0000
  C   C91       1.0  0.13950  0.38376  0.37097  1.0000
  C   C92       1.0  0.03981  0.22726  0.47253  1.0000
  C   C93       1.0  0.11587  0.06862  0.16888  1.0000
  C   C94       1.0  0.09081  0.26004  0.45095  1.0000
  C   C95       1.0  0.05631  0.36631  0.00920  1.0000
  C   C96       1.0  0.07874  0.37507  0.13273  1.0000
  C   C97       1.0  0.08938  0.37958  0.10632  1.0000
  C   C98       1.0  0.10212  0.37328  0.10230  1.0000
  C   C99       1.0  0.10426  0.36253  0.12473  1.0000
  C   C100      1.0  0.09374  0.35818  0.15147  1.0000
  C   C101      1.0  0.08091  0.36442  0.15516  1.0000
  P   P1        1.0  0.09594  0.34389  0.18047  1.0000
  C   C102      1.0  0.09108  0.34976  0.21289  1.0000
  C   C103      1.0  0.08385  0.32502  0.18324  1.0000
  C   C104      1.0  0.07268  0.32354  0.16781  1.0000
  C   C105      1.0  0.07478  0.16804  0.05561  1.0000
  C   C106      1.0  0.04323  0.17660  0.08807  1.0000
  C   C107      1.0  0.12539  0.33423  0.43704  1.0000
  C   C108      1.0  0.08580  0.31158  0.20036  1.0000
  C   C109      1.0  0.09374  0.36558  0.21202  1.0000
  C   C110      1.0  0.09089  0.37027  0.23702  1.0000
  C   C111      1.0  0.08551  0.35923  0.26315  1.0000
  C   C112      1.0  0.08286  0.34347  0.26428  1.0000
  C   C113      1.0  0.08557  0.33874  0.23930  1.0000
  C   C114      1.0  0.11593  0.34333  0.17434  1.0000
  C   C115      1.0  0.12662  0.35438  0.18106  1.0000
  C   C116      1.0  0.14201  0.35379  0.17695  1.0000
  C   C117      1.0  0.12105  0.33206  0.16238  1.0000
  H   H70       1.0  0.06888  0.38000  0.13595  1.0000
  H   H71       1.0  0.08780  0.38805  0.08910  1.0000
  H   H72       1.0  0.11039  0.37683  0.08183  1.0000
  H   H73       1.0  0.11416  0.35776  0.12118  1.0000
  H   H74       1.0  0.07265  0.36117  0.17548  1.0000
  C   C118      1.0  0.15861  0.10281  0.02216  1.0000
  C   C119      1.0  0.15428  0.30159  0.40571  1.0000
  H   H75       1.0  0.04521  0.23795  0.40107  1.0000
  H   H76       1.0  0.09451  0.31234  0.21208  1.0000
  H   H77       1.0  0.09838  0.37439  0.19208  1.0000
  H   H78       1.0  0.09316  0.38253  0.23605  1.0000
  H   H79       1.0  0.08363  0.36291  0.28250  1.0000
  H   H80       1.0  0.07907  0.33487  0.28453  1.0000
  H   H81       1.0  0.08375  0.32649  0.24100  1.0000
  H   H82       1.0  0.12310  0.36337  0.18981  1.0000
  H   H83       1.0  0.15007  0.36216  0.18286  1.0000
  H   H84       1.0  0.15702  0.07273  0.01580  1.0000
  C   C120      1.0  0.14893  0.44666  0.12362  1.0000
  H   H85       1.0  0.14712  0.33305  0.44691  1.0000
  H   H86       1.0  0.13618  0.30754  0.43228  1.0000
  C   C121      1.0  0.13276  0.03123  0.02457  1.0000
  C   C122      1.0  0.12923  0.03883  0.04576  1.0000
  C   C123      1.0  0.13821  0.05378  0.04265  1.0000
  P   P2        1.0  0.11348  0.02942  0.07685  1.0000
  H   H87       1.0  0.16599  0.31229  0.17388  1.0000
  C   C124      1.0  0.02281  0.18155  0.04478  1.0000
  C   C125      1.0  0.16546  0.47071  0.16373  1.0000
  S   S32       1.0  0.98366  0.34918  0.98017  1.0000
  H   H88       1.0  0.00232  0.24832  0.28291  1.0000
  H   H89       1.0  0.16069  0.40170  0.35822  1.0000
  H   H90       1.0  0.09901  0.16918  0.05066  1.0000
  H   H91       1.0  0.08380  0.07382  0.11283  1.0000
  C   C126      1.0  0.13732  0.43643  0.08990  1.0000
  C   C127      1.0  0.05418  0.42985  0.05331  1.0000
  H   H92       1.0  0.16705  0.45935  0.17215  1.0000
  H   H93       1.0  0.17445  0.09983  0.04782  1.0000
  C   C128      1.0  0.10438  0.04368  0.08843  1.0000
  C   C129      1.0  0.03857  0.42233  0.06424  1.0000
  H   H94       1.0  0.99654  0.15008  0.06702  1.0000
  C   C130      1.0  0.02966  0.48582  0.23142  1.0000
  C   C131      1.0  0.09468  0.06657  0.07732  1.0000
  C   C132      1.0  0.10217  0.05585  0.06854  1.0000
  C   C133      1.0  0.09918  0.04262  0.11737  1.0000
  H   H95       1.0  0.07034  0.01439  0.03443  1.0000
  H   H96       1.0  0.14011  0.10419  0.00195  1.0000
  H   H97       1.0  0.12625  0.01959  0.02651  1.0000
  H   H98       1.0  0.13580  0.05978  0.05884  1.0000
  C   C134      1.0  0.15039  0.44482  0.06816  1.0000
  C   C135      1.0  0.99517  0.10786  0.04074  1.0000
  H   H99       1.0  0.99747  0.28631  0.16725  1.0000
  C   C136      1.0  0.03126  0.41260  0.05022  1.0000
  C   C137      1.0  0.16071  0.44951  0.40870  1.0000
  H   H100      1.0  0.15270  0.02174  0.12942  1.0000
  C   C138      1.0  0.08960  0.06547  0.10610  1.0000
  H   H101      1.0  0.14032  0.32275  0.14916  1.0000
  C   C139      1.0  0.15142  0.27558  0.33492  1.0000
  H   H102      1.0  0.08793  0.03267  0.05022  1.0000
  H   H103      1.0  0.12866  0.48361  0.11084  1.0000
  C   C140      1.0  0.17293  0.24553  0.22715  1.0000
  H   H104      1.0  0.05991  0.43736  0.06421  1.0000
  H   H105      1.0  0.09277  0.07570  0.06162  1.0000
  H   H106      1.0  0.10600  0.05697  0.04615  1.0000
  C   C141      1.0  0.10368  0.27273  0.44257  1.0000
  C   C142      1.0  0.04785  0.17151  0.19006  1.0000
  C   C143      1.0  0.11143  0.18878  0.25566  1.0000
  C   C144      1.0  0.10448  0.19549  0.27583  1.0000
  C   C145      1.0  0.09424  0.20433  0.26960  1.0000
  C   C146      1.0  0.09092  0.20649  0.24323  1.0000
  C   C147      1.0  0.09807  0.20004  0.22260  1.0000
  C   C148      1.0  0.10827  0.19106  0.22912  1.0000
  P   P3        1.0  0.09412  0.20342  0.18816  1.0000
  C   C149      1.0  0.09195  0.22297  0.17884  1.0000
  C   C150      1.0  0.10995  0.20103  0.16260  1.0000
  C   C151      1.0  0.12174  0.21388  0.14535  1.0000
  C   C152      1.0  0.13391  0.21184  0.12572  1.0000
  C   C153      1.0  0.13451  0.19699  0.12334  1.0000
  C   C154      1.0  0.12298  0.18411  0.14069  1.0000
  C   C155      1.0  0.11075  0.18609  0.16028  1.0000
  C   C156      1.0  0.10151  0.23487  0.18573  1.0000
  C   C157      1.0  0.09900  0.24971  0.18124  1.0000
  C   C158      1.0  0.08696  0.25281  0.16966  1.0000
  C   C159      1.0  0.07758  0.24111  0.16217  1.0000
  C   C160      1.0  0.08008  0.22625  0.16664  1.0000
  C   C161      1.0  0.07633  0.19014  0.18949  1.0000
  C   C162      1.0  0.06403  0.18547  0.21393  1.0000
  H   H107      1.0  0.11957  0.18214  0.26034  1.0000
  H   H108      1.0  0.10729  0.19414  0.29606  1.0000
  H   H109      1.0  0.08917  0.20987  0.28497  1.0000
  H   H110      1.0  0.08301  0.21348  0.23883  1.0000
  H   H111      1.0  0.11408  0.18604  0.21370  1.0000
  H   H112      1.0  0.12178  0.22549  0.14714  1.0000
  H   H113      1.0  0.14308  0.22180  0.11270  1.0000
  H   H114      1.0  0.14404  0.19541  0.10836  1.0000
  H   H115      1.0  0.10200  0.17596  0.17381  1.0000
  H   H116      1.0  0.11065  0.23251  0.19529  1.0000
  H   H117      1.0  0.10620  0.25870  0.18730  1.0000
  H   H118      1.0  0.08478  0.26419  0.16684  1.0000
  H   H119      1.0  0.06806  0.24340  0.15370  1.0000
  H   H120      1.0  0.07239  0.21731  0.16136  1.0000
  H   H121      1.0  0.06517  0.18928  0.23261  1.0000
  H   H122      1.0  0.10243  0.33588  0.43461  1.0000
  P   P4        1.0  0.06616  0.41376  0.98296  1.0000
  C   C163      1.0  0.09968  0.01582  0.06698  1.0000
  H   H123      1.0  0.98758  0.08533  0.00698  1.0000
  C   C164      1.0  0.01988  0.13855  0.09357  1.0000
  H   H124      1.0  0.07761  0.46650  0.25964  1.0000
  C   C165      1.0  0.16739  0.11386  0.15562  1.0000
  C   C166      1.0  0.02414  0.29981  0.19426  1.0000
  C   C167      1.0  0.07547  0.47392  0.24174  1.0000
  C   C168      1.0  0.03864  0.11808  0.08955  1.0000
  H   H125      1.0  0.10063  0.03338  0.13329  1.0000
  H   H126      1.0  0.03431  0.11782  0.02552  1.0000
  Fe  Fe13      1.0  0.17043  0.42091  0.24858  1.0000
  H   H127      1.0  0.01998  0.38038  0.20590  1.0000
  C   C169      1.0  0.10447  0.33239  0.47727  1.0000
  H   H128      1.0  0.04597  0.35684  0.01767  1.0000
  C   C170      1.0  0.15210  0.13962  0.21021  1.0000
  C   C171      1.0  0.16755  0.14773  0.20343  1.0000
  C   C172      1.0  0.17021  0.12872  0.13785  1.0000
  C   C173      1.0  0.18167  0.05710  0.07873  1.0000
  H   H129      1.0  0.02294  0.16144  0.11977  1.0000
  H   H130      1.0  0.17280  0.02196  0.03094  1.0000
  C   C174      1.0  0.08862  0.02076  0.05409  1.0000
  C   C175      1.0  0.14318  0.10066  0.02166  1.0000
  H   H131      1.0  0.07777  0.28670  0.21632  1.0000
  Fe  Fe14      1.0  0.98579  0.18001  0.14314  1.0000
  C   C176      1.0  0.05077  0.34837  0.10630  1.0000
  H   H132      1.0  0.04588  0.11013  0.08753  1.0000
  C   C177      1.0  0.03466  0.46076  0.24718  1.0000
  H   H133      1.0  0.08647  0.30044  0.39395  1.0000
  C   C178      1.0  0.09502  0.48393  0.06728  1.0000
  H   H134      1.0  0.04375  0.38214  0.22243  1.0000
  C   C179      1.0  0.13932  0.25258  0.32296  1.0000
  H   H135      1.0  0.06520  0.48256  0.45765  1.0000
  H   H136      1.0  0.14757  0.37238  0.43415  1.0000
  H   H137      1.0  0.15501  0.10379  0.24099  1.0000
  H   H138      1.0  0.14362  0.14567  0.20493  1.0000
  C   C180      1.0  0.12428  0.48532  0.13146  1.0000
  C   C181      1.0  0.14617  0.30831  0.22988  1.0000
  H   H139      1.0  0.02367  0.30031  0.17278  1.0000
  H   H140      1.0  0.12370  0.17260  0.13902  1.0000
  H   H141      1.0  0.05702  0.13802  0.06662  1.0000
  C   C182      1.0  0.17224  0.46222  0.31372  1.0000
  H   H142      1.0  0.00371  0.34436  0.14588  1.0000
  H   H143      1.0  0.18105  0.27119  0.16991  1.0000
  C   C183      1.0  0.11780  0.47590  0.18251  1.0000
  C   C184      1.0  0.11234  0.05648  0.98783  1.0000
  C   C185      1.0  0.03962  0.41015  0.02559  1.0000
  H   H144      1.0  0.16502  0.35533  0.38509  1.0000
  C   C186      1.0  0.11007  0.33434  0.44823  1.0000
  C   C187      1.0  0.99521  0.33642  0.16420  1.0000
  H   H145      1.0  0.17095  0.16004  0.19313  1.0000
  C   C188      1.0  0.17866  0.38457  0.45850  1.0000
  H   H146      1.0  0.16565  0.24047  0.30800  1.0000
  H   H147      1.0  0.10570  0.31040  0.41806  1.0000
  C   C189      1.0  0.16325  0.10081  0.14575  1.0000
  C   C190      1.0  0.15777  0.36309  0.38099  1.0000
  C   C191      1.0  0.16315  0.30229  0.25942  1.0000
  H   H148      1.0  0.01920  0.40654  0.05898  1.0000
  H   H149      1.0  0.16031  0.28367  0.18276  1.0000
  C   C192      1.0  0.17194  0.29075  0.17267  1.0000
  C   C193      1.0  0.15870  0.11604  0.23045  1.0000
  H   H150      1.0  0.11840  0.44026  0.98551  1.0000
  H   H151      1.0  0.15592  0.47295  0.20520  1.0000
  H   H152      1.0  0.16762  0.10825  0.00277  1.0000
  C   C194      1.0  0.01027  0.24905  0.15986  1.0000
  C   C195      1.0  0.01907  0.26350  0.14245  1.0000
  C   C196      1.0  0.01428  0.27687  0.14489  1.0000
  C   C197      1.0  0.00081  0.27581  0.16513  1.0000
  H   H153      1.0  0.99170  0.31131  0.22751  1.0000
  C   C198      1.0  0.04033  0.25240  0.42891  1.0000
  H   H154      1.0  0.07450  0.43381  0.02073  1.0000
  P   P5        1.0  0.13274  0.33688  0.39955  1.0000
  C   C199      1.0  0.03175  0.17218  0.11374  1.0000
  S   S33       1.0  0.98822  0.17377  0.18814  1.0000
  S   S34       1.0  0.11277  0.27994  0.46731  1.0000
  C   C200      1.0  0.14085  0.01776  0.12888  1.0000
  H   H155      1.0  0.10728  0.07335  0.17997  1.0000
  C   C201      1.0  0.06551  0.29564  0.18704  1.0000
  P   P6        1.0  0.16522  0.27231  0.28217  1.0000
  H   H156      1.0  0.06271  0.19501  0.06083  1.0000
  C   C202      1.0  0.02656  0.28646  0.21050  1.0000
  C   C203      1.0  0.02565  0.37100  0.20655  1.0000
  C   C204      1.0  0.14722  0.28172  0.24663  1.0000
  H   H157      1.0  0.09108  0.47892  0.37732  1.0000
  H   H158      1.0  0.01389  0.23862  0.15791  1.0000
  H   H159      1.0  0.02940  0.26427  0.12659  1.0000
  H   H160      1.0  0.02085  0.28800  0.13067  1.0000
  H   H161      1.0  0.10473  0.17279  0.99891  1.0000
  C   C205      1.0  0.16963  0.47755  0.13441  1.0000
  H   H162      1.0  0.98582  0.11301  0.03725  1.0000
  H   H163      1.0  0.02771  0.27678  0.20158  1.0000
  H   H164      1.0  0.05522  0.30783  0.15732  1.0000
  H   H165      1.0  0.16794  0.36265  0.45253  1.0000
  H   H166      1.0  0.16050  0.32527  0.24382  1.0000
  H   H167      1.0  0.02609  0.32099  0.08904  1.0000
  C   C206      1.0  0.16675  0.40553  0.44560  1.0000
  H   H168      1.0  0.16240  0.06505  0.06954  1.0000
  C   C207      1.0  0.11567  0.99999  0.14936  1.0000
  C   C208      1.0  0.03908  0.37201  0.21583  1.0000
  H   H169      1.0  0.12753  0.34859  0.34382  1.0000
  C   C209      1.0  0.15341  0.05367  0.99700  1.0000
  C   C210      1.0  0.13528  0.08921  0.07229  1.0000
  H   H170      1.0  0.04715  0.33854  0.20580  1.0000
  H   H171      1.0  0.00964  0.35803  0.18927  1.0000
  H   H172      1.0  0.03861  0.45292  0.26185  1.0000
  H   H173      1.0  0.13232  0.28883  0.22108  1.0000
  H   H174      1.0  0.03034  0.27562  0.25025  1.0000
  H   H175      1.0  0.16824  0.11244  0.17714  1.0000
  C   C211      1.0  0.07651  0.29700  0.20253  1.0000
  C   C212      1.0  0.06255  0.42753  0.02856  1.0000
  Fe  Fe15      1.0  0.16909  0.38787  0.28010  1.0000
  C   C213      1.0  0.17047  0.25789  0.23837  1.0000
  H   H176      1.0  0.02941  0.08985  0.04886  1.0000
  H   H177      1.0  0.09854  0.00309  0.12669  1.0000
  H   H178      1.0  0.03675  0.16457  0.19016  1.0000
  H   H179      1.0  0.02684  0.29730  0.27129  1.0000
  H   H180      1.0  0.13994  0.14019  0.10162  1.0000
  C   C214      1.0  0.04196  0.19625  0.12445  1.0000
  C   C215      1.0  0.13649  0.33156  0.15812  1.0000
  H   H181      1.0  0.15399  0.00884  0.00859  1.0000
  C   C216      1.0  0.02735  0.34630  0.19701  1.0000
  H   H182      1.0  0.13768  0.47803  0.31832  1.0000
  H   H183      1.0  0.98996  0.23670  0.19285  1.0000
  C   C217      1.0  0.16500  0.30571  0.37940  1.0000
  H   H184      1.0  0.04597  0.48339  0.15679  1.0000
  C   C218      1.0  0.16199  0.45539  0.10183  1.0000
  H   H185      1.0  0.13562  0.11757  0.22963  1.0000
  H   H186      1.0  0.05754  0.17087  0.00106  1.0000
  C   C219      1.0  0.01979  0.09489  0.04711  1.0000
  C   C220      1.0  0.13483  0.44978  0.40530  1.0000
  C   C221      1.0  0.04091  0.34742  0.20628  1.0000
  C   C222      1.0  0.16747  0.25613  0.26765  1.0000
  H   H187      1.0  0.13249  0.39178  0.36669  1.0000
  C   C223      1.0  0.03563  0.14444  0.07998  1.0000
  C   C224      1.0  0.03007  0.33330  0.14763  1.0000
  C   C225      1.0  0.01359  0.12262  0.10525  1.0000
  C   C226      1.0  0.13518  0.33283  0.45512  1.0000
  H   H188      1.0  0.11690  0.46696  0.20131  1.0000
  C   C227      1.0  0.07949  0.99505  0.04864  1.0000
  H   H189      1.0  0.99797  0.27028  0.30264  1.0000
  C   C228      1.0  0.98648  0.48011  0.14386  1.0000
  H   H190      1.0  0.18007  0.46058  0.24511  1.0000
  H   H191      1.0  0.04131  0.20384  0.13843  1.0000
  C   C229      1.0  0.05404  0.19104  0.08086  1.0000
  H   H192      1.0  0.99139  0.47020  0.26946  1.0000
  C   C230      1.0  0.14120  0.29261  0.23123  1.0000
  C   C231      1.0  0.17261  0.08252  0.24700  1.0000
  C   C232      1.0  0.02790  0.28573  0.23800  1.0000
  Fe  Fe16      1.0  0.98466  0.33946  0.02507  1.0000
  C   C233      1.0  0.05348  0.20073  0.09910  1.0000
  C   C234      1.0  0.08404  0.37562  0.99509  1.0000
  H   H193      1.0  0.01316  0.31559  0.13958  1.0000
  C   C235      1.0  0.09186  0.05351  0.12612  1.0000
  S   S35       1.0  0.99036  0.16473  0.11257  1.0000
  C   C236      1.0  0.04495  0.13402  0.07782  1.0000
  H   H194      1.0  0.05844  0.28426  0.18876  1.0000
  H   H195      1.0  0.14565  0.47599  0.42814  1.0000
  C   C237      1.0  0.16242  0.09801  0.04770  1.0000
  C   C238      1.0  0.02308  0.31116  0.23391  1.0000
  P   P7        1.0  0.04325  0.16496  0.06281  1.0000
  C   C239      1.0  0.04357  0.34531  0.13508  1.0000
  H   H196      1.0  0.11316  0.32364  0.15636  1.0000
  C   C240      1.0  0.02600  0.29800  0.24981  1.0000
  H   H197      1.0  0.15888  0.34195  0.16246  1.0000
  H   H198      1.0  0.01409  0.15770  0.99175  1.0000
  C   C241      1.0  0.13959  0.07249  0.13296  1.0000
  H   H199      1.0  0.12762  0.46383  0.15373  1.0000
  H   H200      1.0  0.02199  0.17869  0.15112  1.0000
  C   C242      1.0  0.99977  0.32782  0.18635  1.0000
  C   C243      1.0  0.01667  0.16444  0.00636  1.0000
  H   H201      1.0  0.09723  0.48437  0.10889  1.0000
  C   C244      1.0  0.15671  0.46898  0.37143  1.0000
  C   C245      1.0  0.17108  0.07557  0.10003  1.0000
  C   C246      1.0  0.16608  0.31942  0.35942  1.0000
  C   C247      1.0  0.15585  0.39561  0.43734  1.0000
  Fe  Fe17      1.0  0.17054  0.18712  0.12727  1.0000
  H   H202      1.0  0.14026  0.43317  0.43688  1.0000
  H   H203      1.0  0.16394  0.11937  0.07849  1.0000
  H   H204      1.0  0.04363  0.38349  0.00461  1.0000
  C   C248      1.0  0.02567  0.46669  0.20490  1.0000
  C   C249      1.0  0.03039  0.45639  0.22420  1.0000
  C   C250      1.0  0.01983  0.35827  0.19704  1.0000
  H   H205      1.0  0.06083  0.35801  0.09650  1.0000
  H   H206      1.0  0.11930  0.05644  0.00270  1.0000
  P   P8        1.0  0.01999  0.32989  0.18436  1.0000
  C   C251      1.0  0.04454  0.33953  0.08981  1.0000
  C   C252      1.0  0.03111  0.18200  0.13171  1.0000
  C   C253      1.0  0.14481  0.44323  0.41881  1.0000
  C   C254      1.0  0.16278  0.45411  0.07411  1.0000
  H   H207      1.0  0.12922  0.09086  0.14179  1.0000
  S   S36       1.0  0.10909  0.08442  0.99752  1.0000
  C   C255      1.0  0.13666  0.43724  0.11764  1.0000
  H   H208      1.0  0.13839  0.24555  0.30820  1.0000
  C   C256      1.0  0.99659  0.24795  0.17949  1.0000
  H   H209      1.0  0.01237  0.14625  0.09495  1.0000
  H   H210      1.0  0.12658  0.43059  0.13451  1.0000
  H   H211      1.0  0.07178  0.35149  0.01165  1.0000
  C   C257      1.0  0.16454  0.37905  0.37099  1.0000
  C   C258      1.0  0.15715  0.31315  0.24394  1.0000
  H   H212      1.0  0.13279  0.46731  0.37135  1.0000
  H   H213      1.0  0.02243  0.46313  0.18717  1.0000
  P   P9        1.0  0.16481  0.48495  0.34006  1.0000
  C   C259      1.0  0.06006  0.17600  0.16573  1.0000
  C   C260      1.0  0.99413  0.25040  0.10425  1.0000
  H   H214      1.0  0.05846  0.17246  0.14697  1.0000
  C   C261      1.0  0.03043  0.16989  0.04128  1.0000
  P   P10       1.0  0.15594  0.08545  0.10584  1.0000
  C   C262      1.0  0.00466  0.08561  0.05755  1.0000
  C   C263      1.0  0.14021  0.27111  0.36076  1.0000
  C   C264      1.0  0.12867  0.25732  0.36777  1.0000
  C   C265      1.0  0.12812  0.24817  0.34873  1.0000
  C   C266      1.0  0.15131  0.26609  0.31619  1.0000
  C   C267      1.0  0.14073  0.46260  0.38165  1.0000
  C   C268      1.0  0.07082  0.36332  0.00592  1.0000
  C   C269      1.0  0.99030  0.25354  0.25078  1.0000
  C   C270      1.0  0.13156  0.09398  0.04667  1.0000
  C   C271      1.0  0.02258  0.11066  0.03392  1.0000
  C   C272      1.0  0.13270  0.36782  0.38086  1.0000
  C   C273      1.0  0.03115  0.32756  0.10207  1.0000
  H   H215      1.0  0.15078  0.44434  0.04659  1.0000
  C   C274      1.0  0.15842  0.28650  0.26044  1.0000
  H   H216      1.0  0.00070  0.17819  0.99836  1.0000
  H   H217      1.0  0.14283  0.26954  0.24845  1.0000
  H   H218      1.0  0.11878  0.23784  0.35365  1.0000
  C   C275      1.0  0.99351  0.26837  0.28488  1.0000
  H   H219      1.0  0.11990  0.25389  0.38767  1.0000
  C   C276      1.0  0.14469  0.03870  0.00017  1.0000
  C   C277      1.0  0.14765  0.12381  0.22401  1.0000
  H   H220      1.0  0.04831  0.35270  0.14708  1.0000
  H   H221      1.0  0.06177  0.21189  0.09330  1.0000
  C   C278      1.0  0.02389  0.32451  0.13079  1.0000
  H   H222      1.0  0.16072  0.05825  0.26163  1.0000
  H   H223      1.0  0.12759  0.42948  0.08521  1.0000
  H   H224      1.0  0.17500  0.24677  0.20459  1.0000
  H   H225      1.0  0.18050  0.26776  0.32839  1.0000
  H   H226      1.0  0.14105  0.31666  0.21888  1.0000
  C   C279      1.0  0.02297  0.11238  0.10328  1.0000
  C   C280      1.0  0.15024  0.06116  0.01831  1.0000
  C   C281      1.0  0.14606  0.32522  0.39251  1.0000
  C   C282      1.0  0.15654  0.32906  0.36585  1.0000
  C   C283      1.0  0.11766  0.33062  0.38321  1.0000
  C   C284      1.0  0.10606  0.31693  0.39704  1.0000
  C   C285      1.0  0.09516  0.31123  0.38341  1.0000
  C   C286      1.0  0.09587  0.31906  0.35579  1.0000
  C   C287      1.0  0.10738  0.33269  0.34190  1.0000
  C   C288      1.0  0.11830  0.33840  0.35545  1.0000
  H   H227      1.0  0.07237  0.16614  0.07834  1.0000
  C   C289      1.0  0.02275  0.31244  0.20556  1.0000
  H   H228      1.0  0.05710  0.36103  0.22309  1.0000
  H   H229      1.0  0.15723  0.33944  0.34988  1.0000
  H   H230      1.0  0.03606  0.26437  0.46112  1.0000
  C   C290      1.0  0.13813  0.05643  0.14045  1.0000
  C   C291      1.0  0.16983  0.22960  0.27416  1.0000
  C   C292      1.0  0.04227  0.22607  0.44464  1.0000
  C   C293      1.0  0.15903  0.47839  0.18263  1.0000
  Fe  Fe18      1.0  0.17044  0.21679  0.14746  1.0000
  C   C294      1.0  0.04268  0.23867  0.42282  1.0000
  C   C295      1.0  0.12832  0.07850  0.14727  1.0000
  H   H231      1.0  0.07096  0.33358  0.15415  1.0000
  C   C296      1.0  0.99118  0.47393  0.19811  1.0000
  C   C297      1.0  0.13575  0.02481  0.10616  1.0000
  H   H232      1.0  0.08778  0.05256  0.14845  1.0000
  H   H233      1.0  0.04096  0.26222  0.41182  1.0000
  C   C298      1.0  0.17358  0.06442  0.21804  1.0000
  C   C299      1.0  0.12047  0.01963  0.10507  1.0000
  H   H234      1.0  0.13502  0.99964  0.16757  1.0000
  H   H235      1.0  0.16080  0.08938  0.16007  1.0000
  H   H236      1.0  0.08647  0.47290  0.07457  1.0000
  C   C300      1.0  0.16665  0.46235  0.38521  1.0000
  C   C301      1.0  0.03411  0.47539  0.25096  1.0000
  H   H237      1.0  0.17112  0.30620  0.27119  1.0000
  C   C302      1.0  0.08138  0.17222  0.99707  1.0000
  C   C303      1.0  0.13877  0.48263  0.43821  1.0000
  H   H238      1.0  0.14713  0.39989  0.42874  1.0000
  C   C304      1.0  0.10623  0.06926  0.98030  1.0000
  C   C305      1.0  0.07857  0.01040  0.04501  1.0000
  C   C306      1.0  0.16813  0.06754  0.24385  1.0000
  H   H239      1.0  0.10976  0.99653  0.07803  1.0000
  H   H240      1.0  0.15308  0.29078  0.42108  1.0000
  H   H241      1.0  0.14386  0.03416  0.08944  1.0000
  S   S37       1.0  0.17634  0.01676  0.08793  1.0000
  C   C307      1.0  0.17096  0.06597  0.08148  1.0000
  C   C308      1.0  0.15540  0.38936  0.36608  1.0000
  H   H242      1.0  0.17306  0.13889  0.14563  1.0000
  C   C309      1.0  0.17247  0.23135  0.24504  1.0000
  H   H243      1.0  0.98460  0.48249  0.12288  1.0000
  H   H244      1.0  0.17108  0.14208  0.09639  1.0000
  H   H245      1.0  0.16629  0.41745  0.44340  1.0000
  S   S38       1.0  0.17859  0.21259  0.10470  1.0000
  H   H246      1.0  0.17104  0.45486  0.33445  1.0000
  C   C310      1.0  0.98489  0.15115  0.06980  1.0000
  H   H247      1.0  0.17231  0.29818  0.37439  1.0000
  H   H248      1.0  0.03254  0.29880  0.00556  1.0000
  C   C311      1.0  0.14290  0.48512  0.02101  1.0000
  C   C312      1.0  0.06818  0.39405  0.99176  1.0000
  H   H249      1.0  0.00604  0.19324  0.03265  1.0000
  C   C313      1.0  0.17573  0.45626  0.29036  1.0000
  C   C314      1.0  0.13489  0.47972  0.46765  1.0000
  C   C315      1.0  0.09063  0.99010  0.06090  1.0000
  C   C316      1.0  0.13463  0.48037  0.00244  1.0000
  C   C317      1.0  0.99594  0.25598  0.27382  1.0000
  H   H250      1.0  0.17905  0.46681  0.37727  1.0000
  C   C318      1.0  0.10075  0.00044  0.06986  1.0000
  C   C319      1.0  0.99166  0.26127  0.18212  1.0000
  H   H251      1.0  0.14409  0.48126  0.06439  1.0000
  C   C320      1.0  0.07233  0.48816  0.24379  1.0000
  C   C321      1.0  0.14068  0.99196  0.04716  1.0000
  C   C322      1.0  0.99223  0.09207  0.05454  1.0000
  C   C323      1.0  0.17022  0.47731  0.31003  1.0000
  C   C324      1.0  0.17514  0.30684  0.16770  1.0000
  H   H252      1.0  0.99266  0.47152  0.21938  1.0000
  Fe  Fe19      1.0  0.11883  0.14216  0.98804  1.0000
  S   S39       1.0  0.17626  0.40064  0.23399  1.0000
  C   C325      1.0  0.16763  0.37463  0.45053  1.0000
  C   C326      1.0  0.17752  0.46535  0.26312  1.0000
  C   C327      1.0  0.17860  0.14006  0.21010  1.0000
  C   C328      1.0  0.00264  0.48476  0.17568  1.0000
  H   H253      1.0  0.08634  0.25393  0.47310  1.0000
  H   H254      1.0  0.17701  0.44452  0.29348  1.0000
  H   H255      1.0  0.17742  0.48756  0.23798  1.0000
  C   C329      1.0  0.17238  0.48652  0.28250  1.0000
  H   H256      1.0  0.10797  0.99022  0.16589  1.0000
  H   H257      1.0  0.06358  0.26447  0.47514  1.0000
  H   H258      1.0  0.17410  0.22171  0.23628  1.0000
  P   P11       1.0  0.17778  0.46738  0.11012  1.0000
  Fe  Fe20      1.0  0.17401  0.99138  0.19228  1.0000
  H   H259      1.0  0.11439  0.03402  0.98213  1.0000
  H   H260      1.0  0.14941  0.98966  0.11125  1.0000
  H   H261      1.0  0.17284  0.46028  0.05695  1.0000
  H   H262      1.0  0.17689  0.38349  0.36687  1.0000
  H   H263      1.0  0.09563  0.48604  0.02341  1.0000
  H   H264      1.0  0.16947  0.21858  0.28799  1.0000
  H   H265      1.0  0.10683  0.48780  0.40788  1.0000
  H   H266      1.0  0.17285  0.48752  0.06005  1.0000
  C   C330      1.0  0.98563  0.27846  0.27263  1.0000
  H   H267      1.0  0.09532  0.37331  0.99224  1.0000
  C   C331      1.0  0.08276  0.39090  0.98775  1.0000
  C   C332      1.0  0.09581  0.42860  0.98411  1.0000
  H   H268      1.0  0.17896  0.43490  0.11409  1.0000
  H   H269      1.0  0.13861  0.48608  0.98005  1.0000
  H   H270      1.0  0.18173  0.46466  0.45324  1.0000
  H   H271      1.0  0.07911  0.28988  0.47457  1.0000
  H   H272      1.0  0.18143  0.04961  0.06457  1.0000
  C   C333      1.0  0.00015  0.48786  0.14850  1.0000
  C   C334      1.0  0.18202  0.07599  0.11599  1.0000
  C   C335      1.0  0.03781  0.24116  0.47874  1.0000
  H   H273      1.0  0.03612  0.44956  0.82427  1.0000
  S   S40       1.0  0.16310  0.38738  0.62980  1.0000
  H   H274      1.0  0.11668  0.10127  0.89871  1.0000
  H   H275      1.0  0.15242  0.47626  0.60075  1.0000
  Fe  Fe21      1.0  0.16852  0.39065  0.67023  1.0000
  S   S41       1.0  0.15096  0.38809  0.71082  1.0000
  C   C336      1.0  0.16830  0.17945  0.63929  1.0000
  H   H276      1.0  0.00266  0.39202  0.96282  1.0000
  Fe  Fe22      1.0  0.10376  0.44295  0.75759  1.0000
  S   S42       1.0  0.10040  0.42663  0.80022  1.0000
  S   S43       1.0  0.11794  0.44263  0.71500  1.0000
  Fe  Fe23      1.0  0.08353  0.46196  0.78144  1.0000
  S   S44       1.0  0.07858  0.44719  0.82593  1.0000
  H   H277      1.0  0.10587  0.45537  0.90801  1.0000
  Fe  Fe24      1.0  0.10390  0.44831  0.81566  1.0000
  S   S45       1.0  0.11851  0.45020  0.84734  1.0000
  Fe  Fe25      1.0  0.07541  0.42686  0.80681  1.0000
  S   S46       1.0  0.05460  0.40634  0.82992  1.0000
  S   S47       1.0  0.10907  0.46457  0.77241  1.0000
  S   S48       1.0  0.07855  0.44177  0.76317  1.0000
  C   C337      1.0  0.04635  0.26225  0.51342  1.0000
  S   S49       1.0  0.99578  0.31210  0.82649  1.0000
  C   C338      1.0  0.14923  0.12640  0.80298  1.0000
  H   H278      1.0  0.03365  0.39918  0.71139  1.0000
  C   C339      1.0  0.15444  0.18899  0.58003  1.0000
  H   H279      1.0  0.14783  0.13810  0.80060  1.0000
  Fe  Fe26      1.0  0.99838  0.33589  0.79897  1.0000
  S   S50       1.0  0.02186  0.35348  0.77986  1.0000
  C   C340      1.0  0.03028  0.46734  0.66831  1.0000
  C   C341      1.0  0.08484  0.42756  0.96820  1.0000
  C   C342      1.0  0.03296  0.43543  0.75704  1.0000
  H   H280      1.0  0.00125  0.41587  0.76515  1.0000
  Fe  Fe27      1.0  0.12186  0.13677  0.92800  1.0000
  H   H281      1.0  0.17420  0.05394  0.85287  1.0000
  S   S51       1.0  0.13932  0.14119  0.88568  1.0000
  C   C343      1.0  0.10861  0.07425  0.86241  1.0000
  H   H282      1.0  0.15261  0.20903  0.59623  1.0000
  C   C344      1.0  0.03805  0.14064  0.96326  1.0000
  H   H283      1.0  0.15162  0.21810  0.65806  1.0000
  S   S52       1.0  0.09966  0.11798  0.94171  1.0000
  S   S53       1.0  0.15574  0.20133  0.78263  1.0000
  C   C345      1.0  0.00501  0.44958  0.68181  1.0000
  H   H284      1.0  0.13115  0.07370  0.92811  1.0000
  H   H285      1.0  0.15160  0.16764  0.56710  1.0000
  H   H286      1.0  0.17734  0.07393  0.78625  1.0000
  C   C346      1.0  0.13563  0.02967  0.82360  1.0000
  H   H287      1.0  0.06352  0.39871  0.93710  1.0000
  H   H288      1.0  0.14881  0.44877  0.75697  1.0000
  H   H289      1.0  0.05416  0.11018  0.96346  1.0000
  C   C347      1.0  0.15057  0.43254  0.61312  1.0000
  C   C348      1.0  0.03821  0.42803  0.93422  1.0000
  P   P12       1.0  0.17519  0.04805  0.75934  1.0000
  Fe  Fe28      1.0  0.10591  0.00611  0.95007  1.0000
  S   S54       1.0  0.09720  0.02800  0.94078  1.0000
  S   S55       1.0  0.13025  0.00742  0.95279  1.0000
  C   C349      1.0  0.18159  0.25110  0.83338  1.0000
  C   C350      1.0  0.02271  0.39741  0.72634  1.0000
  C   C351      1.0  0.14680  0.19971  0.58890  1.0000
  H   H290      1.0  0.02330  0.33224  0.83248  1.0000
  S   S56       1.0  0.07274  0.48207  0.77284  1.0000
  C   C352      1.0  0.11417  0.33057  0.49522  1.0000
  H   H291      1.0  0.04080  0.15259  0.96417  1.0000
  S   S57       1.0  0.00026  0.20693  0.64258  1.0000
  C   C353      1.0  0.15035  0.99148  0.85574  1.0000
  Fe  Fe29      1.0  0.08343  0.26899  0.57294  1.0000
  S   S58       1.0  0.09426  0.25336  0.55057  1.0000
  S   S59       1.0  0.05804  0.26625  0.59453  1.0000
  Fe  Fe30      1.0  0.11480  0.29336  0.55982  1.0000
  S   S60       1.0  0.12761  0.27929  0.53637  1.0000
  S   S61       1.0  0.12405  0.31819  0.56256  1.0000
  Fe  Fe31      1.0  0.10768  0.27501  0.51612  1.0000
  H   H292      1.0  0.06332  0.15786  0.87564  1.0000
  Fe  Fe32      1.0  0.11323  0.25884  0.57249  1.0000
  S   S62       1.0  0.12038  0.23869  0.59757  1.0000
  S   S63       1.0  0.09584  0.29042  0.53747  1.0000
  S   S64       1.0  0.10145  0.27316  0.59685  1.0000
  H   H293      1.0  0.01892  0.23581  0.57386  1.0000
  H   H294      1.0  0.08607  0.46358  0.63977  1.0000
  H   H295      1.0  0.15224  0.36069  0.59320  1.0000
  H   H296      1.0  0.17023  0.45436  0.82389  1.0000
  C   C354      1.0  0.12836  0.04177  0.82189  1.0000
  H   H297      1.0  0.13746  0.45587  0.88499  1.0000
  C   C355      1.0  0.05634  0.40677  0.93678  1.0000
  H   H298      1.0  0.17449  0.22074  0.54720  1.0000
  C   C356      1.0  0.01643  0.22334  0.63150  1.0000
  C   C357      1.0  0.01499  0.23809  0.63335  1.0000
  C   C358      1.0  0.02781  0.25106  0.62165  1.0000
  C   C359      1.0  0.04229  0.24945  0.60839  1.0000
  C   C360      1.0  0.04383  0.23465  0.60720  1.0000
  C   C361      1.0  0.03095  0.22171  0.61856  1.0000
  H   H299      1.0  0.00390  0.23957  0.64310  1.0000
  H   H300      1.0  0.02648  0.26243  0.62283  1.0000
  H   H301      1.0  0.05489  0.23319  0.59732  1.0000
  H   H302      1.0  0.03221  0.21036  0.61709  1.0000
  H   H303      1.0  0.03215  0.19158  0.57519  1.0000
  C   C362      1.0  0.18167  0.22245  0.56153  1.0000
  C   C363      1.0  0.12337  0.18626  0.58025  1.0000
  H   H304      1.0  0.14681  0.44821  0.80732  1.0000
  C   C364      1.0  0.14461  0.09012  0.94431  1.0000
  H   H305      1.0  0.16523  0.31781  0.61308  1.0000
  H   H306      1.0  0.03284  0.14469  0.75957  1.0000
  C   C365      1.0  0.12916  0.48227  0.83538  1.0000
  C   C366      1.0  0.09516  0.05674  0.94802  1.0000
  C   C367      1.0  0.10101  0.04381  0.95607  1.0000
  H   H307      1.0  0.02821  0.09809  0.95911  1.0000
  H   H308      1.0  0.04887  0.48602  0.50090  1.0000
  H   H309      1.0  0.16678  0.19416  0.95811  1.0000
  C   C368      1.0  0.01540  0.24010  0.53181  1.0000
  H   H310      1.0  0.98319  0.48871  0.51474  1.0000
  C   C369      1.0  0.16358  0.98911  0.80972  1.0000
  C   C370      1.0  0.16667  0.19067  0.88222  1.0000
  H   H311      1.0  0.15345  0.08437  0.81095  1.0000
  H   H312      1.0  0.17257  0.14745  0.68299  1.0000
  C   C371      1.0  0.15560  0.47467  0.69200  1.0000
  C   C372      1.0  0.00436  0.24083  0.51617  1.0000
  C   C373      1.0  0.15141  0.18450  0.81096  1.0000
  C   C374      1.0  0.13846  0.18176  0.83369  1.0000
  C   C375      1.0  0.13455  0.16850  0.85663  1.0000
  C   C376      1.0  0.14369  0.15795  0.85720  1.0000
  C   C377      1.0  0.15668  0.16070  0.83451  1.0000
  C   C378      1.0  0.16055  0.17392  0.81146  1.0000
  H   H313      1.0  0.13135  0.18991  0.83346  1.0000
  H   H314      1.0  0.12447  0.16647  0.87389  1.0000
  H   H315      1.0  0.16380  0.15257  0.83479  1.0000
  C   C379      1.0  0.17350  0.17644  0.61309  1.0000
  C   C380      1.0  0.13695  0.24014  0.61104  1.0000
  C   C381      1.0  0.13798  0.22739  0.63139  1.0000
  C   C382      1.0  0.15103  0.22796  0.64233  1.0000
  C   C383      1.0  0.16326  0.24130  0.63288  1.0000
  C   C384      1.0  0.16227  0.25401  0.61240  1.0000
  C   C385      1.0  0.14918  0.25348  0.60163  1.0000
  H   H316      1.0  0.12858  0.21702  0.63890  1.0000
  H   H317      1.0  0.16359  0.10355  0.76446  1.0000
  S   S65       1.0  0.11160  0.15292  0.94956  1.0000
  H   H318      1.0  0.14859  0.26337  0.58593  1.0000
  S   S66       1.0  0.98520  0.28012  0.78966  1.0000
  H   H319      1.0  0.14019  0.08314  0.96602  1.0000
  C   C386      1.0  0.03967  0.20282  0.56324  1.0000
  S   S67       1.0  0.06749  0.14135  0.96813  1.0000
  C   C387      1.0  0.08559  0.08136  0.88272  1.0000
  C   C388      1.0  0.17239  0.15528  0.66356  1.0000
  H   H320      1.0  0.01599  0.37307  0.72838  1.0000
  C   C389      1.0  0.17374  0.47862  0.64667  1.0000
  H   H321      1.0  0.02153  0.21118  0.54949  1.0000
  C   C390      1.0  0.11374  0.44907  0.94553  1.0000
  H   H322      1.0  0.17645  0.06395  0.70000  1.0000
  C   C391      1.0  0.03091  0.10999  0.96030  1.0000
  C   C392      1.0  0.04565  0.11682  0.96270  1.0000
  C   C393      1.0  0.04865  0.40891  0.91540  1.0000
  H   H323      1.0  0.18110  0.15948  0.59279  1.0000
  S   S68       1.0  0.15140  0.99493  0.88887  1.0000
  H   H324      1.0  0.08064  0.43669  0.92746  1.0000
  H   H325      1.0  0.15007  0.42029  0.61659  1.0000
  H   H326      1.0  0.03372  0.42112  0.89742  1.0000
  H   H327      1.0  0.10520  0.45865  0.66690  1.0000
  H   H328      1.0  0.16982  0.34965  0.78223  1.0000
  C   C394      1.0  0.09429  0.09168  0.89399  1.0000
  C   C395      1.0  0.16431  0.45855  0.61152  1.0000
  C   C396      1.0  0.10135  0.48431  0.61001  1.0000
  C   C397      1.0  0.11015  0.43934  0.97285  1.0000
  H   H329      1.0  0.01488  0.14050  0.95952  1.0000
  H   H330      1.0  0.07329  0.08012  0.88626  1.0000
  C   C398      1.0  0.12904  0.46775  0.85171  1.0000
  C   C399      1.0  0.01545  0.33478  0.87447  1.0000
  C   C400      1.0  0.15505  0.10457  0.93796  1.0000
  Fe  Fe33      1.0  0.13002  0.99108  0.92463  1.0000
  C   C401      1.0  0.16052  0.11365  0.91003  1.0000
  C   C402      1.0  0.04537  0.39231  0.81476  1.0000
  C   C403      1.0  0.05270  0.38975  0.78942  1.0000
  C   C404      1.0  0.04522  0.37803  0.77883  1.0000
  C   C405      1.0  0.03035  0.36868  0.79342  1.0000
  C   C406      1.0  0.02289  0.37148  0.81847  1.0000
  C   C407      1.0  0.03039  0.38319  0.82907  1.0000
  H   H331      1.0  0.06427  0.39656  0.77829  1.0000
  H   H332      1.0  0.05110  0.37600  0.75942  1.0000
  H   H333      1.0  0.01144  0.36444  0.82991  1.0000
  H   H334      1.0  0.02452  0.38520  0.84845  1.0000
  H   H335      1.0  0.13028  0.01879  0.83965  1.0000
  C   C408      1.0  0.16671  0.43565  0.51402  1.0000
  C   C409      1.0  0.06925  0.36806  0.92926  1.0000
  C   C410      1.0  0.02534  0.44224  0.70195  1.0000
  C   C411      1.0  0.14554  0.10050  0.83298  1.0000
  C   C412      1.0  0.14193  0.40333  0.71183  1.0000
  C   C413      1.0  0.13280  0.40385  0.73758  1.0000
  C   C414      1.0  0.12542  0.41587  0.73879  1.0000
  C   C415      1.0  0.12696  0.42732  0.71418  1.0000
  C   C416      1.0  0.13592  0.42667  0.68836  1.0000
  C   C417      1.0  0.14355  0.41482  0.68724  1.0000
  H   H336      1.0  0.13147  0.39496  0.75666  1.0000
  H   H337      1.0  0.11849  0.41616  0.75874  1.0000
  H   H338      1.0  0.13686  0.43528  0.66920  1.0000
  H   H339      1.0  0.15054  0.41437  0.66740  1.0000
  C   C418      1.0  0.16026  0.34021  0.60444  1.0000
  C   C419      1.0  0.15810  0.32453  0.60407  1.0000
  C   C420      1.0  0.14685  0.31745  0.59203  1.0000
  C   C421      1.0  0.13775  0.32605  0.57979  1.0000
  C   C422      1.0  0.13976  0.34167  0.58052  1.0000
  C   C423      1.0  0.15084  0.34868  0.59291  1.0000
  H   H340      1.0  0.01092  0.33918  0.91544  1.0000
  H   H341      1.0  0.14543  0.30542  0.59181  1.0000
  H   H342      1.0  0.13275  0.34843  0.57126  1.0000
  C   C424      1.0  0.18075  0.37129  0.75084  1.0000
  H   H343      1.0  0.13769  0.11914  0.84721  1.0000
  C   C425      1.0  0.14930  0.05756  0.78183  1.0000
  H   H344      1.0  0.12284  0.48299  0.81933  1.0000
  P   P13       1.0  0.03551  0.24316  0.51444  1.0000
  C   C426      1.0  0.99863  0.37974  0.75568  1.0000
  C   C427      1.0  0.04322  0.22884  0.53392  1.0000
  C   C428      1.0  0.05895  0.23204  0.53314  1.0000
  C   C429      1.0  0.06495  0.22069  0.54733  1.0000
  C   C430      1.0  0.05531  0.20614  0.56253  1.0000
  C   C431      1.0  0.16688  0.19313  0.93690  1.0000
  C   C432      1.0  0.03365  0.21407  0.54886  1.0000
  C   C433      1.0  0.00994  0.38508  0.95491  1.0000
  H   H345      1.0  0.12323  0.48616  0.50357  1.0000
  C   C434      1.0  0.14977  0.03150  0.80461  1.0000
  C   C435      1.0  0.13858  0.43821  0.60530  1.0000
  C   C436      1.0  0.15212  0.46412  0.60391  1.0000
  H   H346      1.0  0.12928  0.06490  0.79907  1.0000
  C   C437      1.0  0.15806  0.45165  0.79231  1.0000
  H   H347      1.0  0.04724  0.28935  0.55101  1.0000
  C   C438      1.0  0.16412  0.02540  0.73413  1.0000
  H   H348      1.0  0.12480  0.45751  0.93688  1.0000
  H   H349      1.0  0.17219  0.23424  0.78262  1.0000
  H   H350      1.0  0.99106  0.36812  0.76336  1.0000
  C   C439      1.0  0.05037  0.33027  0.94939  1.0000
  C   C440      1.0  0.16082  0.01977  0.71163  1.0000
  C   C441      1.0  0.02333  0.13383  0.96073  1.0000
  H   H351      1.0  0.17161  0.41342  0.52154  1.0000
  C   C442      1.0  0.13069  0.17516  0.57256  1.0000
  H   H352      1.0  0.08600  0.06470  0.85808  1.0000
  H   H353      1.0  0.09319  0.40009  0.97878  1.0000
  C   C443      1.0  0.04930  0.13220  0.96425  1.0000
  H   H354      1.0  0.05591  0.38045  0.87200  1.0000
  H   H355      1.0  0.07794  0.48188  0.67330  1.0000
  C   C444      1.0  0.06383  0.29156  0.51214  1.0000
  H   H356      1.0  0.13105  0.47669  0.65305  1.0000
  C   C445      1.0  0.13141  0.19848  0.58853  1.0000
  C   C446      1.0  0.01061  0.23648  0.56144  1.0000
  H   H357      1.0  0.09292  0.07909  0.95409  1.0000
  C   C447      1.0  0.01773  0.37751  0.97240  1.0000
  S   S69       1.0  0.98544  0.32623  0.77004  1.0000
  C   C448      1.0  0.15447  0.18313  0.93252  1.0000
  Fe  Fe34      1.0  0.08983  0.13343  0.96636  1.0000
  C   C449      1.0  0.02158  0.15024  0.86711  1.0000
  C   C450      1.0  0.03241  0.16409  0.85097  1.0000
  C   C451      1.0  0.04757  0.16671  0.85388  1.0000
  P   P14       1.0  0.02681  0.17757  0.82546  1.0000
  C   C452      1.0  0.01226  0.18580  0.84222  1.0000
  C   C453      1.0  0.04277  0.19397  0.80555  1.0000
  C   C454      1.0  0.04967  0.20398  0.81977  1.0000
  C   C455      1.0  0.06213  0.21665  0.80486  1.0000
  C   C456      1.0  0.06764  0.21956  0.77558  1.0000
  C   C457      1.0  0.06050  0.20997  0.76111  1.0000
  C   C458      1.0  0.04803  0.19728  0.77596  1.0000
  C   C459      1.0  0.00768  0.19755  0.82557  1.0000
  C   C460      1.0  0.99674  0.20446  0.83799  1.0000
  C   C461      1.0  0.99036  0.19971  0.86723  1.0000
  C   C462      1.0  0.99499  0.18813  0.88401  1.0000
  C   C463      1.0  0.00591  0.18119  0.87163  1.0000
  C   C464      1.0  0.02014  0.16655  0.80239  1.0000
  C   C465      1.0  0.03002  0.15906  0.78836  1.0000
  C   C466      1.0  0.02514  0.15039  0.77044  1.0000
  C   C467      1.0  0.01030  0.14899  0.76668  1.0000
  C   C468      1.0  0.00030  0.15612  0.78106  1.0000
  C   C469      1.0  0.00512  0.16482  0.79901  1.0000
  C   C470      1.0  0.17359  0.42434  0.50605  1.0000
  C   C471      1.0  0.12618  0.48839  0.48073  1.0000
  C   C472      1.0  0.14355  0.11561  0.82943  1.0000
  H   H358      1.0  0.00987  0.14785  0.86496  1.0000
  H   H359      1.0  0.05634  0.17699  0.84122  1.0000
  H   H360      1.0  0.04555  0.20180  0.84252  1.0000
  H   H361      1.0  0.06765  0.22409  0.81611  1.0000
  H   H362      1.0  0.07748  0.22920  0.76412  1.0000
  H   H363      1.0  0.06468  0.21231  0.73833  1.0000
  H   H364      1.0  0.04259  0.19018  0.76417  1.0000
  H   H365      1.0  0.01254  0.20127  0.80295  1.0000
  H   H366      1.0  0.99302  0.21334  0.82497  1.0000
  H   H367      1.0  0.15495  0.02178  0.80590  1.0000
  H   H368      1.0  0.98968  0.18414  0.90659  1.0000
  H   H369      1.0  0.00917  0.17221  0.88519  1.0000
  H   H370      1.0  0.17168  0.26438  0.60493  1.0000
  C   C473      1.0  0.01870  0.40959  0.73674  1.0000
  C   C474      1.0  0.05167  0.15579  0.87317  1.0000
  S   S70       1.0  0.17496  0.34870  0.61913  1.0000
  H   H371      1.0  0.99702  0.16997  0.81031  1.0000
  H   H372      1.0  0.14460  0.17426  0.90204  1.0000
  H   H373      1.0  0.11403  0.06763  0.84970  1.0000
  C   C475      1.0  0.16393  0.99178  0.83632  1.0000
  H   H374      1.0  0.00355  0.32897  0.87681  1.0000
  C   C476      1.0  0.03499  0.44560  0.80570  1.0000
  C   C477      1.0  0.11253  0.34053  0.70888  1.0000
  C   C478      1.0  0.12674  0.34893  0.69029  1.0000
  C   C479      1.0  0.13375  0.34280  0.66928  1.0000
  C   C480      1.0  0.12664  0.32823  0.66693  1.0000
  C   C481      1.0  0.11251  0.31954  0.68592  1.0000
  C   C482      1.0  0.10540  0.32590  0.70671  1.0000
  P   P15       1.0  0.10365  0.30051  0.68313  1.0000
  C   C483      1.0  0.11848  0.29065  0.67416  1.0000
  C   C484      1.0  0.09022  0.28921  0.71643  1.0000
  C   C485      1.0  0.09444  0.27813  0.73538  1.0000
  C   C486      1.0  0.08380  0.26918  0.76069  1.0000
  C   C487      1.0  0.06890  0.27122  0.76728  1.0000
  C   C488      1.0  0.06463  0.28228  0.74863  1.0000
  C   C489      1.0  0.07526  0.29131  0.72341  1.0000
  C   C490      1.0  0.13171  0.29304  0.68436  1.0000
  C   C491      1.0  0.14314  0.28538  0.67728  1.0000
  C   C492      1.0  0.14139  0.27517  0.66024  1.0000
  C   C493      1.0  0.12822  0.27265  0.65020  1.0000
  C   C494      1.0  0.11683  0.28036  0.65712  1.0000
  C   C495      1.0  0.09339  0.30211  0.65584  1.0000
  C   C496      1.0  0.09850  0.31487  0.63193  1.0000
  C   C497      1.0  0.09094  0.31560  0.61027  1.0000
  C   C498      1.0  0.07837  0.30355  0.61214  1.0000
  C   C499      1.0  0.07320  0.29084  0.63587  1.0000
  C   C500      1.0  0.08070  0.29007  0.65756  1.0000
  H   H375      1.0  0.10710  0.34538  0.72507  1.0000
  H   H376      1.0  0.13236  0.36020  0.69218  1.0000
  H   H377      1.0  0.14480  0.34931  0.65490  1.0000
  H   H378      1.0  0.13226  0.32372  0.65042  1.0000
  H   H379      1.0  0.09445  0.31963  0.72142  1.0000
  H   H380      1.0  0.10592  0.27638  0.73074  1.0000
  H   H381      1.0  0.08718  0.26075  0.77531  1.0000
  H   H382      1.0  0.06067  0.26435  0.78693  1.0000
  H   H383      1.0  0.05311  0.28396  0.75383  1.0000
  H   H384      1.0  0.07181  0.29993  0.70929  1.0000
  H   H385      1.0  0.13328  0.30089  0.69760  1.0000
  H   H386      1.0  0.15344  0.28743  0.68481  1.0000
  H   H387      1.0  0.15027  0.26926  0.65472  1.0000
  H   H388      1.0  0.12691  0.26482  0.63681  1.0000
  H   H389      1.0  0.10682  0.27835  0.64895  1.0000
  H   H390      1.0  0.10856  0.32407  0.62944  1.0000
  H   H391      1.0  0.09525  0.32526  0.59149  1.0000
  H   H392      1.0  0.07285  0.30385  0.59492  1.0000
  H   H393      1.0  0.06364  0.28138  0.63704  1.0000
  H   H394      1.0  0.07679  0.27987  0.67527  1.0000
  C   C501      1.0  0.00053  0.19839  0.75323  1.0000
  C   C502      1.0  0.00407  0.19112  0.73174  1.0000
  C   C503      1.0  0.01546  0.19919  0.70693  1.0000
  C   C504      1.0  0.02352  0.21443  0.70377  1.0000
  C   C505      1.0  0.02025  0.22179  0.72546  1.0000
  C   C506      1.0  0.00833  0.21376  0.74987  1.0000
  P   P16       1.0  0.03000  0.24186  0.72080  1.0000
  C   C507      1.0  0.05013  0.24532  0.70269  1.0000
  C   C508      1.0  0.02111  0.25412  0.69966  1.0000
  C   C509      1.0  0.02954  0.26909  0.68349  1.0000
  C   C510      1.0  0.02245  0.27886  0.66811  1.0000
  C   C511      1.0  0.00690  0.27379  0.66896  1.0000
  C   C512      1.0  0.99843  0.25894  0.68514  1.0000
  C   C513      1.0  0.00548  0.24915  0.70052  1.0000
  C   C514      1.0  0.05424  0.24654  0.67357  1.0000
  C   C515      1.0  0.06949  0.24809  0.65941  1.0000
  C   C516      1.0  0.08090  0.24876  0.67408  1.0000
  C   C517      1.0  0.07709  0.24823  0.70283  1.0000
  C   C518      1.0  0.06176  0.24654  0.71712  1.0000
  C   C519      1.0  0.02786  0.24575  0.75519  1.0000
  C   C520      1.0  0.03145  0.23585  0.77711  1.0000
  C   C521      1.0  0.02897  0.23821  0.80422  1.0000
  C   C522      1.0  0.02279  0.25041  0.80970  1.0000
  C   C523      1.0  0.01914  0.26027  0.78807  1.0000
  C   C524      1.0  0.02165  0.25798  0.76093  1.0000
  H   H395      1.0  0.15444  0.45849  0.66678  1.0000
  H   H396      1.0  0.99745  0.17950  0.73374  1.0000
  H   H397      1.0  0.01764  0.19383  0.68964  1.0000
  H   H398      1.0  0.03191  0.22046  0.68397  1.0000
  H   H399      1.0  0.00471  0.21944  0.76604  1.0000
  H   H400      1.0  0.04152  0.27328  0.68299  1.0000
  H   H401      1.0  0.02901  0.29039  0.65562  1.0000
  C   C525      1.0  0.01268  0.38257  0.73578  1.0000
  C   C526      1.0  0.04840  0.31644  0.96986  1.0000
  H   H402      1.0  0.99863  0.23781  0.71328  1.0000
  H   H403      1.0  0.04559  0.24612  0.66181  1.0000
  H   H404      1.0  0.07242  0.24874  0.63699  1.0000
  H   H405      1.0  0.09270  0.24977  0.66303  1.0000
  H   H406      1.0  0.08605  0.24908  0.71396  1.0000
  H   H407      1.0  0.05912  0.24616  0.73930  1.0000
  H   H408      1.0  0.03586  0.22613  0.77332  1.0000
  H   H409      1.0  0.03152  0.23039  0.82116  1.0000
  H   H410      1.0  0.02056  0.25211  0.83082  1.0000
  H   H411      1.0  0.01398  0.26953  0.79247  1.0000
  H   H412      1.0  0.01832  0.26559  0.74484  1.0000
  C   C527      1.0  0.03543  0.45658  0.68593  1.0000
  P   P17       1.0  0.18051  0.47188  0.61609  1.0000
  C   C528      1.0  0.11733  0.08415  0.87460  1.0000
  H   H413      1.0  0.98425  0.35649  0.92149  1.0000
  P   P18       1.0  0.13790  0.08675  0.86740  1.0000
  C   C529      1.0  0.14481  0.09394  0.89467  1.0000
  C   C530      1.0  0.14298  0.06844  0.86968  1.0000
  C   C531      1.0  0.15828  0.06820  0.85869  1.0000
  C   C532      1.0  0.16240  0.05409  0.86134  1.0000
  C   C533      1.0  0.15136  0.04015  0.87553  1.0000
  C   C534      1.0  0.13625  0.04035  0.88739  1.0000
  C   C535      1.0  0.13211  0.05441  0.88479  1.0000
  C   C536      1.0  0.13946  0.08483  0.92278  1.0000
  C   C537      1.0  0.15433  0.18196  0.90524  1.0000
  C   C538      1.0  0.13929  0.45400  0.60093  1.0000
  H   H414      1.0  0.13695  0.32933  0.49830  1.0000
  C   C539      1.0  0.02673  0.36812  0.96254  1.0000
  C   C540      1.0  0.99503  0.23343  0.57529  1.0000
  C   C541      1.0  0.12288  0.47880  0.64071  1.0000
  H   H415      1.0  0.12869  0.43028  0.60305  1.0000
  H   H416      1.0  0.03803  0.46001  0.73613  1.0000
  S   S71       1.0  0.17148  0.20039  0.70309  1.0000
  C   C542      1.0  0.03821  0.33746  0.94904  1.0000
  H   H417      1.0  0.15609  0.00749  0.71498  1.0000
  H   H418      1.0  0.12570  0.20702  0.59480  1.0000
  H   H419      1.0  0.16706  0.07893  0.84846  1.0000
  H   H420      1.0  0.03802  0.47848  0.65646  1.0000
  H   H421      1.0  0.15450  0.02918  0.87779  1.0000
  H   H422      1.0  0.12773  0.02959  0.89894  1.0000
  H   H423      1.0  0.12046  0.05422  0.89517  1.0000
  H   H424      1.0  0.18122  0.26143  0.84061  1.0000
  H   H425      1.0  0.15976  0.43333  0.53551  1.0000
  C   C543      1.0  0.16383  0.02990  0.68485  1.0000
  H   H426      1.0  0.16101  0.13051  0.75917  1.0000
  C   C544      1.0  0.17023  0.04131  0.73016  1.0000
  C   C545      1.0  0.06850  0.28438  0.49102  1.0000
  S   S72       1.0  0.00141  0.10933  0.95561  1.0000
  C   C546      1.0  0.99452  0.39181  0.76603  1.0000
  C   C547      1.0  0.01966  0.34062  0.89623  1.0000
  H   H427      1.0  0.14545  0.46761  0.70843  1.0000
  C   C548      1.0  0.15663  0.12210  0.77966  1.0000
  H   H428      1.0  0.04152  0.15994  0.79128  1.0000
  C   C549      1.0  0.16068  0.46957  0.66815  1.0000
  C   C550      1.0  0.08865  0.43726  0.94057  1.0000
  C   C551      1.0  0.15696  0.04566  0.78411  1.0000
  C   C552      1.0  0.05052  0.28410  0.53397  1.0000
  C   C553      1.0  0.09754  0.47131  0.63317  1.0000
  H   H429      1.0  0.02886  0.41240  0.78471  1.0000
  H   H430      1.0  0.03195  0.26375  0.55244  1.0000
  S   S73       1.0  0.10640  0.99130  0.91895  1.0000
  H   H431      1.0  0.12436  0.16553  0.56664  1.0000
  C   C554      1.0  0.16322  0.44259  0.61686  1.0000
  H   H432      1.0  0.07076  0.30267  0.51207  1.0000
  C   C555      1.0  0.06922  0.48740  0.73927  1.0000
  H   H433      1.0  0.14486  0.17638  0.95023  1.0000
  H   H434      1.0  0.99320  0.44693  0.68027  1.0000
  C   C556      1.0  0.13513  0.05567  0.80085  1.0000
  C   C557      1.0  0.01010  0.43879  0.69953  1.0000
  C   C558      1.0  0.03702  0.45634  0.77999  1.0000
  H   H435      1.0  0.03962  0.46862  0.77873  1.0000
  H   H436      1.0  0.16009  0.11560  0.86703  1.0000
  C   C559      1.0  0.05975  0.26985  0.49157  1.0000
  H   H437      1.0  0.08200  0.47298  0.72097  1.0000
  H   H438      1.0  0.00647  0.14228  0.75281  1.0000
  C   C560      1.0  0.04599  0.42604  0.95548  1.0000
  H   H439      1.0  0.08843  0.05688  0.93264  1.0000
  C   C561      1.0  0.15560  0.10830  0.88838  1.0000
  H   H440      1.0  0.17178  0.25814  0.79860  1.0000
  C   C562      1.0  0.07477  0.42062  0.71313  1.0000
  C   C563      1.0  0.08006  0.42451  0.68370  1.0000
  C   C564      1.0  0.07060  0.42939  0.66688  1.0000
  C   C565      1.0  0.05599  0.43073  0.67950  1.0000
  C   C566      1.0  0.05084  0.42740  0.70909  1.0000
  C   C567      1.0  0.06014  0.42188  0.72577  1.0000
  P   P19       1.0  0.03187  0.42867  0.72583  1.0000
  H   H441      1.0  0.16486  0.19006  0.64032  1.0000
  C   C568      1.0  0.15252  0.09612  0.80924  1.0000
  H   H442      1.0  0.01104  0.47235  0.65298  1.0000
  H   H443      1.0  0.15177  0.47999  0.89334  1.0000
  C   C569      1.0  0.09275  0.07267  0.86687  1.0000
  C   C570      1.0  0.03180  0.42979  0.80727  1.0000
  H   H444      1.0  0.98632  0.25503  0.68603  1.0000
  C   C571      1.0  0.03957  0.41948  0.91415  1.0000
  H   H445      1.0  0.17411  0.98933  0.79499  1.0000
  H   H446      1.0  0.12982  0.45834  0.59552  1.0000
  H   H447      1.0  0.15869  0.10889  0.95468  1.0000
  H   H448      1.0  0.16468  0.45907  0.50163  1.0000
  H   H449      1.0  0.04400  0.13365  0.90415  1.0000
  C   C572      1.0  0.07530  0.48135  0.71730  1.0000
  C   C573      1.0  0.09775  0.06940  0.96005  1.0000
  H   H450      1.0  0.03264  0.36229  0.97634  1.0000
  H   H451      1.0  0.09884  0.39885  0.88885  1.0000
  H   H452      1.0  0.05996  0.19746  0.57384  1.0000
  H   H453      1.0  0.08204  0.41670  0.72621  1.0000
  H   H454      1.0  0.09144  0.42356  0.67411  1.0000
  H   H455      1.0  0.07456  0.43203  0.64408  1.0000
  H   H456      1.0  0.04871  0.43424  0.66618  1.0000
  H   H457      1.0  0.05615  0.41859  0.74861  1.0000
  H   H458      1.0  0.98532  0.24970  0.78242  1.0000
  H   H459      1.0  0.02113  0.37274  0.89636  1.0000
  C   C574      1.0  0.17139  0.45537  0.80156  1.0000
  H   H460      1.0  0.17058  0.17595  0.79413  1.0000
  C   C575      1.0  0.04194  0.34371  0.84660  1.0000
  H   H461      1.0  0.03034  0.42144  0.82717  1.0000
  C   C576      1.0  0.02657  0.33644  0.84961  1.0000
  H   H462      1.0  0.08101  0.39958  0.85771  1.0000
  H   H463      1.0  0.09265  0.48637  0.59900  1.0000
  H   H464      1.0  0.00204  0.42785  0.71134  1.0000
  H   H465      1.0  0.16998  0.37390  0.74837  1.0000
  H   H466      1.0  0.06129  0.33523  0.93365  1.0000
  H   H467      1.0  0.00504  0.38904  0.91407  1.0000
  C   C577      1.0  0.15918  0.45201  0.76391  1.0000
  P   P20       1.0  0.17423  0.19026  0.58086  1.0000
  C   C578      1.0  0.16956  0.45015  0.49499  1.0000
  C   C579      1.0  0.11012  0.09312  0.88993  1.0000
  H   H468      1.0  0.08873  0.09851  0.90602  1.0000
  C   C580      1.0  0.02382  0.33017  0.96838  1.0000
  H   H469      1.0  0.99118  0.19231  0.77186  1.0000
  H   H470      1.0  0.15418  0.06822  0.76516  1.0000
  C   C581      1.0  0.07303  0.48643  0.69030  1.0000
  H   H471      1.0  0.11142  0.18534  0.58010  1.0000
  C   C582      1.0  0.17930  0.20181  0.91399  1.0000
  C   C583      1.0  0.16780  0.16890  0.66440  1.0000
  C   C584      1.0  0.98410  0.23410  0.55964  1.0000
  C   C585      1.0  0.02576  0.13933  0.88622  1.0000
  C   C586      1.0  0.14613  0.17644  0.57268  1.0000
  H   H472      1.0  0.05830  0.35447  0.86591  1.0000
  Fe  Fe35      1.0  0.17511  0.20669  0.74284  1.0000
  H   H473      1.0  0.11739  0.04025  0.83670  1.0000
  H   H474      1.0  0.17190  0.05363  0.66001  1.0000
  H   H475      1.0  0.16205  0.01726  0.75455  1.0000
  H   H476      1.0  0.16189  0.02540  0.66714  1.0000
  H   H477      1.0  0.16422  0.17143  0.68455  1.0000
  H   H478      1.0  0.06584  0.35980  0.94979  1.0000
  C   C587      1.0  0.17238  0.05157  0.70357  1.0000
  C   C588      1.0  0.05495  0.41524  0.95716  1.0000
  H   H479      1.0  0.05046  0.34511  0.82711  1.0000
  C   C589      1.0  0.10828  0.46856  0.64855  1.0000
  H   H480      1.0  0.10981  0.32887  0.51779  1.0000
  H   H481      1.0  0.09124  0.37879  0.93475  1.0000
  H   H482      1.0  0.16984  0.19106  0.52376  1.0000
  H   H483      1.0  0.04980  0.40250  0.89951  1.0000
  C   C590      1.0  0.01965  0.11842  0.95939  1.0000
  H   H484      1.0  0.01733  0.12870  0.89875  1.0000
  H   H485      1.0  0.99146  0.23034  0.59824  1.0000
  H   H486      1.0  0.17973  0.37046  0.55624  1.0000
  C   C591      1.0  0.18069  0.35762  0.76985  1.0000
  C   C592      1.0  0.03610  0.45134  0.75572  1.0000
  H   H487      1.0  0.17322  0.38698  0.51692  1.0000
  C   C593      1.0  0.00451  0.40668  0.75665  1.0000
  C   C594      1.0  0.01507  0.46388  0.66634  1.0000
  C   C595      1.0  0.04625  0.34930  0.86850  1.0000
  H   H488      1.0  0.07709  0.22320  0.54668  1.0000
  C   C596      1.0  0.13739  0.46706  0.87241  1.0000
  H   H489      1.0  0.08388  0.17343  0.97446  1.0000
  C   C597      1.0  0.17367  0.45607  0.74472  1.0000
  H   H490      1.0  0.04723  0.45960  0.68746  1.0000
  H   H491      1.0  0.06662  0.24326  0.52163  1.0000
  C   C598      1.0  0.04186  0.26947  0.53475  1.0000
  C   C599      1.0  0.18046  0.18784  0.52502  1.0000
  H   H492      1.0  0.16619  0.18983  0.86112  1.0000
  C   C600      1.0  0.03091  0.42471  0.78307  1.0000
  C   C601      1.0  0.17628  0.24927  0.80972  1.0000
  C   C602      1.0  0.04079  0.14211  0.88927  1.0000
  H   H493      1.0  0.03129  0.43636  0.93305  1.0000
  C   C603      1.0  0.14551  0.48070  0.87721  1.0000
  C   C604      1.0  0.01120  0.38332  0.92752  1.0000
  C   C605      1.0  0.02020  0.37392  0.91764  1.0000
  C   C606      1.0  0.02780  0.36605  0.93527  1.0000
  S   S74       1.0  0.18001  0.24272  0.64578  1.0000
  P   P21       1.0  0.04043  0.35494  0.92208  1.0000
  C   C607      1.0  0.03507  0.34813  0.89324  1.0000
  C   C608      1.0  0.05936  0.36814  0.91125  1.0000
  C   C609      1.0  0.06367  0.37972  0.88563  1.0000
  C   C610      1.0  0.07788  0.39067  0.87755  1.0000
  C   C611      1.0  0.08787  0.39026  0.89516  1.0000
  C   C612      1.0  0.08356  0.37896  0.92100  1.0000
  C   C613      1.0  0.98877  0.23786  0.53009  1.0000
  S   S75       1.0  0.13061  0.12735  0.96508  1.0000
  C   C614      1.0  0.10303  0.44795  0.92935  1.0000
  H   H494      1.0  0.00135  0.28137  0.65725  1.0000
  C   C615      1.0  0.17755  0.16242  0.61250  1.0000
  H   H495      1.0  0.03981  0.21743  0.48897  1.0000
  H   H496      1.0  0.05781  0.31094  0.97020  1.0000
  H   H497      1.0  0.17850  0.03774  0.81712  1.0000
  H   H498      1.0  0.00770  0.24353  0.49333  1.0000
  C   C616      1.0  0.15815  0.10693  0.78273  1.0000
  H   H499      1.0  0.04516  0.43308  0.97038  1.0000
  H   H500      1.0  0.17474  0.99383  0.84209  1.0000
  H   H501      1.0  0.17203  0.43772  0.62388  1.0000
  C   C617      1.0  0.17719  0.15200  0.63764  1.0000
  C   C618      1.0  0.16951  0.04581  0.68087  1.0000
  H   H502      1.0  0.98878  0.15488  0.77822  1.0000
  H   H503      1.0  0.17451  0.45583  0.72291  1.0000
  C   C619      1.0  0.10973  0.04382  0.97590  1.0000
  H   H504      1.0  0.09258  0.33220  0.48594  1.0000
  C   C620      1.0  0.17950  0.20028  0.88654  1.0000
  H   H505      1.0  0.98366  0.38953  0.78161  1.0000
  C   C621      1.0  0.17663  0.23589  0.80056  1.0000
  Fe  Fe36      1.0  0.17967  0.37234  0.62919  1.0000
  H   H506      1.0  0.16828  0.12506  0.90517  1.0000
  C   C622      1.0  0.12952  0.33085  0.48416  1.0000
  H   H507      1.0  0.01403  0.33511  0.96779  1.0000
  H   H508      1.0  0.18093  0.14152  0.63699  1.0000
  H   H509      1.0  0.13868  0.47076  0.48032  1.0000
  C   C623      1.0  0.16363  0.48873  0.69482  1.0000
  H   H510      1.0  0.16260  0.05943  0.97800  1.0000
  C   C624      1.0  0.11140  0.50547  0.02885  1.0000
  H   H511      1.0  0.02092  0.50579  0.41330  1.0000
  S   S76       1.0  0.16618  0.80754  0.21353  1.0000
  H   H512      1.0  0.99169  0.50234  0.21056  1.0000
  H   H513      1.0  0.15950  0.91328  0.38946  1.0000
  H   H514      1.0  0.15561  0.81455  0.34094  1.0000
  C   C625      1.0  0.02351  0.52963  0.41537  1.0000
  C   C626      1.0  0.13020  0.51302  0.31816  1.0000
  C   C627      1.0  0.01807  0.61744  0.07609  1.0000
  C   C628      1.0  0.14380  0.72329  0.09233  1.0000
  S   S77       1.0  0.16645  0.76374  0.24486  1.0000
  Fe  Fe37      1.0  0.03160  0.52375  0.29463  1.0000
  S   S78       1.0  0.04743  0.52434  0.25359  1.0000
  S   S79       1.0  0.00524  0.51791  0.30111  1.0000
  Fe  Fe38      1.0  0.05950  0.53623  0.31830  1.0000
  S   S80       1.0  0.07675  0.53728  0.27863  1.0000
  S   S81       1.0  0.06707  0.54147  0.35712  1.0000
  Fe  Fe39      1.0  0.06075  0.54739  0.25601  1.0000
  S   S82       1.0  0.07006  0.56712  0.21605  1.0000
  Fe  Fe40      1.0  0.06180  0.51422  0.28012  1.0000
  H   H515      1.0  0.06567  0.83421  0.42916  1.0000
  S   S83       1.0  0.04415  0.54768  0.29555  1.0000
  S   S84       1.0  0.04528  0.51227  0.32150  1.0000
  Fe  Fe41      1.0  0.16203  0.61768  0.41604  1.0000
  S   S85       1.0  0.16986  0.59934  0.44297  1.0000
  C   C629      1.0  0.09547  0.92150  0.32532  1.0000
  Fe  Fe42      1.0  0.14056  0.59277  0.39658  1.0000
  S   S86       1.0  0.14718  0.57312  0.42255  1.0000
  S   S87       1.0  0.12697  0.58951  0.36343  1.0000
  Fe  Fe43      1.0  0.14490  0.58593  0.45638  1.0000
  H   H516      1.0  0.15765  0.91374  0.29615  1.0000
  C   C630      1.0  0.00155  0.51165  0.20865  1.0000
  S   S88       1.0  0.13673  0.60482  0.43158  1.0000
  H   H517      1.0  0.13745  0.82927  0.46775  1.0000
  C   C631      1.0  0.15588  0.93725  0.33032  1.0000
  Fe  Fe44      1.0  0.11037  0.66528  0.12620  1.0000
  S   S89       1.0  0.11087  0.66676  0.17036  1.0000
  S   S90       1.0  0.12875  0.65604  0.10270  1.0000
  Fe  Fe45      1.0  0.08073  0.67585  0.12872  1.0000
  S   S91       1.0  0.07885  0.67783  0.17307  1.0000
  S   S92       1.0  0.06549  0.68465  0.10175  1.0000
  Fe  Fe46      1.0  0.10428  0.68919  0.15878  1.0000
  S   S93       1.0  0.11158  0.71112  0.17276  1.0000
  Fe  Fe47      1.0  0.08564  0.65529  0.18114  1.0000
  S   S94       1.0  0.07405  0.63661  0.22191  1.0000
  S   S95       1.0  0.10583  0.68868  0.11363  1.0000
  S   S96       1.0  0.08546  0.65228  0.13790  1.0000
  C   C632      1.0  0.14316  0.71521  0.04940  1.0000
  C   C633      1.0  0.12368  0.92031  0.33815  1.0000
  Fe  Fe48      1.0  0.11225  0.84519  0.30586  1.0000
  S   S97       1.0  0.08736  0.84120  0.32912  1.0000
  S   S98       1.0  0.12409  0.82559  0.31255  1.0000
  Fe  Fe49      1.0  0.11584  0.87964  0.27896  1.0000
  S   S99       1.0  0.09112  0.87772  0.30010  1.0000
  S   S100      1.0  0.13455  0.89980  0.24638  1.0000
  Fe  Fe50      1.0  0.09559  0.86387  0.33975  1.0000
  S   S101      1.0  0.08731  0.86835  0.38367  1.0000
  Fe  Fe51      1.0  0.08495  0.85506  0.28778  1.0000
  S   S102      1.0  0.06565  0.85086  0.26418  1.0000
  S   S103      1.0  0.12052  0.86690  0.31880  1.0000
  S   S104      1.0  0.10958  0.85793  0.26447  1.0000
  H   H518      1.0  0.15411  0.52100  0.40472  1.0000
  S   S105      1.0  0.00801  0.79378  0.15362  1.0000
  H   H519      1.0  0.98643  0.84906  0.02090  1.0000
  C   C634      1.0  0.11378  0.50063  0.16084  1.0000
  C   C635      1.0  0.14852  0.87609  0.35627  1.0000
  C   C636      1.0  0.13950  0.92032  0.24141  1.0000
  C   C637      1.0  0.13005  0.92792  0.25596  1.0000
  C   C638      1.0  0.13440  0.94426  0.25064  1.0000
  C   C639      1.0  0.14826  0.95320  0.23089  1.0000
  C   C640      1.0  0.15768  0.94557  0.21638  1.0000
  C   C641      1.0  0.15332  0.92928  0.22161  1.0000
  H   H520      1.0  0.11937  0.92124  0.27117  1.0000
  H   H521      1.0  0.12700  0.95001  0.26196  1.0000
  H   H522      1.0  0.16075  0.92359  0.21019  1.0000
  C   C642      1.0  0.09513  0.51763  0.35438  1.0000
  C   C643      1.0  0.03457  0.82919  0.22672  1.0000
  C   C644      1.0  0.04407  0.84033  0.23602  1.0000
  C   C645      1.0  0.05376  0.83608  0.25325  1.0000
  C   C646      1.0  0.05373  0.82038  0.26096  1.0000
  C   C647      1.0  0.04430  0.80926  0.25152  1.0000
  H   H523      1.0  0.04386  0.85236  0.22982  1.0000
  H   H524      1.0  0.06091  0.81679  0.27435  1.0000
  H   H525      1.0  0.04447  0.79723  0.25773  1.0000
  H   H526      1.0  0.11331  0.91819  0.39277  1.0000
  C   C648      1.0  0.12233  0.91612  0.40289  1.0000
  C   C649      1.0  0.08670  0.87365  0.43655  1.0000
  C   C650      1.0  0.09499  0.86926  0.41381  1.0000
  C   C651      1.0  0.10889  0.86560  0.41596  1.0000
  C   C652      1.0  0.11442  0.86646  0.44019  1.0000
  C   C653      1.0  0.15694  0.87702  0.32910  1.0000
  H   H527      1.0  0.07600  0.87663  0.43525  1.0000
  H   H528      1.0  0.11537  0.86206  0.39895  1.0000
  H   H529      1.0  0.12525  0.86372  0.44130  1.0000
  C   C654      1.0  0.04742  0.52221  0.10536  1.0000
  C   C655      1.0  0.13370  0.67829  0.02071  1.0000
  C   C656      1.0  0.12882  0.67355  0.05042  1.0000
  C   C657      1.0  0.13539  0.66314  0.06559  1.0000
  C   C658      1.0  0.14722  0.65792  0.05092  1.0000
  C   C659      1.0  0.15222  0.66278  0.02119  1.0000
  H   H530      1.0  0.12837  0.68612  0.00906  1.0000
  H   H531      1.0  0.11979  0.67773  0.06154  1.0000
  H   H532      1.0  0.15239  0.64992  0.06256  1.0000
  H   H533      1.0  0.12903  0.94544  0.32487  1.0000
  C   C660      1.0  0.04593  0.67545  0.10603  1.0000
  C   C661      1.0  0.03796  0.68185  0.08731  1.0000
  C   C662      1.0  0.02258  0.67452  0.08934  1.0000
  C   C663      1.0  0.02299  0.65435  0.12902  1.0000
  C   C664      1.0  0.03827  0.66186  0.12730  1.0000
  H   H534      1.0  0.04377  0.69245  0.07094  1.0000
  C   C665      1.0  0.17555  0.95960  0.33014  1.0000
  H   H535      1.0  0.01725  0.64367  0.14524  1.0000
  H   H536      1.0  0.04417  0.65718  0.14229  1.0000
  C   C666      1.0  0.14477  0.90986  0.43076  1.0000
  H   H537      1.0  0.14737  0.82911  0.21265  1.0000
  H   H538      1.0  0.12289  0.71637  0.03448  1.0000
  S   S106      1.0  0.02309  0.79872  0.22277  1.0000
  C   C667      1.0  0.08445  0.55406  0.35817  1.0000
  C   C668      1.0  0.08759  0.55418  0.38451  1.0000
  C   C669      1.0  0.10067  0.56465  0.38663  1.0000
  C   C670      1.0  0.11080  0.57524  0.36227  1.0000
  C   C671      1.0  0.10789  0.57480  0.33586  1.0000
  C   C672      1.0  0.09494  0.56416  0.33376  1.0000
  H   H539      1.0  0.07973  0.54622  0.40346  1.0000
  H   H540      1.0  0.10272  0.56474  0.40712  1.0000
  H   H541      1.0  0.11559  0.58291  0.31682  1.0000
  H   H542      1.0  0.09283  0.56414  0.31329  1.0000
  C   C673      1.0  0.05875  0.49987  0.42922  1.0000
  C   C674      1.0  0.03578  0.51641  0.13068  1.0000
  H   H543      1.0  0.10747  0.91181  0.44464  1.0000
  C   C675      1.0  0.07132  0.58637  0.21827  1.0000
  C   C676      1.0  0.06364  0.58960  0.24264  1.0000
  C   C677      1.0  0.06470  0.60506  0.24367  1.0000
  C   C678      1.0  0.07326  0.61737  0.22021  1.0000
  C   C679      1.0  0.08093  0.61415  0.19581  1.0000
  C   C680      1.0  0.08000  0.59871  0.19491  1.0000
  H   H544      1.0  0.05682  0.58022  0.26066  1.0000
  H   H545      1.0  0.05877  0.60748  0.26262  1.0000
  H   H546      1.0  0.08763  0.62355  0.17768  1.0000
  H   H547      1.0  0.08607  0.59632  0.17603  1.0000
  C   C681      1.0  0.99313  0.50383  0.28967  1.0000
  C   C682      1.0  0.04711  0.58841  0.13158  1.0000
  C   C683      1.0  0.05739  0.56703  0.15054  1.0000
  C   C684      1.0  0.15007  0.55980  0.36151  1.0000
  H   H548      1.0  0.09147  0.52587  0.33981  1.0000
  H   H549      1.0  0.99773  0.80473  0.08256  1.0000
  H   H550      1.0  0.02725  0.83279  0.21357  1.0000
  H   H551      1.0  0.06723  0.50868  0.22184  1.0000
  C   C685      1.0  0.01511  0.66059  0.10994  1.0000
  C   C686      1.0  0.99124  0.72829  0.12237  1.0000
  C   C687      1.0  0.15944  0.73200  0.18328  1.0000
  C   C688      1.0  0.14714  0.73854  0.19050  1.0000
  C   C689      1.0  0.13258  0.73203  0.18706  1.0000
  C   C690      1.0  0.13013  0.71882  0.17671  1.0000
  C   C691      1.0  0.14236  0.71211  0.16994  1.0000
  C   C692      1.0  0.15698  0.71875  0.17300  1.0000
  H   H552      1.0  0.14887  0.74870  0.19849  1.0000
  H   H553      1.0  0.12317  0.73725  0.19250  1.0000
  H   H554      1.0  0.14055  0.70184  0.16232  1.0000
  H   H555      1.0  0.16640  0.71355  0.16750  1.0000
  C   C693      1.0  0.15354  0.81162  0.24110  1.0000
  C   C694      1.0  0.15106  0.80359  0.26935  1.0000
  C   C695      1.0  0.14134  0.80750  0.29086  1.0000
  C   C696      1.0  0.13451  0.81982  0.28445  1.0000
  C   C697      1.0  0.13654  0.82747  0.25612  1.0000
  C   C698      1.0  0.14586  0.82321  0.23452  1.0000
  H   H556      1.0  0.15671  0.79445  0.27465  1.0000
  H   H557      1.0  0.13943  0.80120  0.31266  1.0000
  H   H558      1.0  0.13108  0.83674  0.25085  1.0000
  H   H559      1.0  0.00905  0.72233  0.05914  1.0000
  C   C699      1.0  0.15524  0.90349  0.31335  1.0000
  C   C700      1.0  0.06312  0.56718  0.42777  1.0000
  C   C701      1.0  0.99320  0.70636  0.18063  1.0000
  P   P22       1.0  0.16957  0.71392  0.06913  1.0000
  H   H560      1.0  0.07083  0.57531  0.40868  1.0000
  H   H561      1.0  0.17533  0.67514  0.41919  1.0000
  C   C702      1.0  0.10131  0.49039  0.08663  1.0000
  H   H562      1.0  0.98617  0.70959  0.10274  1.0000
  C   C703      1.0  0.05239  0.55446  0.42582  1.0000
  C   C704      1.0  0.02006  0.51721  0.40330  1.0000
  C   C705      1.0  0.10669  0.93521  0.32101  1.0000
  C   C706      1.0  0.12952  0.72663  0.09321  1.0000
  C   C707      1.0  0.12209  0.72436  0.07214  1.0000
  C   C708      1.0  0.13702  0.91653  0.38700  1.0000
  H   H563      1.0  0.14400  0.66829  0.15073  1.0000
  C   C709      1.0  0.05036  0.55816  0.13494  1.0000
  H   H564      1.0  0.12405  0.73062  0.11068  1.0000
  H   H565      1.0  0.11085  0.72661  0.07323  1.0000
  C   C710      1.0  0.14822  0.91338  0.40122  1.0000
  S   S107      1.0  0.98338  0.80448  0.19777  1.0000
  C   C711      1.0  0.12518  0.85004  0.17791  1.0000
  C   C712      1.0  0.11635  0.85995  0.18605  1.0000
  C   C713      1.0  0.10168  0.85375  0.20452  1.0000
  C   C714      1.0  0.09595  0.83772  0.21526  1.0000
  C   C715      1.0  0.10456  0.82765  0.20675  1.0000
  C   C716      1.0  0.11930  0.83394  0.18806  1.0000
  P   P23       1.0  0.09620  0.80692  0.21860  1.0000
  C   C717      1.0  0.11115  0.79680  0.21277  1.0000
  C   C718      1.0  0.08688  0.80167  0.25594  1.0000
  C   C719      1.0  0.09331  0.80937  0.27392  1.0000
  C   C720      1.0  0.08631  0.80508  0.30294  1.0000
  C   C721      1.0  0.07275  0.79322  0.31420  1.0000
  C   C722      1.0  0.06628  0.78549  0.29646  1.0000
  C   C723      1.0  0.07337  0.78961  0.26745  1.0000
  C   C724      1.0  0.11709  0.79529  0.18556  1.0000
  C   C725      1.0  0.12868  0.78753  0.18084  1.0000
  C   C726      1.0  0.13445  0.78126  0.20319  1.0000
  C   C727      1.0  0.12862  0.78272  0.23026  1.0000
  C   C728      1.0  0.11709  0.79054  0.23507  1.0000
  C   C729      1.0  0.08198  0.80151  0.19971  1.0000
  C   C730      1.0  0.07269  0.81138  0.19220  1.0000
  C   C731      1.0  0.06147  0.80699  0.17829  1.0000
  C   C732      1.0  0.05937  0.79273  0.17174  1.0000
  C   C733      1.0  0.06834  0.78267  0.17956  1.0000
  C   C734      1.0  0.07950  0.78697  0.19371  1.0000
  H   H566      1.0  0.13655  0.85481  0.16359  1.0000
  H   H567      1.0  0.12084  0.87240  0.17827  1.0000
  H   H568      1.0  0.09472  0.86129  0.21103  1.0000
  H   H569      1.0  0.08471  0.83321  0.23009  1.0000
  H   H570      1.0  0.12633  0.82653  0.18138  1.0000
  H   H571      1.0  0.10379  0.81861  0.26563  1.0000
  H   H572      1.0  0.09145  0.81096  0.31671  1.0000
  H   H573      1.0  0.06726  0.79008  0.33666  1.0000
  H   H574      1.0  0.05569  0.77638  0.30514  1.0000
  H   H575      1.0  0.06815  0.78349  0.25409  1.0000
  H   H576      1.0  0.11285  0.80024  0.16797  1.0000
  H   H577      1.0  0.13333  0.78648  0.15983  1.0000
  H   H578      1.0  0.13341  0.77821  0.24739  1.0000
  H   H579      1.0  0.11311  0.79184  0.25611  1.0000
  H   H580      1.0  0.07368  0.82231  0.19757  1.0000
  H   H581      1.0  0.05404  0.81449  0.17332  1.0000
  H   H582      1.0  0.05054  0.78940  0.16116  1.0000
  H   H583      1.0  0.06647  0.77146  0.17502  1.0000
  H   H584      1.0  0.08602  0.77883  0.20029  1.0000
  C   C735      1.0  0.12545  0.50324  0.43472  1.0000
  P   P24       1.0  0.12044  0.51914  0.41315  1.0000
  C   C736      1.0  0.10945  0.52831  0.43577  1.0000
  H   H585      1.0  0.15122  0.52982  0.47292  1.0000
  C   C737      1.0  0.09208  0.87424  0.46100  1.0000
  H   H586      1.0  0.13674  0.88768  0.38315  1.0000
  C   C738      1.0  0.09345  0.52589  0.43970  1.0000
  C   C739      1.0  0.08514  0.53299  0.45753  1.0000
  S   S108      1.0  0.98793  0.76947  0.21443  1.0000
  C   C740      1.0  0.06418  0.56921  0.45425  1.0000
  C   C741      1.0  0.02515  0.75743  0.01133  1.0000
  C   C742      1.0  0.10906  0.51230  0.39038  1.0000
  C   C743      1.0  0.16005  0.49953  0.14334  1.0000
  C   C744      1.0  0.13967  0.98661  0.07623  1.0000
  C   C745      1.0  0.04378  0.54576  0.47697  1.0000
  C   C746      1.0  0.98988  0.78658  0.97987  1.0000
  C   C747      1.0  0.10438  0.52285  0.37118  1.0000
  H   H587      1.0  0.01318  0.50995  0.36837  1.0000
  H   H588      1.0  0.12583  0.55110  0.37888  1.0000
  C   C748      1.0  0.01556  0.51946  0.37798  1.0000
  H   H589      1.0  0.08736  0.51876  0.42875  1.0000
  C   C749      1.0  0.02907  0.52327  0.19484  1.0000
  Fe  Fe52      1.0  0.00354  0.79393  0.19982  1.0000
  H   H590      1.0  0.14594  0.87276  0.26200  1.0000
  H   H591      1.0  0.11941  0.49320  0.30590  1.0000
  C   C750      1.0  0.11694  0.53774  0.45025  1.0000
  H   H592      1.0  0.12733  0.90627  0.46929  1.0000
  C   C751      1.0  0.04178  0.56437  0.11750  1.0000
  C   C752      1.0  0.01167  0.53588  0.21894  1.0000
  H   H593      1.0  0.14562  0.69358  0.11929  1.0000
  H   H594      1.0  0.99349  0.79136  0.99624  1.0000
  C   C753      1.0  0.02161  0.54412  0.40246  1.0000
  C   C754      1.0  0.14740  0.53417  0.10045  1.0000
  C   C755      1.0  0.14061  0.52283  0.08851  1.0000
  C   C756      1.0  0.14998  0.51821  0.06766  1.0000
  P   P25       1.0  0.12039  0.51313  0.10223  1.0000
  H   H595      1.0  0.16916  0.49732  0.10197  1.0000
  C   C757      1.0  0.10879  0.52643  0.10885  1.0000
  C   C758      1.0  0.11424  0.54234  0.09522  1.0000
  C   C759      1.0  0.10515  0.55252  0.10063  1.0000
  C   C760      1.0  0.09045  0.54686  0.11921  1.0000
  C   C761      1.0  0.08470  0.53096  0.13194  1.0000
  C   C762      1.0  0.09376  0.52076  0.12649  1.0000
  C   C763      1.0  0.15085  0.49576  0.33298  1.0000
  C   C764      1.0  0.05194  0.85040  0.43446  1.0000
  C   C765      1.0  0.11910  0.49856  0.13384  1.0000
  H   H596      1.0  0.14714  0.66855  0.31575  1.0000
  C   C766      1.0  0.14343  0.65707  0.31288  1.0000
  C   C767      1.0  0.11278  0.50442  0.07717  1.0000
  H   H597      1.0  0.05155  0.54647  0.13653  1.0000
  H   H598      1.0  0.15722  0.62374  0.20474  1.0000
  H   H599      1.0  0.00328  0.72846  0.11900  1.0000
  H   H600      1.0  0.11007  0.51088  0.16341  1.0000
  C   C768      1.0  0.11753  0.51210  0.04819  1.0000
  C   C769      1.0  0.00981  0.73334  0.04475  1.0000
  H   H601      1.0  0.14051  0.53743  0.11743  1.0000
  H   H602      1.0  0.14519  0.50907  0.05890  1.0000
  H   H603      1.0  0.12546  0.54692  0.08028  1.0000
  H   H604      1.0  0.10951  0.56482  0.09040  1.0000
  H   H605      1.0  0.08353  0.55481  0.12363  1.0000
  H   H606      1.0  0.07324  0.52652  0.14609  1.0000
  H   H607      1.0  0.08910  0.50842  0.13615  1.0000
  S   S109      1.0  0.17807  0.74017  0.18629  1.0000
  C   C770      1.0  0.16584  0.54305  0.37643  1.0000
  C   C771      1.0  0.16316  0.54144  0.09039  1.0000
  C   C772      1.0  0.99504  0.81429  0.06931  1.0000
  Fe  Fe53      1.0  0.99112  0.77023  0.16827  1.0000
  C   C773      1.0  0.10605  0.87070  0.46302  1.0000
  C   C774      1.0  0.16570  0.52554  0.05754  1.0000
  H   H608      1.0  0.07190  0.98711  0.04106  1.0000
  H   H609      1.0  0.12614  0.52309  0.04042  1.0000
  C   C775      1.0  0.10400  0.49636  0.39270  1.0000
  H   H610      1.0  0.05058  0.51768  0.40610  1.0000
  H   H611      1.0  0.00272  0.80787  0.03071  1.0000
  C   C776      1.0  0.06958  0.49769  0.22057  1.0000
  C   C777      1.0  0.98862  0.83925  0.03432  1.0000
  Fe  Fe54      1.0  0.12020  0.98608  0.98921  1.0000
  H   H612      1.0  0.08332  0.49788  0.34319  1.0000
  H   H613      1.0  0.16494  0.69281  0.03347  1.0000
  C   C778      1.0  0.05835  0.49094  0.45587  1.0000
  H   H614      1.0  0.16674  0.51051  0.47832  1.0000
  H   H615      1.0  0.02365  0.55374  0.41186  1.0000
  C   C779      1.0  0.17796  0.67261  0.10351  1.0000
  C   C780      1.0  0.04028  0.51235  0.45111  1.0000
  H   H616      1.0  0.14733  0.97555  0.16901  1.0000
  H   H617      1.0  0.11558  0.51111  0.00640  1.0000
  C   C781      1.0  0.15391  0.67366  0.13283  1.0000
  C   C782      1.0  0.00429  0.61741  0.09426  1.0000
  H   H618      1.0  0.16119  0.65854  0.01003  1.0000
  C   C783      1.0  0.13394  0.49422  0.42180  1.0000
  H   H619      1.0  0.00737  0.49662  0.47652  1.0000
  C   C784      1.0  0.16136  0.73257  0.47495  1.0000
  C   C785      1.0  0.15878  0.70654  0.36658  1.0000
  C   C786      1.0  0.14912  0.69244  0.38404  1.0000
  C   C787      1.0  0.15288  0.67854  0.38200  1.0000
  H   H620      1.0  0.17116  0.49829  0.27907  1.0000
  C   C788      1.0  0.99413  0.68061  0.15906  1.0000
  C   C789      1.0  0.04989  0.51065  0.42687  1.0000
  C   C790      1.0  0.04614  0.49422  0.14278  1.0000
  C   C791      1.0  0.10860  0.54473  0.46816  1.0000
  C   C792      1.0  0.17334  0.85574  0.21457  1.0000
  Fe  Fe55      1.0  0.98688  0.80272  0.15257  1.0000
  C   C793      1.0  0.14790  0.64467  0.32770  1.0000
  H   H621      1.0  0.04077  0.52290  0.18604  1.0000
  H   H622      1.0  0.10453  0.94629  0.31262  1.0000
  C   C794      1.0  0.01654  0.51122  0.19594  1.0000
  C   C795      1.0  0.15238  0.51083  0.33648  1.0000
  C   C796      1.0  0.16619  0.67871  0.36231  1.0000
  C   C797      1.0  0.98539  0.83719  0.06388  1.0000
  H   H623      1.0  0.05903  0.91631  0.98250  1.0000
  H   H624      1.0  0.14339  0.53108  0.33153  1.0000
  C   C798      1.0  0.01172  0.76191  0.00830  1.0000
  H   H625      1.0  0.13881  0.69231  0.39929  1.0000
  H   H626      1.0  0.14566  0.66759  0.39598  1.0000
  H   H627      1.0  0.03458  0.73969  0.03197  1.0000
  H   H628      1.0  0.05217  0.55279  0.40509  1.0000
  C   C799      1.0  0.11893  0.91254  0.43243  1.0000
  S   S110      1.0  0.99771  0.75103  0.14961  1.0000
  C   C800      1.0  0.15170  0.86726  0.22208  1.0000
  H   H629      1.0  0.16899  0.66780  0.36177  1.0000
  H   H630      1.0  0.14453  0.62633  0.16520  1.0000
  C   C801      1.0  0.14531  0.67282  0.00598  1.0000
  P   P26       1.0  0.14116  0.91948  0.34899  1.0000
  C   C802      1.0  0.04019  0.57946  0.11572  1.0000
  H   H631      1.0  0.04096  0.61451  0.07269  1.0000
  C   C803      1.0  0.01471  0.61054  0.13454  1.0000
  H   H632      1.0  0.14925  0.72498  0.10908  1.0000
  C   C804      1.0  0.09046  0.50183  0.35640  1.0000
  C   C805      1.0  0.12068  0.93465  0.32770  1.0000
  H   H633      1.0  0.03343  0.58400  0.10222  1.0000
  C   C806      1.0  0.04243  0.54380  0.45041  1.0000
  S   S111      1.0  0.99605  0.65052  0.11242  1.0000
  H   H634      1.0  0.12925  0.53972  0.44768  1.0000
  C   C807      1.0  0.09487  0.49120  0.37560  1.0000
  H   H635      1.0  0.14556  0.86535  0.37277  1.0000
  H   H636      1.0  0.16170  0.51626  0.34409  1.0000
  C   C808      1.0  0.98846  0.82463  0.08161  1.0000
  H   H637      1.0  0.03627  0.55747  0.10546  1.0000
  C   C809      1.0  0.11298  0.48923  0.18505  1.0000
  C   C810      1.0  0.06975  0.49294  0.19565  1.0000
  H   H638      1.0  0.03633  0.54466  0.20601  1.0000
  H   H639      1.0  0.00869  0.49619  0.13082  1.0000
  H   H640      1.0  0.15602  0.71740  0.36809  1.0000
  H   H641      1.0  0.14630  0.62021  0.33597  1.0000
  H   H642      1.0  0.06398  0.56224  0.16423  1.0000
  H   H643      1.0  0.17788  0.69378  0.98464  1.0000
  C   C811      1.0  0.09824  0.90723  0.33633  1.0000
  H   H644      1.0  0.02998  0.58625  0.18645  1.0000
  C   C812      1.0  0.14725  0.89157  0.12634  1.0000
  C   C813      1.0  0.15628  0.89174  0.14569  1.0000
  C   C814      1.0  0.15384  0.90000  0.16600  1.0000
  C   C815      1.0  0.14249  0.90819  0.16682  1.0000
  C   C816      1.0  0.13342  0.90817  0.14739  1.0000
  C   C817      1.0  0.13583  0.89973  0.12718  1.0000
  P   P27       1.0  0.11885  0.91893  0.14898  1.0000
  C   C818      1.0  0.11307  0.92202  0.11616  1.0000
  C   C819      1.0  0.10207  0.90835  0.17758  1.0000
  C   C820      1.0  0.08751  0.91062  0.17617  1.0000
  C   C821      1.0  0.07437  0.90205  0.19768  1.0000
  C   C822      1.0  0.07570  0.89131  0.22091  1.0000
  C   C823      1.0  0.09018  0.88934  0.22284  1.0000
  C   C824      1.0  0.10334  0.89782  0.20138  1.0000
  C   C825      1.0  0.11813  0.93651  0.09604  1.0000
  C   C826      1.0  0.11335  0.93863  0.07102  1.0000
  C   C827      1.0  0.10341  0.92641  0.06590  1.0000
  C   C828      1.0  0.09826  0.91199  0.08580  1.0000
  C   C829      1.0  0.10306  0.90978  0.11082  1.0000
  C   C830      1.0  0.12744  0.93717  0.15490  1.0000
  C   C831      1.0  0.14218  0.94573  0.13826  1.0000
  C   C832      1.0  0.14924  0.95960  0.14317  1.0000
  C   C833      1.0  0.14170  0.96495  0.16487  1.0000
  C   C834      1.0  0.12711  0.95642  0.18175  1.0000
  C   C835      1.0  0.11997  0.94256  0.17684  1.0000
  H   H645      1.0  0.01275  0.77312  0.99448  1.0000
  C   C836      1.0  0.14625  0.62670  0.20747  1.0000
  H   H646      1.0  0.16073  0.90013  0.18121  1.0000
  H   H647      1.0  0.14075  0.91453  0.18273  1.0000
  H   H648      1.0  0.12908  0.89951  0.11186  1.0000
  H   H649      1.0  0.08625  0.91893  0.15838  1.0000
  H   H650      1.0  0.06312  0.90362  0.19630  1.0000
  H   H651      1.0  0.06553  0.88444  0.23746  1.0000
  H   H652      1.0  0.09114  0.88102  0.24088  1.0000
  H   H653      1.0  0.11437  0.89604  0.20363  1.0000
  H   H654      1.0  0.12567  0.94628  0.09942  1.0000
  H   H655      1.0  0.11730  0.94982  0.05555  1.0000
  H   H656      1.0  0.09967  0.92819  0.04651  1.0000
  H   H657      1.0  0.09048  0.90254  0.08185  1.0000
  H   H658      1.0  0.09892  0.89852  0.12606  1.0000
  H   H659      1.0  0.14825  0.94167  0.12151  1.0000
  C   C837      1.0  0.99784  0.49126  0.28214  1.0000
  H   H660      1.0  0.18061  0.85079  0.20113  1.0000
  H   H661      1.0  0.12157  0.96037  0.19918  1.0000
  H   H662      1.0  0.10880  0.93599  0.19052  1.0000
  H   H663      1.0  0.13033  0.97683  0.08913  1.0000
  H   H664      1.0  0.16690  0.86386  0.27861  1.0000
  C   C838      1.0  0.12492  0.63181  0.18876  1.0000
  H   H665      1.0  0.10829  0.49061  0.20583  1.0000
  S   S112      1.0  0.98342  0.82209  0.11891  1.0000
  C   C839      1.0  0.13919  0.62901  0.23330  1.0000
  C   C840      1.0  0.12495  0.63282  0.23694  1.0000
  C   C841      1.0  0.11782  0.63406  0.21454  1.0000
  P   P28       1.0  0.11546  0.63586  0.26997  1.0000
  C   C842      1.0  0.10044  0.61876  0.29052  1.0000
  C   C843      1.0  0.12880  0.63969  0.29137  1.0000
  C   C844      1.0  0.13344  0.62734  0.30630  1.0000
  C   C845      1.0  0.14299  0.62986  0.32423  1.0000
  C   C846      1.0  0.04354  0.85668  0.45362  1.0000
  C   C847      1.0  0.05580  0.58209  0.14886  1.0000
  C   C848      1.0  0.13389  0.65461  0.29485  1.0000
  C   C849      1.0  0.09468  0.61673  0.31968  1.0000
  C   C850      1.0  0.08341  0.60334  0.33608  1.0000
  C   C851      1.0  0.07776  0.59191  0.32350  1.0000
  C   C852      1.0  0.08342  0.59383  0.29453  1.0000
  C   C853      1.0  0.09464  0.60723  0.27801  1.0000
  C   C854      1.0  0.10761  0.65228  0.26040  1.0000
  C   C855      1.0  0.09186  0.65119  0.27024  1.0000
  C   C856      1.0  0.08587  0.66380  0.26130  1.0000
  C   C857      1.0  0.09556  0.67754  0.24261  1.0000
  C   C858      1.0  0.11124  0.67869  0.23282  1.0000
  C   C859      1.0  0.11721  0.66606  0.24131  1.0000
  H   H666      1.0  0.11937  0.63292  0.17151  1.0000
  C   C860      1.0  0.17995  0.50204  0.37077  1.0000
  H   H667      1.0  0.12238  0.51977  0.31199  1.0000
  H   H668      1.0  0.14488  0.62783  0.25023  1.0000
  H   H669      1.0  0.10670  0.63673  0.21702  1.0000
  H   H670      1.0  0.12940  0.61564  0.30462  1.0000
  H   H671      1.0  0.16055  0.86701  0.32470  1.0000
  H   H672      1.0  0.13031  0.66435  0.28430  1.0000
  H   H673      1.0  0.09902  0.62543  0.32981  1.0000
  H   H674      1.0  0.07923  0.60172  0.35863  1.0000
  H   H675      1.0  0.06922  0.58139  0.33623  1.0000
  H   H676      1.0  0.07923  0.58482  0.28491  1.0000
  H   H677      1.0  0.09870  0.60843  0.25559  1.0000
  H   H678      1.0  0.08405  0.64051  0.28395  1.0000
  H   H679      1.0  0.07364  0.66271  0.26826  1.0000
  H   H680      1.0  0.09094  0.68724  0.23520  1.0000
  H   H681      1.0  0.11869  0.68927  0.21806  1.0000
  H   H682      1.0  0.12931  0.66700  0.23273  1.0000
  H   H683      1.0  0.01944  0.62048  0.05344  1.0000
  C   C861      1.0  0.15850  0.94303  0.30094  1.0000
  H   H684      1.0  0.15496  0.64645  0.34223  1.0000
  C   C862      1.0  0.02661  0.53559  0.20619  1.0000
  H   H685      1.0  0.99267  0.71678  0.18743  1.0000
  H   H686      1.0  0.17966  0.71775  0.33400  1.0000
  C   C863      1.0  0.03022  0.61410  0.08709  1.0000
  H   H687      1.0  0.15332  0.90715  0.44172  1.0000
  H   H688      1.0  0.07286  0.53138  0.46001  1.0000
  P   P29       1.0  0.04496  0.60782  0.13012  1.0000
  C   C864      1.0  0.04154  0.61038  0.16546  1.0000
  C   C865      1.0  0.06204  0.62222  0.10755  1.0000
  C   C866      1.0  0.06093  0.63703  0.09429  1.0000
  C   C867      1.0  0.07405  0.64828  0.07700  1.0000
  C   C868      1.0  0.08842  0.64490  0.07290  1.0000
  C   C869      1.0  0.08969  0.63033  0.08637  1.0000
  C   C870      1.0  0.07657  0.61901  0.10366  1.0000
  C   C871      1.0  0.04608  0.62516  0.16956  1.0000
  C   C872      1.0  0.04281  0.62737  0.19669  1.0000
  C   C873      1.0  0.03527  0.61476  0.22006  1.0000
  C   C874      1.0  0.03078  0.59995  0.21624  1.0000
  C   C875      1.0  0.03373  0.59777  0.18901  1.0000
  C   C876      1.0  0.02870  0.61077  0.11640  1.0000
  H   H689      1.0  0.16061  0.96617  0.13024  1.0000
  H   H690      1.0  0.18094  0.66614  0.30165  1.0000
  H   H691      1.0  0.06751  0.51850  0.07931  1.0000
  H   H692      1.0  0.00981  0.54511  0.22870  1.0000
  C   C877      1.0  0.09273  0.54245  0.47170  1.0000
  H   H693      1.0  0.98406  0.65333  0.99683  1.0000
  H   H694      1.0  0.99453  0.67080  0.15020  1.0000
  C   C878      1.0  0.15632  0.49280  0.17246  1.0000
  H   H695      1.0  0.01321  0.60825  0.15716  1.0000
  H   H696      1.0  0.04998  0.64006  0.09769  1.0000
  H   H697      1.0  0.07314  0.65979  0.06745  1.0000
  H   H698      1.0  0.09864  0.65372  0.05995  1.0000
  H   H699      1.0  0.10097  0.62800  0.08390  1.0000
  H   H700      1.0  0.07791  0.60793  0.11424  1.0000
  H   H701      1.0  0.05225  0.63499  0.15188  1.0000
  H   H702      1.0  0.04663  0.63880  0.19969  1.0000
  H   H703      1.0  0.03333  0.61645  0.24115  1.0000
  C   C879      1.0  0.14204  0.51938  0.32918  1.0000
  H   H704      1.0  0.99894  0.72919  0.25904  1.0000
  H   H705      1.0  0.03633  0.76514  0.99981  1.0000
  C   C880      1.0  0.16458  0.55715  0.36088  1.0000
  C   C881      1.0  0.13786  0.53387  0.39249  1.0000
  C   C882      1.0  0.02419  0.74314  0.02949  1.0000
  H   H706      1.0  0.05342  0.85478  0.41190  1.0000
  C   C883      1.0  0.17216  0.70672  0.34710  1.0000
  H   H707      1.0  0.02957  0.49713  0.23469  1.0000
  C   C884      1.0  0.00758  0.73316  0.23898  1.0000
  C   C885      1.0  0.01575  0.74873  0.22913  1.0000
  C   C886      1.0  0.02697  0.75387  0.20340  1.0000
  C   C887      1.0  0.02999  0.74351  0.18727  1.0000
  C   C888      1.0  0.02134  0.72796  0.19639  1.0000
  C   C889      1.0  0.01048  0.72278  0.22285  1.0000
  P   P30       1.0  0.02494  0.71418  0.17619  1.0000
  C   C890      1.0  0.03546  0.70262  0.19459  1.0000
  C   C891      1.0  0.00724  0.70237  0.17346  1.0000
  C   C892      1.0  0.17936  0.71478  0.03334  1.0000
  S   S113      1.0  0.12637  0.98241  0.03249  1.0000
  S   S114      1.0  0.15982  0.50019  0.00906  1.0000
  C   C893      1.0  0.05731  0.83329  0.47323  1.0000
  C   C894      1.0  0.00764  0.68952  0.16229  1.0000
  C   C895      1.0  0.05099  0.70903  0.19278  1.0000
  C   C896      1.0  0.05929  0.70028  0.20712  1.0000
  C   C897      1.0  0.05209  0.68513  0.22353  1.0000
  C   C898      1.0  0.03657  0.67874  0.22572  1.0000
  C   C899      1.0  0.02823  0.68748  0.21147  1.0000
  C   C900      1.0  0.03601  0.72301  0.13997  1.0000
  C   C901      1.0  0.03333  0.73639  0.12417  1.0000
  C   C902      1.0  0.04133  0.74280  0.09573  1.0000
  C   C903      1.0  0.05197  0.73578  0.08273  1.0000
  C   C904      1.0  0.05447  0.72225  0.09812  1.0000
  C   C905      1.0  0.04645  0.71581  0.12655  1.0000
  H   H708      1.0  0.98906  0.88813  0.01552  1.0000
  H   H709      1.0  0.01339  0.75690  0.24135  1.0000
  H   H710      1.0  0.03318  0.76598  0.19597  1.0000
  H   H711      1.0  0.03897  0.74773  0.16774  1.0000
  H   H712      1.0  0.00412  0.71072  0.23085  1.0000
  H   H713      1.0  0.16623  0.89130  0.28621  1.0000
  H   H714      1.0  0.17177  0.79571  0.34408  1.0000
  H   H715      1.0  0.01083  0.53574  0.34503  1.0000
  C   C906      1.0  0.16961  0.95685  0.28631  1.0000
  H   H716      1.0  0.01841  0.68649  0.15568  1.0000
  H   H717      1.0  0.05675  0.72073  0.18004  1.0000
  H   H718      1.0  0.07140  0.70516  0.20505  1.0000
  H   H719      1.0  0.05862  0.67826  0.23416  1.0000
  H   H720      1.0  0.03105  0.66696  0.23832  1.0000
  H   H721      1.0  0.01619  0.68238  0.21367  1.0000
  H   H722      1.0  0.02491  0.74180  0.13372  1.0000
  H   H723      1.0  0.03914  0.75315  0.08381  1.0000
  H   H724      1.0  0.05819  0.74071  0.06071  1.0000
  H   H725      1.0  0.06250  0.71659  0.08800  1.0000
  H   H726      1.0  0.04831  0.70508  0.13774  1.0000
  C   C907      1.0  0.16157  0.86112  0.20500  1.0000
  Fe  Fe56      1.0  0.17131  0.58824  0.40679  1.0000
  S   S115      1.0  0.07170  0.49373  0.27562  1.0000
  H   H727      1.0  0.04789  0.53299  0.09073  1.0000
  C   C908      1.0  0.03457  0.81349  0.23436  1.0000
  C   C909      1.0  0.14354  0.88885  0.36208  1.0000
  C   C910      1.0  0.14714  0.90281  0.34083  1.0000
  C   C911      1.0  0.99791  0.81613  0.03983  1.0000
  H   H728      1.0  0.06732  0.50026  0.17806  1.0000
  H   H729      1.0  0.99204  0.61434  0.13736  1.0000
  P   P31       1.0  0.02937  0.52674  0.44805  1.0000
  H   H730      1.0  0.01661  0.67947  0.07464  1.0000
  Fe  Fe57      1.0  0.17862  0.78882  0.22401  1.0000
  C   C912      1.0  0.17095  0.83016  0.30256  1.0000
  H   H731      1.0  0.08937  0.89662  0.34049  1.0000
  H   H732      1.0  0.16835  0.95224  0.20109  1.0000
  C   C913      1.0  0.16546  0.86288  0.25816  1.0000
  S   S116      1.0  0.16881  0.64377  0.41383  1.0000
  C   C914      1.0  0.12886  0.71855  0.05037  1.0000
  H   H733      1.0  0.14916  0.88521  0.11051  1.0000
  C   C915      1.0  0.98533  0.73838  0.13669  1.0000
  H   H734      1.0  0.15766  0.51055  0.13543  1.0000
  S   S117      1.0  0.16509  0.60741  0.37872  1.0000
  H   H735      1.0  0.10749  0.53511  0.36941  1.0000
  C   C916      1.0  0.99470  0.82860  0.02215  1.0000
  S   S118      1.0  0.15336  0.97376  0.22541  1.0000
  C   C917      1.0  0.01714  0.54634  0.37710  1.0000
  C   C918      1.0  0.16016  0.89067  0.30756  1.0000
  H   H736      1.0  0.98415  0.90847  0.97952  1.0000
  H   H737      1.0  0.11491  0.50675  0.47506  1.0000
  C   C919      1.0  0.99915  0.52398  0.21998  1.0000
  H   H738      1.0  0.06598  0.49858  0.41026  1.0000
  H   H739      1.0  0.14368  0.77556  0.19946  1.0000
  C   C920      1.0  0.13913  0.62813  0.18521  1.0000
  C   C921      1.0  0.18135  0.49714  0.34576  1.0000
  H   H740      1.0  0.11415  0.89541  0.35134  1.0000
  C   C922      1.0  0.01420  0.53404  0.36479  1.0000
  C   C923      1.0  0.15259  0.53149  0.39228  1.0000
  C   C924      1.0  0.17679  0.74080  0.46344  1.0000
  C   C925      1.0  0.11233  0.90659  0.34250  1.0000
  C   C926      1.0  0.01191  0.52088  0.47635  1.0000
  H   H741      1.0  0.98759  0.52404  0.23041  1.0000
  C   C927      1.0  0.00258  0.61386  0.12345  1.0000
  C   C928      1.0  0.13681  0.54833  0.37753  1.0000
  H   H742      1.0  0.14801  0.71062  0.03243  1.0000
  H   H743      1.0  0.14238  0.87117  0.21503  1.0000
  C   C929      1.0  0.15365  0.86811  0.24866  1.0000
  H   H744      1.0  0.99506  0.62061  0.08576  1.0000
  C   C930      1.0  0.15485  0.68800  0.11481  1.0000
  H   H745      1.0  0.06119  0.58872  0.16138  1.0000
  C   C931      1.0  0.13012  0.90940  0.44635  1.0000
  C   C932      1.0  0.98283  0.77069  0.98536  1.0000
  H   H746      1.0  0.15797  0.76774  0.47757  1.0000
  H   H747      1.0  0.08458  0.92189  0.32037  1.0000
  C   C933      1.0  0.99637  0.73778  0.04181  1.0000
  H   H748      1.0  0.02520  0.59014  0.23442  1.0000
  H   H749      1.0  0.17145  0.96127  0.26366  1.0000
  H   H750      1.0  0.14910  0.57098  0.35032  1.0000
  C   C934      1.0  0.99721  0.75204  0.02333  1.0000
  H   H751      1.0  0.15174  0.93705  0.28929  1.0000
  C   C935      1.0  0.16443  0.94576  0.34485  1.0000
  S   S119      1.0  0.99800  0.83006  0.98527  1.0000
  H   H752      1.0  0.11101  0.58287  0.47740  1.0000
  C   C936      1.0  0.12856  0.49805  0.31467  1.0000
  H   H753      1.0  0.15988  0.86012  0.18465  1.0000
  H   H754      1.0  0.16521  0.88555  0.14487  1.0000
  H   H755      1.0  0.03834  0.86584  0.44590  1.0000
  C   C937      1.0  0.16537  0.66591  0.12705  1.0000
  H   H756      1.0  0.17484  0.71232  0.29217  1.0000
  S   S120      1.0  0.18101  0.75045  0.31236  1.0000
  S   S121      1.0  0.98385  0.68512  0.06190  1.0000
  C   C938      1.0  0.17909  0.68707  0.08574  1.0000
  H   H757      1.0  0.16343  0.83786  0.30139  1.0000
  C   C939      1.0  0.15083  0.71767  0.07028  1.0000
  C   C940      1.0  0.05885  0.83875  0.44424  1.0000
  C   C941      1.0  0.05776  0.50004  0.11751  1.0000
  C   C942      1.0  0.16645  0.81686  0.32524  1.0000
  C   C943      1.0  0.17816  0.96512  0.30088  1.0000
  C   C944      1.0  0.05844  0.51404  0.09882  1.0000
  H   H758      1.0  0.17716  0.54129  0.37670  1.0000
  C   C945      1.0  0.17537  0.85657  0.24133  1.0000
  C   C946      1.0  0.17550  0.80625  0.32698  1.0000
  H   H759      1.0  0.06628  0.49364  0.11255  1.0000
  H   H760      1.0  0.01599  0.55761  0.36687  1.0000
  H   H761      1.0  0.17405  0.72094  0.24295  1.0000
  C   C947      1.0  0.16660  0.49193  0.12436  1.0000
  H   H762      1.0  0.08546  0.87759  0.47814  1.0000
  H   H763      1.0  0.02725  0.52280  0.13538  1.0000
  C   C948      1.0  0.12150  0.50012  0.46439  1.0000
  C   C949      1.0  0.04020  0.50360  0.47787  1.0000
  P   P32       1.0  0.01996  0.49504  0.18236  1.0000
  H   H764      1.0  0.98533  0.73012  0.05425  1.0000
  C   C950      1.0  0.03510  0.50239  0.14971  1.0000
  H   H765      1.0  0.17528  0.74759  0.05600  1.0000
  H   H766      1.0  0.15104  0.49860  0.18711  1.0000
  H   H767      1.0  0.07257  0.57903  0.45569  1.0000
  C   C951      1.0  0.17586  0.69283  0.34445  1.0000
  H   H768      1.0  0.16246  0.94197  0.36753  1.0000
  H   H769      1.0  0.15718  0.62252  0.47006  1.0000
  H   H770      1.0  0.13710  0.49641  0.39896  1.0000
  H   H771      1.0  0.17837  0.55975  0.44360  1.0000
  H   H772      1.0  0.15355  0.73213  0.46139  1.0000
  S   S122      1.0  0.09551  0.98537  0.98782  1.0000
  H   H773      1.0  0.16905  0.49855  0.38660  1.0000
  C   C952      1.0  0.16743  0.69478  0.09105  1.0000
  C   C953      1.0  0.13888  0.48947  0.32189  1.0000
  H   H774      1.0  0.16830  0.55043  0.09920  1.0000
  H   H775      1.0  0.17486  0.56624  0.34914  1.0000
  H   H776      1.0  0.98581  0.75624  0.07609  1.0000
  C   C954      1.0  0.17228  0.53722  0.06876  1.0000
  H   H777      1.0  0.17270  0.52225  0.04070  1.0000
  H   H778      1.0  0.00923  0.49000  0.28286  1.0000
  C   C955      1.0  0.17452  0.70262  0.02144  1.0000
  H   H779      1.0  0.16435  0.65461  0.14059  1.0000
  H   H780      1.0  0.09184  0.97839  0.06246  1.0000
  C   C956      1.0  0.10014  0.49139  0.03841  1.0000
  C   C957      1.0  0.18011  0.72824  0.08293  1.0000
  C   C958      1.0  0.18055  0.74395  0.07291  1.0000
  C   C959      1.0  0.18174  0.71380  0.24822  1.0000
  H   H781      1.0  0.18100  0.74660  0.44102  1.0000
  C   C960      1.0  0.18187  0.70308  0.99381  1.0000
  H   H782      1.0  0.14113  0.64075  0.47722  1.0000
  C   C961      1.0  0.05454  0.55848  0.47884  1.0000
  C   C962      1.0  0.15620  0.70139  0.82858  1.0000
  H   H783      1.0  0.99172  0.71743  0.82299  1.0000
  C   C963      1.0  0.09140  0.53548  0.67576  1.0000
  H   H784      1.0  0.09118  0.62397  0.81860  1.0000
  H   H785      1.0  0.09301  0.53323  0.65508  1.0000
  S   S123      1.0  0.15656  0.75564  0.68032  1.0000
  C   C964      1.0  0.15605  0.72486  0.50381  1.0000
  Fe  Fe58      1.0  0.01907  0.52975  0.63542  1.0000
  S   S124      1.0  0.03862  0.52460  0.60671  1.0000
  H   H786      1.0  0.08332  0.50984  0.51448  1.0000
  Fe  Fe59      1.0  0.04191  0.55122  0.65830  1.0000
  S   S125      1.0  0.06276  0.54738  0.63120  1.0000
  S   S126      1.0  0.04308  0.56575  0.69039  1.0000
  Fe  Fe60      1.0  0.05048  0.54993  0.59687  1.0000
  S   S127      1.0  0.06276  0.56397  0.55189  1.0000
  Fe  Fe61      1.0  0.04949  0.52245  0.64337  1.0000
  S   S128      1.0  0.06284  0.50426  0.65056  1.0000
  S   S129      1.0  0.03023  0.55557  0.62293  1.0000
  S   S130      1.0  0.02927  0.52580  0.67317  1.0000
  C   C965      1.0  0.98258  0.73781  0.85365  1.0000
  C   C966      1.0  0.01339  0.69361  0.86695  1.0000
  Fe  Fe62      1.0  0.16816  0.51261  0.96264  1.0000
  C   C967      1.0  0.13601  0.98583  0.82176  1.0000
  Fe  Fe63      1.0  0.16745  0.51721  0.90042  1.0000
  S   S131      1.0  0.15591  0.51286  0.86535  1.0000
  H   H787      1.0  0.14869  0.62619  0.73981  1.0000
  S   S132      1.0  0.15607  0.52615  0.93573  1.0000
  Fe  Fe64      1.0  0.10346  0.63759  0.71610  1.0000
  S   S133      1.0  0.09260  0.63851  0.76024  1.0000
  S   S134      1.0  0.10025  0.61844  0.69299  1.0000
  Fe  Fe65      1.0  0.12621  0.66930  0.70335  1.0000
  S   S135      1.0  0.11717  0.67274  0.74597  1.0000
  S   S136      1.0  0.14678  0.68622  0.67072  1.0000
  Fe  Fe66      1.0  0.11674  0.64798  0.76335  1.0000
  S   S137      1.0  0.12283  0.64039  0.80518  1.0000
  Fe  Fe67      1.0  0.09383  0.66335  0.74001  1.0000
  S   S138      1.0  0.07646  0.67602  0.75567  1.0000
  S   S139      1.0  0.12758  0.64500  0.72100  1.0000
  S   S140      1.0  0.10294  0.66197  0.69551  1.0000
  C   C968      1.0  0.08631  0.54842  0.68025  1.0000
  Fe  Fe68      1.0  0.17178  0.67380  0.94326  1.0000
  C   C969      1.0  0.18025  0.71108  0.75925  1.0000
  C   C970      1.0  0.13790  0.82770  0.48961  1.0000
  C   C971      1.0  0.13001  0.76729  0.54756  1.0000
  S   S141      1.0  0.17106  0.65466  0.92105  1.0000
  H   H788      1.0  0.04820  0.61169  0.77058  1.0000
  Fe  Fe69      1.0  0.10888  0.87343  0.53958  1.0000
  S   S142      1.0  0.09497  0.85235  0.57471  1.0000
  Fe  Fe70      1.0  0.11977  0.89049  0.58343  1.0000
  S   S143      1.0  0.10673  0.87020  0.62045  1.0000
  S   S144      1.0  0.13387  0.91361  0.58730  1.0000
  Fe  Fe71      1.0  0.11533  0.85558  0.59316  1.0000
  S   S145      1.0  0.12123  0.83346  0.61152  1.0000
  Fe  Fe72      1.0  0.08742  0.86868  0.59901  1.0000
  S   S146      1.0  0.06362  0.86559  0.62761  1.0000
  S   S147      1.0  0.12985  0.87573  0.55733  1.0000
  S   S148      1.0  0.09987  0.88995  0.56282  1.0000
  S   S149      1.0  0.00531  0.80865  0.65259  1.0000
  H   H789      1.0  0.15493  0.61835  0.90146  1.0000
  S   S150      1.0  0.17657  0.95954  0.73438  1.0000
  H   H790      1.0  0.99664  0.71602  0.75777  1.0000
  C   C972      1.0  0.04417  0.63086  0.93241  1.0000
  C   C973      1.0  0.12676  0.49182  0.61755  1.0000
  C   C974      1.0  0.07829  0.83436  0.51884  1.0000
  H   H791      1.0  0.98326  0.87467  0.83398  1.0000
  Fe  Fe73      1.0  0.00031  0.85864  0.88628  1.0000
  S   S151      1.0  0.99817  0.88286  0.88626  1.0000
  S   S152      1.0  0.00452  0.85117  0.84446  1.0000
  H   H792      1.0  0.10490  0.66614  0.59615  1.0000
  C   C975      1.0  0.99809  0.71124  0.83529  1.0000
  Fe  Fe74      1.0  0.01389  0.88395  0.91579  1.0000
  S   S153      1.0  0.03314  0.90687  0.90675  1.0000
  S   S154      1.0  0.01767  0.86051  0.91261  1.0000
  C   C976      1.0  0.06677  0.93622  0.94634  1.0000
  C   C977      1.0  0.06506  0.94205  0.91920  1.0000
  C   C978      1.0  0.05480  0.93296  0.90765  1.0000
  C   C979      1.0  0.04587  0.91786  0.92293  1.0000
  C   C980      1.0  0.04758  0.91203  0.95007  1.0000
  C   C981      1.0  0.98943  0.71758  0.70132  1.0000
  H   H793      1.0  0.07161  0.95362  0.90713  1.0000
  H   H794      1.0  0.05368  0.93773  0.88670  1.0000
  C   C982      1.0  0.09956  0.51057  0.54015  1.0000
  H   H795      1.0  0.98798  0.53591  0.51842  1.0000
  C   C983      1.0  0.14224  0.86089  0.66897  1.0000
  C   C984      1.0  0.99940  0.83594  0.80355  1.0000
  H   H796      1.0  0.09146  0.51848  0.74280  1.0000
  C   C985      1.0  0.08877  0.50594  0.81619  1.0000
  H   H797      1.0  0.01052  0.84335  0.79119  1.0000
  C   C986      1.0  0.99243  0.72899  0.90659  1.0000
  C   C987      1.0  0.14572  0.73441  0.58470  1.0000
  H   H798      1.0  0.00299  0.70123  0.90184  1.0000
  C   C988      1.0  0.15941  0.72996  0.57654  1.0000
  C   C989      1.0  0.04797  0.84895  0.63625  1.0000
  C   C990      1.0  0.03393  0.84869  0.65431  1.0000
  C   C991      1.0  0.02094  0.83608  0.66064  1.0000
  C   C992      1.0  0.02188  0.82358  0.64890  1.0000
  C   C993      1.0  0.03609  0.82358  0.63170  1.0000
  C   C994      1.0  0.04908  0.83620  0.62536  1.0000
  H   H799      1.0  0.03299  0.85850  0.66285  1.0000
  H   H800      1.0  0.01006  0.83630  0.67371  1.0000
  H   H801      1.0  0.03699  0.81383  0.62301  1.0000
  H   H802      1.0  0.05983  0.83622  0.61152  1.0000
  C   C995      1.0  0.14081  0.92044  0.61462  1.0000
  C   C996      1.0  0.13916  0.91070  0.64134  1.0000
  C   C997      1.0  0.14522  0.91663  0.66186  1.0000
  C   C998      1.0  0.15302  0.93240  0.65615  1.0000
  C   C999      1.0  0.15449  0.94217  0.62958  1.0000
  C   C1000     1.0  0.14843  0.93623  0.60906  1.0000
  H   H803      1.0  0.13325  0.89858  0.64614  1.0000
  H   H804      1.0  0.14386  0.90892  0.68234  1.0000
  C   C1001     1.0  0.04966  0.52665  0.80502  1.0000
  C   C1002     1.0  0.02499  0.61174  0.92275  1.0000
  C   C1003     1.0  0.13860  0.65139  0.81396  1.0000
  C   C1004     1.0  0.13876  0.64935  0.84251  1.0000
  C   C1005     1.0  0.15164  0.65685  0.85022  1.0000
  C   C1006     1.0  0.16465  0.66631  0.82931  1.0000
  C   C1007     1.0  0.16434  0.66860  0.80079  1.0000
  C   C1008     1.0  0.15132  0.66138  0.79313  1.0000
  H   H805      1.0  0.12888  0.64193  0.85878  1.0000
  H   H806      1.0  0.15162  0.65505  0.87229  1.0000
  H   H807      1.0  0.17803  0.52141  0.55551  1.0000
  H   H808      1.0  0.15136  0.66310  0.77107  1.0000
  C   C1009     1.0  0.05692  0.66814  0.75840  1.0000
  C   C1010     1.0  0.05252  0.65894  0.74094  1.0000
  C   C1011     1.0  0.03685  0.65362  0.74229  1.0000
  C   C1012     1.0  0.02552  0.65700  0.76181  1.0000
  C   C1013     1.0  0.02992  0.66599  0.77962  1.0000
  C   C1014     1.0  0.04561  0.67173  0.77762  1.0000
  H   H809      1.0  0.06120  0.65621  0.72600  1.0000
  H   H810      1.0  0.03349  0.64665  0.72853  1.0000
  H   H811      1.0  0.02124  0.66862  0.79468  1.0000
  H   H812      1.0  0.04900  0.67888  0.79111  1.0000
  H   H813      1.0  0.07705  0.59787  0.54695  1.0000
  C   C1015     1.0  0.00429  0.70214  0.87959  1.0000
  H   H814      1.0  0.14977  0.94395  0.58858  1.0000
  C   C1016     1.0  0.13331  0.61939  0.54574  1.0000
  H   H815      1.0  0.18169  0.90335  0.82171  1.0000
  H   H816      1.0  0.02430  0.62081  0.77782  1.0000
  H   H817      1.0  0.18090  0.49437  0.85517  1.0000
  H   H818      1.0  0.10267  0.83673  0.51101  1.0000
  H   H819      1.0  0.10508  0.60362  0.81877  1.0000
  H   H820      1.0  0.16774  0.64256  0.75695  1.0000
  H   H821      1.0  0.13125  0.86298  0.66687  1.0000
  C   C1017     1.0  0.08289  0.56715  0.53924  1.0000
  C   C1018     1.0  0.08995  0.57497  0.51076  1.0000
  H   H822      1.0  0.13860  0.58110  0.90397  1.0000
  C   C1019     1.0  0.11477  0.57151  0.51675  1.0000
  C   C1020     1.0  0.10782  0.56405  0.54544  1.0000
  C   C1021     1.0  0.09194  0.56195  0.55669  1.0000
  H   H823      1.0  0.05730  0.94547  0.80694  1.0000
  H   H824      1.0  0.07881  0.56062  0.71039  1.0000
  H   H825      1.0  0.11466  0.55975  0.55897  1.0000
  H   H826      1.0  0.08672  0.55615  0.57874  1.0000
  C   C1022     1.0  0.15300  0.77996  0.50938  1.0000
  C   C1023     1.0  0.14529  0.74544  0.60025  1.0000
  H   H827      1.0  0.14401  0.71885  0.51240  1.0000
  H   H828      1.0  0.13459  0.74840  0.60772  1.0000
  C   C1024     1.0  0.06587  0.94883  0.81801  1.0000
  C   C1025     1.0  0.05894  0.58075  0.69019  1.0000
  C   C1026     1.0  0.05750  0.58849  0.71176  1.0000
  C   C1027     1.0  0.06986  0.60026  0.71269  1.0000
  C   C1028     1.0  0.08395  0.60424  0.69230  1.0000
  C   C1029     1.0  0.08542  0.59640  0.67088  1.0000
  C   C1030     1.0  0.07295  0.58493  0.66953  1.0000
  H   H829      1.0  0.04673  0.58536  0.72787  1.0000
  H   H830      1.0  0.06856  0.60608  0.72940  1.0000
  H   H831      1.0  0.09626  0.59925  0.65510  1.0000
  H   H832      1.0  0.07421  0.57926  0.65259  1.0000
  C   C1031     1.0  0.99341  0.83731  0.83096  1.0000
  C   C1032     1.0  0.16713  0.74472  0.79572  1.0000
  H   H833      1.0  0.15778  0.60195  0.51070  1.0000
  H   H834      1.0  0.11109  0.66201  0.85090  1.0000
  C   C1033     1.0  0.13792  0.69097  0.55171  1.0000
  C   C1034     1.0  0.15430  0.73643  0.67726  1.0000
  C   C1035     1.0  0.13951  0.72633  0.68648  1.0000
  C   C1036     1.0  0.13719  0.71088  0.68499  1.0000
  C   C1037     1.0  0.14962  0.70553  0.67331  1.0000
  C   C1038     1.0  0.16441  0.71570  0.66340  1.0000
  C   C1039     1.0  0.16679  0.73107  0.66574  1.0000
  H   H835      1.0  0.12976  0.73049  0.69462  1.0000
  H   H836      1.0  0.12573  0.70318  0.69248  1.0000
  H   H837      1.0  0.17410  0.71164  0.65442  1.0000
  H   H838      1.0  0.17825  0.73875  0.65851  1.0000
  C   C1040     1.0  0.14011  0.83378  0.61391  1.0000
  C   C1041     1.0  0.15222  0.84713  0.60189  1.0000
  C   C1042     1.0  0.16727  0.84658  0.60320  1.0000
  C   C1043     1.0  0.17022  0.83268  0.61637  1.0000
  C   C1044     1.0  0.15808  0.81939  0.62839  1.0000
  C   C1045     1.0  0.14307  0.82001  0.62732  1.0000
  H   H839      1.0  0.15002  0.85782  0.59150  1.0000
  H   H840      1.0  0.03328  0.50510  0.49694  1.0000
  H   H841      1.0  0.16026  0.80866  0.63868  1.0000
  H   H842      1.0  0.13368  0.80978  0.63686  1.0000
  H   H843      1.0  0.06213  0.65665  0.82180  1.0000
  S   S155      1.0  0.16084  0.93905  0.68285  1.0000
  H   H844      1.0  0.99753  0.59769  0.68387  1.0000
  H   H845      1.0  0.99432  0.78050  0.57298  1.0000
  H   H846      1.0  0.09571  0.52432  0.59885  1.0000
  H   H847      1.0  0.99075  0.69442  0.71948  1.0000
  H   H848      1.0  0.98453  0.73934  0.68500  1.0000
  H   H849      1.0  0.01887  0.68633  0.87950  1.0000
  H   H850      1.0  0.17112  0.77841  0.54656  1.0000
  H   H851      1.0  0.00802  0.70258  0.80089  1.0000
  H   H852      1.0  0.10461  0.68513  0.82518  1.0000
  C   C1046     1.0  0.02940  0.84965  0.55753  1.0000
  S   S156      1.0  0.11373  0.87147  0.49318  1.0000
  H   H853      1.0  0.17269  0.74253  0.72727  1.0000
  H   H854      1.0  0.16310  0.78953  0.49917  1.0000
  C   C1047     1.0  0.08326  0.55080  0.70725  1.0000
  C   C1048     1.0  0.13748  0.49591  0.83986  1.0000
  C   C1049     1.0  0.13277  0.63077  0.52244  1.0000
  H   H855      1.0  0.11789  0.70453  0.87428  1.0000
  H   H856      1.0  0.05575  0.59393  0.89094  1.0000
  H   H857      1.0  0.05149  0.81041  0.57748  1.0000
  H   H858      1.0  0.05544  0.56001  0.49941  1.0000
  S   S157      1.0  0.00598  0.64967  0.76365  1.0000
  C   C1050     1.0  0.07734  0.96627  0.84265  1.0000
  H   H859      1.0  0.06973  0.57349  0.89081  1.0000
  C   C1051     1.0  0.16479  0.70950  0.75845  1.0000
  C   C1052     1.0  0.14897  0.52140  0.49311  1.0000
  C   C1053     1.0  0.05826  0.50332  0.70724  1.0000
  C   C1054     1.0  0.98334  0.70164  0.71314  1.0000
  H   H860      1.0  0.05183  0.51193  0.70344  1.0000
  H   H861      1.0  0.15818  0.76033  0.62012  1.0000
  H   H862      1.0  0.12581  0.98805  0.86318  1.0000
  H   H863      1.0  0.03895  0.87973  0.58623  1.0000
  C   C1055     1.0  0.17974  0.50021  0.58217  1.0000
  H   H864      1.0  0.00977  0.78666  0.52325  1.0000
  H   H865      1.0  0.00694  0.85139  0.73057  1.0000
  C   C1056     1.0  0.04902  0.83967  0.49266  1.0000
  C   C1057     1.0  0.10702  0.52952  0.81433  1.0000
  H   H866      1.0  0.13853  0.77450  0.65399  1.0000
  C   C1058     1.0  0.04037  0.87108  0.57474  1.0000
  Fe  Fe75      1.0  0.99702  0.85046  0.95049  1.0000
  H   H867      1.0  0.13756  0.50708  0.82701  1.0000
  H   H868      1.0  0.06560  0.64014  0.90072  1.0000
  C   C1059     1.0  0.07159  0.88534  0.79807  1.0000
  C   C1060     1.0  0.05718  0.88310  0.81651  1.0000
  C   C1061     1.0  0.04380  0.87839  0.80804  1.0000
  C   C1062     1.0  0.04476  0.87602  0.78108  1.0000
  C   C1063     1.0  0.05921  0.87841  0.76225  1.0000
  C   C1064     1.0  0.07262  0.88293  0.77112  1.0000
  P   P33       1.0  0.06078  0.87550  0.72715  1.0000
  C   C1065     1.0  0.06459  0.85692  0.72620  1.0000
  C   C1066     1.0  0.04284  0.87529  0.71741  1.0000
  C   C1067     1.0  0.03037  0.86210  0.72915  1.0000
  C   C1068     1.0  0.01653  0.86158  0.72134  1.0000
  C   C1069     1.0  0.99116  0.71872  0.93270  1.0000
  C   C1070     1.0  0.02746  0.88729  0.68962  1.0000
  C   C1071     1.0  0.04131  0.88789  0.69752  1.0000
  C   C1072     1.0  0.06158  0.85033  0.70436  1.0000
  C   C1073     1.0  0.06434  0.83596  0.70321  1.0000
  C   C1074     1.0  0.06995  0.82789  0.72413  1.0000
  C   C1075     1.0  0.07286  0.83427  0.74615  1.0000
  C   C1076     1.0  0.07021  0.84875  0.74721  1.0000
  C   C1077     1.0  0.07609  0.89099  0.70190  1.0000
  C   C1078     1.0  0.08439  0.88859  0.67697  1.0000
  C   C1079     1.0  0.09641  0.90055  0.65796  1.0000
  C   C1080     1.0  0.10025  0.91497  0.66359  1.0000
  C   C1081     1.0  0.09186  0.91759  0.68798  1.0000
  C   C1082     1.0  0.07974  0.90572  0.70692  1.0000
  H   H869      1.0  0.08195  0.88896  0.80471  1.0000
  H   H870      1.0  0.05632  0.88496  0.83742  1.0000
  H   H871      1.0  0.03260  0.87654  0.82245  1.0000
  H   H872      1.0  0.03416  0.87240  0.77525  1.0000
  H   H873      1.0  0.08388  0.88468  0.75710  1.0000
  H   H874      1.0  0.03136  0.85220  0.74435  1.0000
  S   S158      1.0  0.99196  0.78872  0.73395  1.0000
  C   C1083     1.0  0.09376  0.52509  0.69829  1.0000
  H   H875      1.0  0.02639  0.89699  0.67407  1.0000
  H   H876      1.0  0.05078  0.89810  0.68782  1.0000
  H   H877      1.0  0.05713  0.85637  0.68805  1.0000
  H   H878      1.0  0.06206  0.83116  0.68601  1.0000
  H   H879      1.0  0.07203  0.81671  0.72328  1.0000
  H   H880      1.0  0.07719  0.82800  0.76240  1.0000
  H   H881      1.0  0.07250  0.85344  0.76446  1.0000
  H   H882      1.0  0.08162  0.87759  0.67188  1.0000
  H   H883      1.0  0.10280  0.89872  0.63871  1.0000
  H   H884      1.0  0.10969  0.92414  0.64888  1.0000
  H   H885      1.0  0.09478  0.92885  0.69213  1.0000
  H   H886      1.0  0.07325  0.90808  0.72547  1.0000
  P   P34       1.0  0.12205  0.61812  0.58069  1.0000
  C   C1084     1.0  0.10208  0.61557  0.57945  1.0000
  C   C1085     1.0  0.12226  0.60054  0.60523  1.0000
  C   C1086     1.0  0.13005  0.60100  0.62660  1.0000
  C   C1087     1.0  0.12910  0.58737  0.64664  1.0000
  C   C1088     1.0  0.12076  0.57314  0.64506  1.0000
  C   C1089     1.0  0.11362  0.57249  0.62305  1.0000
  C   C1090     1.0  0.11429  0.58610  0.60333  1.0000
  C   C1091     1.0  0.09132  0.61926  0.59964  1.0000
  C   C1092     1.0  0.07562  0.61521  0.60086  1.0000
  C   C1093     1.0  0.07049  0.60755  0.58183  1.0000
  C   C1094     1.0  0.08108  0.60408  0.56136  1.0000
  C   C1095     1.0  0.09678  0.60804  0.56014  1.0000
  C   C1096     1.0  0.12962  0.63491  0.59257  1.0000
  C   C1097     1.0  0.14248  0.64674  0.57521  1.0000
  C   C1098     1.0  0.14897  0.65899  0.58539  1.0000
  C   C1099     1.0  0.14273  0.65958  0.61293  1.0000
  C   C1100     1.0  0.13003  0.64789  0.63035  1.0000
  C   C1101     1.0  0.12359  0.63560  0.62031  1.0000
  H   H887      1.0  0.14304  0.60007  0.55883  1.0000
  H   H888      1.0  0.13670  0.61183  0.62822  1.0000
  H   H889      1.0  0.13470  0.58790  0.66361  1.0000
  H   H890      1.0  0.11987  0.56263  0.66085  1.0000
  H   H891      1.0  0.10739  0.56146  0.62132  1.0000
  H   H892      1.0  0.10849  0.58530  0.58671  1.0000
  H   H893      1.0  0.09476  0.62478  0.61516  1.0000
  H   H894      1.0  0.06735  0.61760  0.61714  1.0000
  H   H895      1.0  0.05828  0.60405  0.58325  1.0000
  H   H896      1.0  0.06264  0.82416  0.48038  1.0000
  H   H897      1.0  0.10462  0.60458  0.54478  1.0000
  H   H898      1.0  0.14781  0.64644  0.55404  1.0000
  H   H899      1.0  0.15893  0.66801  0.57202  1.0000
  H   H900      1.0  0.14774  0.66904  0.62091  1.0000
  H   H901      1.0  0.12532  0.64817  0.65191  1.0000
  H   H902      1.0  0.11432  0.62628  0.63474  1.0000
  C   C1102     1.0  0.04419  0.84783  0.54710  1.0000
  S   S159      1.0  0.14837  0.98232  0.76958  1.0000
  C   C1103     1.0  0.17284  0.73746  0.58238  1.0000
  C   C1104     1.0  0.15887  0.70054  0.74163  1.0000
  Fe  Fe76      1.0  0.16810  0.98098  0.73497  1.0000
  C   C1105     1.0  0.98328  0.62431  0.72882  1.0000
  P   P35       1.0  0.15317  0.71944  0.77827  1.0000
  C   C1106     1.0  0.16538  0.73855  0.77279  1.0000
  C   C1107     1.0  0.13611  0.72074  0.76612  1.0000
  C   C1108     1.0  0.13390  0.73513  0.75348  1.0000
  C   C1109     1.0  0.12016  0.73594  0.74595  1.0000
  C   C1110     1.0  0.10861  0.72240  0.75063  1.0000
  C   C1111     1.0  0.11074  0.70806  0.76314  1.0000
  C   C1112     1.0  0.12435  0.70723  0.77113  1.0000
  H   H903      1.0  0.14541  0.53998  0.88037  1.0000
  C   C1113     1.0  0.17359  0.70458  0.56896  1.0000
  H   H904      1.0  0.18152  0.59284  0.86005  1.0000
  C   C1114     1.0  0.13713  0.75523  0.50981  1.0000
  C   C1115     1.0  0.15011  0.76765  0.49705  1.0000
  H   H905      1.0  0.17103  0.50069  0.59996  1.0000
  H   H906      1.0  0.05580  0.50299  0.75117  1.0000
  C   C1116     1.0  0.06464  0.49752  0.68511  1.0000
  C   C1117     1.0  0.15773  0.51055  0.49615  1.0000
  H   H907      1.0  0.13803  0.49981  0.61213  1.0000
  H   H908      1.0  0.14718  0.69928  0.73990  1.0000
  C   C1118     1.0  0.09025  0.81961  0.55009  1.0000
  H   H909      1.0  0.14276  0.74576  0.74910  1.0000
  H   H910      1.0  0.11872  0.74706  0.73566  1.0000
  H   H911      1.0  0.09813  0.72294  0.74415  1.0000
  H   H912      1.0  0.10190  0.69754  0.76630  1.0000
  H   H913      1.0  0.12581  0.69603  0.78099  1.0000
  H   H914      1.0  0.18168  0.85319  0.67507  1.0000
  H   H915      1.0  0.08014  0.68226  0.81042  1.0000
  C   C1119     1.0  0.15003  0.62220  0.76091  1.0000
  S   S160      1.0  0.07974  0.94712  0.96225  1.0000
  C   C1120     1.0  0.14299  0.57573  0.88779  1.0000
  P   P36       1.0  0.16002  0.71492  0.55838  1.0000
  H   H916      1.0  0.11696  0.53525  0.82019  1.0000
  C   C1121     1.0  0.02508  0.52245  0.79320  1.0000
  H   H917      1.0  0.10820  0.62069  0.92743  1.0000
  C   C1122     1.0  0.99673  0.71124  0.86375  1.0000
  C   C1123     1.0  0.99733  0.72400  0.95325  1.0000
  H   H918      1.0  0.07490  0.80419  0.58864  1.0000
  H   H919      1.0  0.17879  0.76384  0.80887  1.0000
  H   H920      1.0  0.08309  0.57926  0.49726  1.0000
  C   C1124     1.0  0.12501  0.52779  0.61456  1.0000
  C   C1125     1.0  0.14189  0.70035  0.56937  1.0000
  S   S161      1.0  0.13447  0.57303  0.50266  1.0000
  C   C1126     1.0  0.08616  0.51302  0.53278  1.0000
  C   C1127     1.0  0.03028  0.81583  0.54393  1.0000
  H   H921      1.0  0.00455  0.77374  0.65610  1.0000
  H   H922      1.0  0.10682  0.50520  0.52764  1.0000
  H   H923      1.0  0.01929  0.84214  0.55509  1.0000
  H   H924      1.0  0.00073  0.75303  0.88202  1.0000
  C   C1128     1.0  0.04208  0.85137  0.48262  1.0000
  H   H925      1.0  0.99829  0.53798  0.68882  1.0000
  C   C1129     1.0  0.07638  0.51961  0.54906  1.0000
  C   C1130     1.0  0.06253  0.81588  0.56242  1.0000
  C   C1131     1.0  0.01508  0.87417  0.70155  1.0000
  C   C1132     1.0  0.16732  0.80082  0.54969  1.0000
  H   H926      1.0  0.14193  0.49180  0.56541  1.0000
  H   H927      1.0  0.00412  0.76652  0.79501  1.0000
  H   H928      1.0  0.99596  0.82422  0.77095  1.0000
  C   C1133     1.0  0.16821  0.69323  0.72616  1.0000
  S   S162      1.0  0.99023  0.74571  0.74521  1.0000
  H   H929      1.0  0.02140  0.62022  0.95996  1.0000
  P   P37       1.0  0.04675  0.83253  0.53023  1.0000
  H   H930      1.0  0.03662  0.53742  0.49630  1.0000
  H   H931      1.0  0.14542  0.69271  0.53094  1.0000
  H   H932      1.0  0.06489  0.61393  0.80305  1.0000
  C   C1134     1.0  0.14354  0.61659  0.89801  1.0000
  C   C1135     1.0  0.99118  0.82508  0.79200  1.0000
  C   C1136     1.0  0.02160  0.81204  0.57218  1.0000
  C   C1137     1.0  0.17390  0.74706  0.74529  1.0000
  H   H933      1.0  0.01269  0.51785  0.79952  1.0000
  H   H934      1.0  0.06864  0.85737  0.54129  1.0000
  C   C1138     1.0  0.05707  0.85821  0.54963  1.0000
  C   C1139     1.0  0.98269  0.65060  0.93023  1.0000
  C   C1140     1.0  0.99785  0.55668  0.70891  1.0000
  S   S163      1.0  0.98760  0.63940  0.90664  1.0000
  C   C1141     1.0  0.13754  0.52162  0.51623  1.0000
  H   H935      1.0  0.06508  0.87754  0.56583  1.0000
  H   H936      1.0  0.01348  0.60414  0.92872  1.0000
  C   C1142     1.0  0.12710  0.75504  0.53506  1.0000
  S   S164      1.0  0.12172  0.96963  0.96121  1.0000
  H   H937      1.0  0.00190  0.79677  0.60423  1.0000
  C   C1143     1.0  0.17314  0.59776  0.92748  1.0000
  C   C1144     1.0  0.09147  0.83061  0.52511  1.0000
  P   P38       1.0  0.14702  0.79567  0.55104  1.0000
  C   C1145     1.0  0.13580  0.78986  0.58745  1.0000
  C   C1146     1.0  0.14210  0.81245  0.53219  1.0000
  C   C1147     1.0  0.13902  0.82382  0.54592  1.0000
  C   C1148     1.0  0.13546  0.83699  0.53168  1.0000
  H   H938      1.0  0.15348  0.88508  0.65933  1.0000
  C   C1149     1.0  0.14367  0.50012  0.54547  1.0000
  H   H939      1.0  0.17434  0.67582  0.78454  1.0000
  C   C1150     1.0  0.12028  0.79033  0.59413  1.0000
  C   C1151     1.0  0.11140  0.78507  0.62222  1.0000
  C   C1152     1.0  0.11788  0.77910  0.64373  1.0000
  C   C1153     1.0  0.13336  0.77877  0.63726  1.0000
  C   C1154     1.0  0.14232  0.78433  0.60928  1.0000
  C   C1155     1.0  0.14299  0.77987  0.53481  1.0000
  C   C1156     1.0  0.12859  0.52857  0.58550  1.0000
  C   C1157     1.0  0.13637  0.98848  0.84834  1.0000
  C   C1158     1.0  0.06054  0.49826  0.73426  1.0000
  H   H940      1.0  0.16697  0.70038  0.81643  1.0000
  H   H941      1.0  0.01133  0.76223  0.91862  1.0000
  H   H942      1.0  0.13948  0.82255  0.56767  1.0000
  H   H943      1.0  0.13311  0.84569  0.54256  1.0000
  C   C1159     1.0  0.10343  0.51500  0.56356  1.0000
  H   H944      1.0  0.02786  0.51482  0.83517  1.0000
  C   C1160     1.0  0.05513  0.86979  0.56332  1.0000
  H   H945      1.0  0.11507  0.79480  0.57765  1.0000
  H   H946      1.0  0.09954  0.78578  0.62734  1.0000
  H   H947      1.0  0.11105  0.77505  0.66549  1.0000
  C   C1161     1.0  0.15806  0.84307  0.67792  1.0000
  C   C1162     1.0  0.99556  0.74708  0.83214  1.0000
  H   H948      1.0  0.10057  0.81720  0.55533  1.0000
  C   C1163     1.0  0.17295  0.69972  0.59779  1.0000
  H   H949      1.0  0.12210  0.76681  0.56716  1.0000
  P   P39       1.0  0.07802  0.54164  0.76578  1.0000
  C   C1164     1.0  0.08699  0.53077  0.78929  1.0000
  C   C1165     1.0  0.08149  0.51459  0.79916  1.0000
  C   C1166     1.0  0.99971  0.74476  0.90172  1.0000
  H   H950      1.0  0.09439  0.57816  0.85481  1.0000
  C   C1167     1.0  0.09984  0.53820  0.79703  1.0000
  C   C1168     1.0  0.04851  0.53597  0.75664  1.0000
  C   C1169     1.0  0.03252  0.53014  0.76495  1.0000
  C   C1170     1.0  0.08275  0.56173  0.76643  1.0000
  C   C1171     1.0  0.09631  0.57208  0.74816  1.0000
  C   C1172     1.0  0.09996  0.58762  0.74872  1.0000
  C   C1173     1.0  0.09019  0.59292  0.76759  1.0000
  C   C1174     1.0  0.07677  0.58266  0.78608  1.0000
  C   C1175     1.0  0.07305  0.56711  0.78553  1.0000
  H   H951      1.0  0.07175  0.50859  0.79315  1.0000
  C   C1176     1.0  0.00575  0.75005  0.92247  1.0000
  H   H952      1.0  0.10443  0.55063  0.78960  1.0000
  H   H953      1.0  0.05382  0.54195  0.73465  1.0000
  H   H954      1.0  0.02593  0.53163  0.74932  1.0000
  H   H955      1.0  0.10399  0.56821  0.73326  1.0000
  H   H956      1.0  0.11016  0.59570  0.73395  1.0000
  H   H957      1.0  0.09293  0.60504  0.76750  1.0000
  H   H958      1.0  0.06916  0.58680  0.80060  1.0000
  H   H959      1.0  0.06255  0.55936  0.79985  1.0000
  C   C1177     1.0  0.11708  0.61783  0.91306  1.0000
  C   C1178     1.0  0.14078  0.60802  0.77873  1.0000
  H   H960      1.0  0.11256  0.68166  0.62846  1.0000
  C   C1179     1.0  0.00731  0.70280  0.82265  1.0000
  C   C1180     1.0  0.07578  0.81231  0.56883  1.0000
  C   C1181     1.0  0.11940  0.68451  0.60676  1.0000
  C   C1182     1.0  0.14243  0.60299  0.80609  1.0000
  C   C1183     1.0  0.05728  0.53410  0.77653  1.0000
  H   H961      1.0  0.02188  0.68723  0.82880  1.0000
  H   H962      1.0  0.09298  0.63628  0.86345  1.0000
  C   C1184     1.0  0.15154  0.58478  0.86066  1.0000
  C   C1185     1.0  0.06632  0.96196  0.82829  1.0000
  C   C1186     1.0  0.14249  0.60906  0.54140  1.0000
  C   C1187     1.0  0.98516  0.71490  0.77024  1.0000
  H   H963      1.0  0.13222  0.60105  0.77142  1.0000
  H   H964      1.0  0.01202  0.54415  0.48007  1.0000
  C   C1188     1.0  0.13200  0.62015  0.91662  1.0000
  H   H965      1.0  0.03436  0.63583  0.84898  1.0000
  H   H966      1.0  0.13508  0.59204  0.81968  1.0000
  C   C1189     1.0  0.06649  0.59619  0.87511  1.0000
  H   H967      1.0  0.99820  0.50468  0.59540  1.0000
  H   H968      1.0  0.12565  0.63874  0.52532  1.0000
  H   H969      1.0  0.16748  0.82355  0.55658  1.0000
  C   C1190     1.0  0.15860  0.75237  0.60695  1.0000
  C   C1191     1.0  0.14144  0.63192  0.49526  1.0000
  H   H970      1.0  0.00150  0.72279  0.69881  1.0000
  H   H971      1.0  0.15438  0.78445  0.60475  1.0000
  S   S165      1.0  0.99285  0.52041  0.64134  1.0000
  H   H972      1.0  0.02177  0.77524  0.60997  1.0000
  H   H973      1.0  0.13625  0.70276  0.61230  1.0000
  C   C1192     1.0  0.17679  0.49772  0.67373  1.0000
  C   C1193     1.0  0.15162  0.69441  0.85771  1.0000
  C   C1194     1.0  0.07437  0.58454  0.87506  1.0000
  H   H974      1.0  0.16352  0.68626  0.71341  1.0000
  H   H975      1.0  0.02460  0.81898  0.58620  1.0000
  C   C1195     1.0  0.14145  0.81447  0.50386  1.0000
  C   C1196     1.0  0.08825  0.58715  0.85475  1.0000
  C   C1197     1.0  0.11368  0.61197  0.89080  1.0000
  H   H976      1.0  0.07218  0.52835  0.58583  1.0000
  C   C1198     1.0  0.16628  0.72504  0.52120  1.0000
  C   C1199     1.0  0.08496  0.54006  0.73026  1.0000
  C   C1200     1.0  0.15053  0.62162  0.49115  1.0000
  H   H977      1.0  0.04096  0.90050  0.96228  1.0000
  C   C1201     1.0  0.11602  0.49470  0.60195  1.0000
  C   C1202     1.0  0.15490  0.87339  0.66443  1.0000
  C   C1203     1.0  0.02600  0.80645  0.52646  1.0000
  P   P40       1.0  0.12080  0.51216  0.57317  1.0000
  C   C1204     1.0  0.15784  0.57748  0.84070  1.0000
  H   H978      1.0  0.10217  0.61035  0.88776  1.0000
  S   S166      1.0  0.18159  0.67535  0.83761  1.0000
  Fe  Fe77      1.0  0.09772  0.97043  0.95689  1.0000
  H   H979      1.0  0.13417  0.83607  0.67806  1.0000
  C   C1205     1.0  0.14063  0.55961  0.89470  1.0000
  C   C1206     1.0  0.12855  0.70361  0.86146  1.0000
  C   C1207     1.0  0.09424  0.60139  0.83446  1.0000
  C   C1208     1.0  0.09042  0.52725  0.72551  1.0000
  H   H980      1.0  0.09724  0.51477  0.69511  1.0000
  H   H981      1.0  0.15883  0.68814  0.86761  1.0000
  H   H982      1.0  0.01758  0.63291  0.81683  1.0000
  H   H983      1.0  0.10719  0.50664  0.83690  1.0000
  C   C1209     1.0  0.02945  0.62082  0.94035  1.0000
  C   C1210     1.0  0.17418  0.81532  0.55295  1.0000
  C   C1211     1.0  0.05792  0.92109  0.96153  1.0000
  H   H984      1.0  0.16039  0.95431  0.62470  1.0000
  Fe  Fe78      1.0  0.98606  0.79607  0.69271  1.0000
  H   H985      1.0  0.00440  0.87371  0.69532  1.0000
  H   H986      1.0  0.05606  0.52534  0.82092  1.0000
  C   C1212     1.0  0.00868  0.79938  0.58254  1.0000
  C   C1213     1.0  0.12445  0.67889  0.56114  1.0000
  H   H987      1.0  0.01512  0.62227  0.68248  1.0000
  H   H988      1.0  0.13098  0.53023  0.51345  1.0000
  C   C1214     1.0  0.15098  0.61014  0.51414  1.0000
  S   S167      1.0  0.15066  0.67865  0.96866  1.0000
  C   C1215     1.0  0.10152  0.51339  0.82381  1.0000
  C   C1216     1.0  0.12525  0.60855  0.87198  1.0000
  C   C1217     1.0  0.01505  0.69408  0.83841  1.0000
  C   C1218     1.0  0.00341  0.50529  0.48574  1.0000
  C   C1219     1.0  0.13129  0.54035  0.62412  1.0000
  C   C1220     1.0  0.14084  0.55395  0.60475  1.0000
  C   C1221     1.0  0.14392  0.55507  0.57581  1.0000
  C   C1222     1.0  0.13787  0.54245  0.56620  1.0000
  S   S168      1.0  0.99391  0.87381  0.95474  1.0000
  H   H989      1.0  0.13533  0.72910  0.57971  1.0000
  C   C1223     1.0  0.07989  0.52352  0.57289  1.0000
  C   C1224     1.0  0.09335  0.52127  0.58014  1.0000
  H   H990      1.0  0.04758  0.63797  0.94600  1.0000
  H   H991      1.0  0.03247  0.80896  0.50467  1.0000
  C   C1225     1.0  0.13501  0.83900  0.50347  1.0000
  H   H992      1.0  0.12862  0.53955  0.64658  1.0000
  C   C1226     1.0  0.00442  0.79023  0.56494  1.0000
  C   C1227     1.0  0.18158  0.73386  0.50966  1.0000
  H   H993      1.0  0.17665  0.85690  0.59386  1.0000
  H   H994      1.0  0.14029  0.54385  0.54365  1.0000
  H   H995      1.0  0.07770  0.97644  0.85066  1.0000
  C   C1228     1.0  0.00462  0.73967  0.94818  1.0000
  H   H996      1.0  0.00879  0.55666  0.71395  1.0000
  H   H997      1.0  0.03555  0.85643  0.49706  1.0000
  C   C1229     1.0  0.12012  0.91910  0.77313  1.0000
  C   C1230     1.0  0.12777  0.93336  0.75365  1.0000
  C   C1231     1.0  0.12700  0.94711  0.76120  1.0000
  C   C1232     1.0  0.11870  0.94666  0.78826  1.0000
  C   C1233     1.0  0.11119  0.93239  0.80814  1.0000
  C   C1234     1.0  0.11182  0.91858  0.80026  1.0000
  P   P41       1.0  0.10053  0.93219  0.84295  1.0000
  C   C1235     1.0  0.09070  0.91261  0.86378  1.0000
  C   C1236     1.0  0.11300  0.93977  0.86312  1.0000
  C   C1237     1.0  0.10663  0.93927  0.89142  1.0000
  C   C1238     1.0  0.11591  0.94545  0.90732  1.0000
  C   C1239     1.0  0.13166  0.95193  0.89526  1.0000
  C   C1240     1.0  0.13817  0.95206  0.86737  1.0000
  C   C1241     1.0  0.12889  0.94609  0.85123  1.0000
  C   C1242     1.0  0.07455  0.90766  0.87298  1.0000
  C   C1243     1.0  0.06733  0.89258  0.88979  1.0000
  C   C1244     1.0  0.07610  0.88240  0.89784  1.0000
  C   C1245     1.0  0.09217  0.88729  0.88914  1.0000
  C   C1246     1.0  0.09944  0.90236  0.87232  1.0000
  C   C1247     1.0  0.08718  0.94391  0.83742  1.0000
  C   C1248     1.0  0.07636  0.93992  0.82230  1.0000
  H   H998      1.0  0.11705  0.74539  0.54496  1.0000
  H   H999      1.0  0.12245  0.60425  0.85469  1.0000
  H   H1000     1.0  0.01606  0.86208  0.58055  1.0000
  C   C1249     1.0  0.08780  0.95734  0.84710  1.0000
  H   H1001     1.0  0.12071  0.90847  0.76711  1.0000
  H   H1002     1.0  0.13433  0.93381  0.73268  1.0000
  H   H1003     1.0  0.13299  0.95819  0.74613  1.0000
  H   H1004     1.0  0.11833  0.95748  0.79375  1.0000
  H   H1005     1.0  0.10592  0.90742  0.81484  1.0000
  H   H1006     1.0  0.09441  0.93439  0.90109  1.0000
  H   H1007     1.0  0.11078  0.94538  0.92890  1.0000
  H   H1008     1.0  0.13879  0.95712  0.90734  1.0000
  H   H1009     1.0  0.15034  0.95732  0.85792  1.0000
  H   H1010     1.0  0.13418  0.94673  0.82949  1.0000
  H   H1011     1.0  0.06739  0.91541  0.86807  1.0000
  H   H1012     1.0  0.05486  0.88891  0.89719  1.0000
  H   H1013     1.0  0.07041  0.87083  0.91130  1.0000
  H   H1014     1.0  0.09898  0.87950  0.89588  1.0000
  H   H1015     1.0  0.11191  0.90612  0.86618  1.0000
  H   H1016     1.0  0.07588  0.92977  0.81423  1.0000
  H   H1017     1.0  0.00672  0.74465  0.83103  1.0000
  C   C1250     1.0  0.18186  0.49267  0.64975  1.0000
  C   C1251     1.0  0.17244  0.74866  0.59746  1.0000
  H   H1018     1.0  0.09624  0.96099  0.85820  1.0000
  C   C1252     1.0  0.02669  0.81414  0.72715  1.0000
  C   C1253     1.0  0.02650  0.81166  0.75574  1.0000
  C   C1254     1.0  0.03203  0.79959  0.76874  1.0000
  C   C1255     1.0  0.03773  0.78996  0.75318  1.0000
  C   C1256     1.0  0.03754  0.79210  0.72463  1.0000
  C   C1257     1.0  0.03226  0.80444  0.71161  1.0000
  P   P42       1.0  0.04651  0.78084  0.70383  1.0000
  C   C1258     1.0  0.03878  0.77953  0.67381  1.0000
  C   C1259     1.0  0.06657  0.79110  0.69240  1.0000
  C   C1260     1.0  0.07142  0.80475  0.67023  1.0000
  C   C1261     1.0  0.08674  0.81339  0.66215  1.0000
  C   C1262     1.0  0.09733  0.80853  0.67616  1.0000
  C   C1263     1.0  0.09254  0.79511  0.69859  1.0000
  C   C1264     1.0  0.07715  0.78650  0.70695  1.0000
  C   C1265     1.0  0.04847  0.78002  0.64775  1.0000
  C   C1266     1.0  0.04236  0.77855  0.62476  1.0000
  C   C1267     1.0  0.02653  0.77632  0.62776  1.0000
  C   C1268     1.0  0.01680  0.77540  0.65380  1.0000
  C   C1269     1.0  0.02286  0.77692  0.67682  1.0000
  C   C1270     1.0  0.04290  0.76100  0.72392  1.0000
  C   C1271     1.0  0.02930  0.75409  0.74555  1.0000
  C   C1272     1.0  0.02612  0.73853  0.76036  1.0000
  C   C1273     1.0  0.03637  0.72964  0.75339  1.0000
  C   C1274     1.0  0.04976  0.73632  0.73138  1.0000
  C   C1275     1.0  0.05295  0.75191  0.71648  1.0000
  H   H1019     1.0  0.02248  0.82355  0.71700  1.0000
  H   H1020     1.0  0.02212  0.81913  0.76780  1.0000
  H   H1021     1.0  0.03199  0.79778  0.79086  1.0000
  H   H1022     1.0  0.04235  0.78092  0.76338  1.0000
  H   H1023     1.0  0.03248  0.80663  0.68943  1.0000
  H   H1024     1.0  0.06332  0.80889  0.65946  1.0000
  H   H1025     1.0  0.09038  0.82399  0.64514  1.0000
  H   H1026     1.0  0.10922  0.81528  0.66977  1.0000
  H   H1027     1.0  0.10074  0.79153  0.70970  1.0000
  H   H1028     1.0  0.07352  0.77645  0.72499  1.0000
  H   H1029     1.0  0.06070  0.78138  0.64519  1.0000
  H   H1030     1.0  0.04984  0.77903  0.60465  1.0000
  H   H1031     1.0  0.17229  0.90999  0.67992  1.0000
  C   C1276     1.0  0.17077  0.85556  0.67326  1.0000
  H   H1032     1.0  0.01510  0.77605  0.69691  1.0000
  H   H1033     1.0  0.02087  0.76057  0.75050  1.0000
  H   H1034     1.0  0.01545  0.73331  0.77671  1.0000
  H   H1035     1.0  0.03380  0.71751  0.76462  1.0000
  H   H1036     1.0  0.05751  0.72930  0.72560  1.0000
  H   H1037     1.0  0.06312  0.75678  0.69893  1.0000
  C   C1277     1.0  0.14030  0.61087  0.87535  1.0000
  C   C1278     1.0  0.02783  0.62858  0.81422  1.0000
  C   C1279     1.0  0.03162  0.62173  0.79219  1.0000
  C   C1280     1.0  0.04507  0.61660  0.78817  1.0000
  C   C1281     1.0  0.05454  0.61796  0.80662  1.0000
  C   C1282     1.0  0.05062  0.62451  0.82924  1.0000
  C   C1283     1.0  0.03739  0.63020  0.83240  1.0000
  P   P43       1.0  0.06240  0.62571  0.85399  1.0000
  C   C1284     1.0  0.07609  0.64446  0.84367  1.0000
  C   C1285     1.0  0.04990  0.62315  0.88858  1.0000
  C   C1286     1.0  0.05438  0.63205  0.90664  1.0000
  H   H1038     1.0  0.03145  0.60582  0.88353  1.0000
  C   C1287     1.0  0.03520  0.61279  0.89708  1.0000
  C   C1288     1.0  0.08997  0.64619  0.85191  1.0000
  C   C1289     1.0  0.10024  0.66081  0.84510  1.0000
  C   C1290     1.0  0.09665  0.67383  0.83039  1.0000
  C   C1291     1.0  0.08286  0.67222  0.82223  1.0000
  C   C1292     1.0  0.07264  0.65760  0.82870  1.0000
  C   C1293     1.0  0.07249  0.61057  0.85483  1.0000
  C   C1294     1.0  0.08637  0.61301  0.83447  1.0000
  C   C1295     1.0  0.16940  0.87085  0.66553  1.0000
  H   H1039     1.0  0.13472  0.62477  0.93379  1.0000
  S   S169      1.0  0.98825  0.66479  0.83090  1.0000
  C   C1296     1.0  0.14385  0.84573  0.67543  1.0000
  H   H1040     1.0  0.07965  0.84348  0.50004  1.0000
  H   H1041     1.0  0.16078  0.73837  0.81715  1.0000
  C   C1297     1.0  0.06366  0.82678  0.53713  1.0000
  C   C1298     1.0  0.13780  0.69545  0.87414  1.0000
  H   H1042     1.0  0.08425  0.55643  0.66304  1.0000
  P   P44       1.0  0.15497  0.60566  0.85170  1.0000
  C   C1299     1.0  0.13315  0.71074  0.83237  1.0000
  C   C1300     1.0  0.03365  0.52075  0.81325  1.0000
  C   C1301     1.0  0.18100  0.58602  0.92815  1.0000
  C   C1302     1.0  0.10580  0.57712  0.49952  1.0000
  H   H1043     1.0  0.00618  0.63928  0.71148  1.0000
  H   H1044     1.0  0.06600  0.52162  0.54345  1.0000
  C   C1303     1.0  0.02751  0.86108  0.57167  1.0000
  H   H1045     1.0  0.12598  0.71730  0.82309  1.0000
  C   C1304     1.0  0.98973  0.56732  0.71621  1.0000
  C   C1305     1.0  0.01312  0.79372  0.53695  1.0000
  H   H1046     1.0  0.99440  0.57527  0.72743  1.0000
  H   H1047     1.0  0.13438  0.69001  0.89673  1.0000
  H   H1048     1.0  0.11729  0.51755  0.62993  1.0000
  C   C1306     1.0  0.13483  0.51103  0.54274  1.0000
  C   C1307     1.0  0.14698  0.70957  0.81561  1.0000
  C   C1308     1.0  0.17623  0.79005  0.54716  1.0000
  C   C1309     1.0  0.13281  0.69663  0.59735  1.0000
  C   C1310     1.0  0.16246  0.62643  0.79789  1.0000
  H   H1049     1.0  0.16195  0.59577  0.92316  1.0000
  Fe  Fe79      1.0  0.17300  0.96218  0.69032  1.0000
  C   C1311     1.0  0.15338  0.61209  0.81587  1.0000
  C   C1312     1.0  0.98523  0.64699  0.95732  1.0000
  S   S170      1.0  0.16316  0.98275  0.69223  1.0000
  C   C1313     1.0  0.14687  0.55243  0.87471  1.0000
  H   H1050     1.0  0.13456  0.55273  0.91599  1.0000
  C   C1314     1.0  0.11515  0.67572  0.58860  1.0000
  H   H1051     1.0  0.08463  0.49340  0.82303  1.0000
  Fe  Fe80      1.0  0.98820  0.64836  0.80319  1.0000
  H   H1052     1.0  0.12144  0.67170  0.54743  1.0000
  H   H1053     1.0  0.17845  0.93019  0.81379  1.0000
  H   H1054     1.0  0.16458  0.70238  0.61345  1.0000
  H   H1055     1.0  0.17365  0.62109  0.93079  1.0000
  H   H1056     1.0  0.13482  0.74579  0.50008  1.0000
  H   H1057     1.0  0.00938  0.74374  0.96417  1.0000
  C   C1315     1.0  0.99226  0.79657  0.95311  1.0000
  H   H1058     1.0  0.99757  0.80884  0.94915  1.0000
  C   C1316     1.0  0.99195  0.54613  0.69479  1.0000
  C   C1317     1.0  0.99419  0.75951  0.81184  1.0000
  H   H1059     1.0  0.13239  0.84933  0.49239  1.0000
  C   C1318     1.0  0.98417  0.51180  0.51901  1.0000
  H   H1060     1.0  0.08634  0.54806  0.48537  1.0000
  H   H1061     1.0  0.05810  0.96877  0.82523  1.0000
  C   C1319     1.0  0.98967  0.50077  0.50718  1.0000
  H   H1062     1.0  0.15938  0.83133  0.68258  1.0000
  H   H1063     1.0  0.99640  0.71582  0.97313  1.0000
  S   S171      1.0  0.17767  0.50193  0.92871  1.0000
  C   C1320     1.0  0.99233  0.52739  0.50924  1.0000
  C   C1321     1.0  0.14558  0.49523  0.86093  1.0000
  C   C1322     1.0  0.16084  0.63138  0.77049  1.0000
  Fe  Fe81      1.0  0.17949  0.77342  0.66104  1.0000
  C   C1323     1.0  0.00343  0.61890  0.69575  1.0000
  H   H1064     1.0  0.14563  0.56374  0.61208  1.0000
  C   C1324     1.0  0.15548  0.56136  0.84774  1.0000
  H   H1065     1.0  0.98993  0.63724  0.96366  1.0000
  P   P45       1.0  0.98445  0.72189  0.88010  1.0000
  H   H1066     1.0  0.98539  0.70655  0.93727  1.0000
  H   H1067     1.0  0.15969  0.49257  0.71348  1.0000
  C   C1325     1.0  0.14958  0.98605  0.80241  1.0000
  C   C1326     1.0  0.99346  0.60488  0.69685  1.0000
  H   H1068     1.0  0.14371  0.80597  0.49259  1.0000
  H   H1069     1.0  0.16202  0.49165  0.52467  1.0000
  C   C1327     1.0  0.99839  0.62853  0.71194  1.0000
  H   H1070     1.0  0.15085  0.56579  0.56063  1.0000
  H   H1071     1.0  0.16486  0.58429  0.81994  1.0000
  C   C1328     1.0  0.17849  0.90993  0.71887  1.0000
  C   C1329     1.0  0.15505  0.49991  0.52229  1.0000
  H   H1072     1.0  0.98960  0.79864  0.91083  1.0000
  H   H1073     1.0  0.17221  0.88702  0.60875  1.0000
  H   H1074     1.0  0.16862  0.90806  0.57275  1.0000
  H   H1075     1.0  0.17955  0.93548  0.57071  1.0000
  C   C1330     1.0  0.98591  0.50249  0.60391  1.0000
  C   C1331     1.0  0.17403  0.61419  0.85453  1.0000
  S   S172      1.0  0.17251  0.56890  0.91975  1.0000
  C   C1332     1.0  0.17525  0.91082  0.58746  1.0000
  H   H1076     1.0  0.12512  0.98342  0.81629  1.0000
  C   C1333     1.0  0.17710  0.89894  0.60823  1.0000
  H   H1077     1.0  0.16063  0.55574  0.83261  1.0000
  C   C1334     1.0  0.98779  0.79081  0.93151  1.0000
  Fe  Fe82      1.0  0.17787  0.54533  0.92334  1.0000
  H   H1078     1.0  0.17066  0.63398  0.80485  1.0000
  C   C1335     1.0  0.00604  0.53197  0.48771  1.0000
  C   C1336     1.0  0.17737  0.75917  0.79114  1.0000
  H   H1079     1.0  0.17039  0.63711  0.85136  1.0000
  C   C1337     1.0  0.17976  0.61211  0.93172  1.0000
  C   C1338     1.0  0.17816  0.90477  0.69459  1.0000
  H   H1080     1.0  0.17312  0.91917  0.72240  1.0000
  C   C1339     1.0  0.17829  0.62993  0.85399  1.0000
  C   C1340     1.0  0.18142  0.92630  0.58628  1.0000
  C   C1341     1.0  0.04914  0.49287  0.48020  1.0000
  H   H1081     1.0  0.11451  0.55207  0.47908  1.0000
  H   H1082     1.0  0.22187  0.98908  0.04933  1.0000
  S   S173      1.0  0.19433  0.43111  0.25169  1.0000
  H   H1083     1.0  0.37612  0.46736  0.35552  1.0000
  Fe  Fe83      1.0  0.19945  0.40963  0.24117  1.0000
  S   S174      1.0  0.21998  0.40766  0.20942  1.0000
  S   S175      1.0  0.19277  0.39571  0.28663  1.0000
  C   C1342     1.0  0.21272  0.05758  0.21042  1.0000
  H   H1084     1.0  0.27323  0.32635  0.10444  1.0000
  H   H1085     1.0  0.29104  0.11106  0.47143  1.0000
  H   H1086     1.0  0.29840  0.26106  0.09625  1.0000
  H   H1087     1.0  0.23217  0.13786  0.41982  1.0000
  C   C1343     1.0  0.29262  0.15543  0.44708  1.0000
  S   S176      1.0  0.34722  0.18086  0.31089  1.0000
  H   H1088     1.0  0.24854  0.40670  0.17520  1.0000
  H   H1089     1.0  0.33058  0.10302  0.34066  1.0000
  C   C1344     1.0  0.36726  0.06651  0.99190  1.0000
  C   C1345     1.0  0.21975  0.43476  0.44116  1.0000
  Fe  Fe84      1.0  0.30628  0.44669  0.14610  1.0000
  S   S177      1.0  0.32088  0.43380  0.16809  1.0000
  S   S178      1.0  0.28641  0.45454  0.16889  1.0000
  Fe  Fe85      1.0  0.32605  0.44986  0.08794  1.0000
  S   S179      1.0  0.34216  0.43726  0.10517  1.0000
  C   C1346     1.0  0.21519  0.00841  0.06149  1.0000
  Fe  Fe86      1.0  0.32070  0.42060  0.13474  1.0000
  S   S180      1.0  0.31881  0.39464  0.14635  1.0000
  Fe  Fe87      1.0  0.34118  0.45153  0.13684  1.0000
  S   S181      1.0  0.36392  0.46144  0.14646  1.0000
  S   S182      1.0  0.30455  0.43219  0.11520  1.0000
  S   S183      1.0  0.32667  0.46537  0.11716  1.0000
  Fe  Fe88      1.0  0.29062  0.29442  0.08323  1.0000
  S   S184      1.0  0.31073  0.29051  0.05408  1.0000
  S   S185      1.0  0.27205  0.27501  0.11646  1.0000
  Fe  Fe89      1.0  0.30380  0.32957  0.06550  1.0000
  S   S186      1.0  0.32499  0.32823  0.03529  1.0000
  S   S187      1.0  0.29887  0.35293  0.06619  1.0000
  Fe  Fe90      1.0  0.30884  0.31089  0.02208  1.0000
  C   C1347     1.0  0.23855  0.01074  0.02576  1.0000
  Fe  Fe91      1.0  0.32536  0.30805  0.06942  1.0000
  S   S188      1.0  0.34737  0.30204  0.07642  1.0000
  S   S189      1.0  0.28744  0.31353  0.04988  1.0000
  S   S190      1.0  0.30541  0.31072  0.10102  1.0000
  Fe  Fe92      1.0  0.34519  0.02289  0.05748  1.0000
  S   S191      1.0  0.32342  0.01303  0.09246  1.0000
  S   S192      1.0  0.36841  0.03659  0.05893  1.0000
  Fe  Fe93      1.0  0.33153  0.00737  0.01669  1.0000
  S   S193      1.0  0.19315  0.21799  0.15819  1.0000
  Fe  Fe94      1.0  0.31112  0.01888  0.05883  1.0000
  S   S194      1.0  0.29131  0.03016  0.06389  1.0000
  H   H1090     1.0  0.19328  0.44464  0.43848  1.0000
  C   C1348     1.0  0.25092  0.04017  0.15598  1.0000
  S   S195      1.0  0.33303  0.03080  0.02469  1.0000
  S   S196      1.0  0.34534  0.00016  0.04699  1.0000
  C   C1349     1.0  0.26801  0.47287  0.03947  1.0000
  Fe  Fe95      1.0  0.20079  0.21206  0.11725  1.0000
  C   C1350     1.0  0.32607  0.47588  0.02795  1.0000
  S   S197      1.0  0.22403  0.22443  0.08607  1.0000
  H   H1091     1.0  0.21182  0.47834  0.09059  1.0000
  C   C1351     1.0  0.36422  0.29699  0.23540  1.0000
  H   H1092     1.0  0.29216  0.12160  0.42155  1.0000
  S   S198      1.0  0.19353  0.18620  0.13643  1.0000
  P   P46       1.0  0.31653  0.16303  0.47183  1.0000
  Fe  Fe96      1.0  0.24649  0.10476  0.28006  1.0000
  S   S199      1.0  0.23272  0.12040  0.29676  1.0000
  S   S200      1.0  0.23489  0.08124  0.27240  1.0000
  Fe  Fe97      1.0  0.27735  0.12795  0.27763  1.0000
  S   S201      1.0  0.26526  0.14489  0.29241  1.0000
  S   S202      1.0  0.30376  0.13369  0.26456  1.0000
  Fe  Fe98      1.0  0.24889  0.12396  0.32513  1.0000
  S   S203      1.0  0.24089  0.12719  0.37008  1.0000
  Fe  Fe99      1.0  0.25031  0.13982  0.26341  1.0000
  S   S204      1.0  0.24718  0.15847  0.22878  1.0000
  S   S205      1.0  0.26148  0.10692  0.31106  1.0000
  S   S206      1.0  0.26365  0.12429  0.24590  1.0000
  C   C1352     1.0  0.22645  0.07259  0.24783  1.0000
  C   C1353     1.0  0.22515  0.08130  0.22212  1.0000
  H   H1093     1.0  0.22938  0.09377  0.21633  1.0000
  H   H1094     1.0  0.21767  0.08086  0.18394  1.0000
  C   C1354     1.0  0.20310  0.17363  0.22208  1.0000
  C   C1355     1.0  0.21511  0.17619  0.19803  1.0000
  C   C1356     1.0  0.22828  0.17091  0.20040  1.0000
  C   C1357     1.0  0.22953  0.16293  0.22670  1.0000
  C   C1358     1.0  0.21730  0.15986  0.25066  1.0000
  C   C1359     1.0  0.20416  0.16530  0.24835  1.0000
  H   H1095     1.0  0.21435  0.18246  0.17771  1.0000
  H   H1096     1.0  0.23764  0.17313  0.18180  1.0000
  H   H1097     1.0  0.21817  0.15373  0.27104  1.0000
  H   H1098     1.0  0.19486  0.16321  0.26702  1.0000
  C   C1360     1.0  0.25388  0.11944  0.45646  1.0000
  C   C1361     1.0  0.25992  0.11240  0.43565  1.0000
  C   C1362     1.0  0.25636  0.11480  0.40907  1.0000
  C   C1363     1.0  0.24633  0.12403  0.40298  1.0000
  C   C1364     1.0  0.24005  0.13082  0.42401  1.0000
  H   H1099     1.0  0.26728  0.10486  0.44028  1.0000
  H   H1100     1.0  0.26111  0.10925  0.39352  1.0000
  C   C1365     1.0  0.27348  0.01846  0.08609  1.0000
  C   C1366     1.0  0.27230  0.00361  0.10245  1.0000
  C   C1367     1.0  0.18376  0.28370  0.16490  1.0000
  C   C1368     1.0  0.24506  0.00068  0.12349  1.0000
  C   C1369     1.0  0.24617  0.01537  0.10651  1.0000
  C   C1370     1.0  0.26037  0.02427  0.08799  1.0000
  C   C1371     1.0  0.18330  0.42739  0.47882  1.0000
  H   H1101     1.0  0.21355  0.31618  0.13779  1.0000
  H   H1102     1.0  0.23613  0.01989  0.10762  1.0000
  H   H1103     1.0  0.26120  0.03570  0.07517  1.0000
  C   C1372     1.0  0.25914  0.26078  0.10754  1.0000
  C   C1373     1.0  0.24689  0.25033  0.12907  1.0000
  C   C1374     1.0  0.23626  0.23897  0.12283  1.0000
  C   C1375     1.0  0.23777  0.23792  0.09498  1.0000
  C   C1376     1.0  0.25039  0.24797  0.07361  1.0000
  C   C1377     1.0  0.26095  0.25947  0.07978  1.0000
  H   H1104     1.0  0.24551  0.25114  0.15062  1.0000
  H   H1105     1.0  0.22690  0.23099  0.13956  1.0000
  H   H1106     1.0  0.25176  0.24714  0.05204  1.0000
  H   H1107     1.0  0.27043  0.26735  0.06304  1.0000
  C   C1378     1.0  0.21893  0.02447  0.05738  1.0000
  H   H1108     1.0  0.35457  0.14755  0.40469  1.0000
  H   H1109     1.0  0.33385  0.10724  0.39667  1.0000
  H   H1110     1.0  0.27410  0.14898  0.42811  1.0000
  C   C1379     1.0  0.30820  0.01044  0.19178  1.0000
  C   C1380     1.0  0.22683  0.99432  0.97982  1.0000
  C   C1381     1.0  0.18280  0.09447  0.22441  1.0000
  C   C1382     1.0  0.31306  0.11521  0.40531  1.0000
  H   H1111     1.0  0.22589  0.29750  0.28915  1.0000
  H   H1112     1.0  0.28890  0.37254  0.25647  1.0000
  C   C1383     1.0  0.34256  0.99444  0.13986  1.0000
  H   H1113     1.0  0.23875  0.45750  0.03620  1.0000
  H   H1114     1.0  0.35915  0.24681  0.23791  1.0000
  C   C1384     1.0  0.21841  0.07387  0.20369  1.0000
  C   C1385     1.0  0.25328  0.04274  0.20211  1.0000
  C   C1386     1.0  0.31293  0.38302  0.12431  1.0000
  C   C1387     1.0  0.31471  0.36779  0.12884  1.0000
  C   C1388     1.0  0.31048  0.35841  0.11125  1.0000
  C   C1389     1.0  0.30411  0.36407  0.08933  1.0000
  C   C1390     1.0  0.30202  0.37915  0.08520  1.0000
  C   C1391     1.0  0.30652  0.38864  0.10244  1.0000
  H   H1115     1.0  0.31949  0.36326  0.14586  1.0000
  H   H1116     1.0  0.31214  0.34682  0.11464  1.0000
  H   H1117     1.0  0.29707  0.38362  0.06833  1.0000
  H   H1118     1.0  0.30501  0.40028  0.09881  1.0000
  H   H1119     1.0  0.35861  0.07128  0.03160  1.0000
  H   H1120     1.0  0.36464  0.05417  0.00149  1.0000
  P   P47       1.0  0.34885  0.26058  0.18861  1.0000
  C   C1392     1.0  0.35821  0.31191  0.09548  1.0000
  C   C1393     1.0  0.35303  0.32275  0.10835  1.0000
  C   C1394     1.0  0.36173  0.33004  0.12419  1.0000
  H   H1121     1.0  0.21125  0.02972  0.06942  1.0000
  H   H1122     1.0  0.34226  0.32541  0.10640  1.0000
  H   H1123     1.0  0.35760  0.33832  0.13437  1.0000
  C   C1395     1.0  0.22496  0.00155  0.04582  1.0000
  H   H1124     1.0  0.20684  0.27880  0.33112  1.0000
  C   C1396     1.0  0.21016  0.29698  0.26257  1.0000
  C   C1397     1.0  0.37056  0.05153  0.07624  1.0000
  C   C1398     1.0  0.35787  0.05631  0.08859  1.0000
  C   C1399     1.0  0.35999  0.06862  0.10137  1.0000
  C   C1400     1.0  0.34500  0.24089  0.21004  1.0000
  S   S207      1.0  0.19700  0.00151  0.19976  1.0000
  H   H1125     1.0  0.34652  0.05060  0.08796  1.0000
  H   H1126     1.0  0.35016  0.07248  0.11036  1.0000
  C   C1401     1.0  0.34825  0.29109  0.00521  1.0000
  C   C1402     1.0  0.33221  0.26530  0.17835  1.0000
  C   C1403     1.0  0.36831  0.47709  0.16188  1.0000
  C   C1404     1.0  0.20799  0.13098  0.17581  1.0000
  Fe  Fe100     1.0  0.18239  0.01097  0.13097  1.0000
  S   S208      1.0  0.24275  0.46287  0.47445  1.0000
  H   H1127     1.0  0.18794  0.07369  0.17565  1.0000
  C   C1405     1.0  0.35322  0.00886  0.12839  1.0000
  C   C1406     1.0  0.18592  0.44195  0.45967  1.0000
  C   C1407     1.0  0.30121  0.11645  0.42674  1.0000
  H   H1128     1.0  0.34386  0.28710  0.02802  1.0000
  C   C1408     1.0  0.21408  0.04888  0.23607  1.0000
  C   C1409     1.0  0.32464  0.10846  0.41274  1.0000
  S   S209      1.0  0.18947  0.42484  0.33616  1.0000
  C   C1410     1.0  0.23254  0.03368  0.03785  1.0000
  C   C1411     1.0  0.33580  0.16902  0.29476  1.0000
  C   C1412     1.0  0.34188  0.16014  0.27786  1.0000
  C   C1413     1.0  0.33196  0.14935  0.26887  1.0000
  C   C1414     1.0  0.31595  0.14776  0.27559  1.0000
  C   C1415     1.0  0.31003  0.15730  0.29103  1.0000
  C   C1416     1.0  0.31986  0.16769  0.30082  1.0000
  H   H1129     1.0  0.35412  0.16102  0.27285  1.0000
  H   H1130     1.0  0.33672  0.14194  0.25725  1.0000
  H   H1131     1.0  0.29781  0.15639  0.29610  1.0000
  H   H1132     1.0  0.31502  0.17459  0.31360  1.0000
  C   C1417     1.0  0.21984  0.47018  0.34339  1.0000
  C   C1418     1.0  0.21953  0.46773  0.31664  1.0000
  C   C1419     1.0  0.21018  0.45408  0.31398  1.0000
  C   C1420     1.0  0.20093  0.44266  0.33812  1.0000
  C   C1421     1.0  0.20090  0.44529  0.36486  1.0000
  C   C1422     1.0  0.21033  0.45892  0.36753  1.0000
  H   H1133     1.0  0.22675  0.47638  0.29780  1.0000
  H   H1134     1.0  0.21027  0.45234  0.29324  1.0000
  C   C1423     1.0  0.25817  0.99484  0.12133  1.0000
  H   H1135     1.0  0.21043  0.46061  0.38823  1.0000
  C   C1424     1.0  0.23816  0.42122  0.19781  1.0000
  C   C1425     1.0  0.24069  0.43533  0.20507  1.0000
  C   C1426     1.0  0.25552  0.44556  0.19594  1.0000
  C   C1427     1.0  0.26782  0.44177  0.17937  1.0000
  C   C1428     1.0  0.26518  0.42780  0.17174  1.0000
  C   C1429     1.0  0.25042  0.41757  0.18095  1.0000
  H   H1136     1.0  0.23131  0.43826  0.21803  1.0000
  H   H1137     1.0  0.25750  0.45634  0.20197  1.0000
  H   H1138     1.0  0.27453  0.42476  0.15897  1.0000
  H   H1139     1.0  0.24059  0.45267  0.41994  1.0000
  H   H1140     1.0  0.29651  0.48000  0.22024  1.0000
  C   C1430     1.0  0.34592  0.36764  0.17574  1.0000
  H   H1141     1.0  0.19376  0.43659  0.38369  1.0000
  C   C1431     1.0  0.19018  0.31588  0.15503  1.0000
  H   H1142     1.0  0.33384  0.36640  0.18517  1.0000
  C   C1432     1.0  0.23640  0.30911  0.10610  1.0000
  H   H1143     1.0  0.34063  0.48222  0.40484  1.0000
  H   H1144     1.0  0.22264  0.14486  0.13525  1.0000
  H   H1145     1.0  0.21200  0.45526  0.17192  1.0000
  H   H1146     1.0  0.33150  0.17524  0.21334  1.0000
  C   C1433     1.0  0.34068  0.37639  0.04973  1.0000
  H   H1147     1.0  0.23552  0.04610  0.03499  1.0000
  C   C1434     1.0  0.37917  0.41459  0.12392  1.0000
  C   C1435     1.0  0.29609  0.00404  0.15569  1.0000
  H   H1148     1.0  0.33814  0.19836  0.25448  1.0000
  C   C1436     1.0  0.25010  0.19956  0.09949  1.0000
  H   H1149     1.0  0.24402  0.44447  0.37532  1.0000
  H   H1150     1.0  0.34554  0.38183  0.13598  1.0000
  H   H1151     1.0  0.22170  0.04932  0.27417  1.0000
  C   C1437     1.0  0.26598  0.20127  0.09454  1.0000
  C   C1438     1.0  0.36361  0.07618  0.00908  1.0000
  S   S210      1.0  0.22037  0.48567  0.42760  1.0000
  H   H1152     1.0  0.25365  0.32904  0.07762  1.0000
  C   C1439     1.0  0.28841  0.40244  0.20338  1.0000
  C   C1440     1.0  0.28958  0.38785  0.21688  1.0000
  C   C1441     1.0  0.28800  0.38387  0.24607  1.0000
  C   C1442     1.0  0.28542  0.39457  0.26172  1.0000
  C   C1443     1.0  0.28451  0.40937  0.24813  1.0000
  C   C1444     1.0  0.28588  0.41315  0.21892  1.0000
  P   P48       1.0  0.28172  0.42368  0.26740  1.0000
  C   C1445     1.0  0.26193  0.42488  0.27466  1.0000
  C   C1446     1.0  0.28579  0.41828  0.30148  1.0000
  C   C1447     1.0  0.27465  0.40698  0.32378  1.0000
  C   C1448     1.0  0.27739  0.40287  0.35050  1.0000
  C   C1449     1.0  0.29125  0.41001  0.35519  1.0000
  C   C1450     1.0  0.30238  0.42128  0.33317  1.0000
  C   C1451     1.0  0.29967  0.42544  0.30641  1.0000
  C   C1452     1.0  0.25119  0.41651  0.26353  1.0000
  C   C1453     1.0  0.23568  0.41661  0.27122  1.0000
  C   C1454     1.0  0.23080  0.42526  0.28961  1.0000
  C   C1455     1.0  0.24143  0.43374  0.30060  1.0000
  C   C1456     1.0  0.25692  0.43347  0.29335  1.0000
  C   C1457     1.0  0.29490  0.44188  0.24620  1.0000
  C   C1458     1.0  0.31029  0.44229  0.23421  1.0000
  C   C1459     1.0  0.32070  0.45626  0.21789  1.0000
  C   C1460     1.0  0.31578  0.46987  0.21318  1.0000
  C   C1461     1.0  0.30043  0.46953  0.22455  1.0000
  C   C1462     1.0  0.28998  0.45558  0.24090  1.0000
  H   H1153     1.0  0.28973  0.40552  0.18071  1.0000
  H   H1154     1.0  0.29186  0.37973  0.20453  1.0000
  P   P49       1.0  0.26533  0.48451  0.00752  1.0000
  H   H1155     1.0  0.28436  0.39128  0.28420  1.0000
  H   H1156     1.0  0.28528  0.42451  0.20805  1.0000
  H   H1157     1.0  0.26382  0.40137  0.32050  1.0000
  H   H1158     1.0  0.26872  0.39418  0.36760  1.0000
  H   H1159     1.0  0.29334  0.40687  0.37594  1.0000
  H   H1160     1.0  0.31310  0.42688  0.33684  1.0000
  H   H1161     1.0  0.30841  0.43431  0.28989  1.0000
  H   H1162     1.0  0.25465  0.40986  0.24893  1.0000
  H   H1163     1.0  0.22746  0.41009  0.26256  1.0000
  H   H1164     1.0  0.21878  0.42540  0.29528  1.0000
  H   H1165     1.0  0.23761  0.44051  0.31475  1.0000
  H   H1166     1.0  0.26500  0.43993  0.30233  1.0000
  H   H1167     1.0  0.31424  0.43178  0.23730  1.0000
  H   H1168     1.0  0.33253  0.45649  0.20847  1.0000
  H   H1169     1.0  0.35455  0.21994  0.26599  1.0000
  C   C1463     1.0  0.34982  0.16887  0.38530  1.0000
  H   H1170     1.0  0.27809  0.45554  0.24875  1.0000
  C   C1464     1.0  0.26931  0.04573  0.19275  1.0000
  C   C1465     1.0  0.27631  0.04663  0.16452  1.0000
  C   C1466     1.0  0.26695  0.04338  0.14643  1.0000
  P   P50       1.0  0.29687  0.04928  0.15277  1.0000
  C   C1467     1.0  0.30841  0.06271  0.16683  1.0000
  C   C1468     1.0  0.29983  0.03008  0.16205  1.0000
  C   C1469     1.0  0.30648  0.02555  0.18433  1.0000
  H   H1171     1.0  0.27461  0.44951  0.10884  1.0000
  H   H1172     1.0  0.20291  0.40757  0.41179  1.0000
  H   H1173     1.0  0.32487  0.26254  0.10195  1.0000
  C   C1470     1.0  0.29451  0.01918  0.14797  1.0000
  C   C1471     1.0  0.32422  0.06358  0.16266  1.0000
  C   C1472     1.0  0.33361  0.07437  0.17203  1.0000
  C   C1473     1.0  0.32729  0.08435  0.18574  1.0000
  C   C1474     1.0  0.31164  0.08378  0.18953  1.0000
  C   C1475     1.0  0.30226  0.07320  0.17965  1.0000
  C   C1476     1.0  0.30340  0.05769  0.11507  1.0000
  C   C1477     1.0  0.29786  0.06993  0.10238  1.0000
  C   C1478     1.0  0.30323  0.07680  0.07324  1.0000
  C   C1479     1.0  0.31434  0.07165  0.05672  1.0000
  C   C1480     1.0  0.32015  0.05971  0.06935  1.0000
  C   C1481     1.0  0.31472  0.05275  0.09843  1.0000
  H   H1174     1.0  0.27618  0.04716  0.20765  1.0000
  H   H1175     1.0  0.27195  0.04297  0.12510  1.0000
  H   H1176     1.0  0.31020  0.03355  0.19621  1.0000
  H   H1177     1.0  0.37739  0.40618  0.14386  1.0000
  C   C1482     1.0  0.36246  0.26467  0.13092  1.0000
  C   C1483     1.0  0.22218  0.13902  0.15674  1.0000
  H   H1178     1.0  0.28913  0.02239  0.13102  1.0000
  H   H1179     1.0  0.32934  0.05600  0.15187  1.0000
  H   H1180     1.0  0.34587  0.07514  0.16829  1.0000
  H   H1181     1.0  0.33461  0.09271  0.19293  1.0000
  H   H1182     1.0  0.30683  0.09175  0.19970  1.0000
  H   H1183     1.0  0.29034  0.07342  0.18175  1.0000
  H   H1184     1.0  0.28928  0.07406  0.11497  1.0000
  H   H1185     1.0  0.29866  0.08599  0.06340  1.0000
  H   H1186     1.0  0.31832  0.07675  0.03408  1.0000
  H   H1187     1.0  0.32861  0.05559  0.05650  1.0000
  H   H1188     1.0  0.31926  0.04344  0.10780  1.0000
  H   H1189     1.0  0.19585  0.10016  0.18059  1.0000
  C   C1484     1.0  0.33627  0.22852  0.20285  1.0000
  H   H1190     1.0  0.35141  0.26513  0.12685  1.0000
  H   H1191     1.0  0.18552  0.13022  0.31736  1.0000
  H   H1192     1.0  0.38027  0.30982  0.19552  1.0000
  C   C1485     1.0  0.23515  0.13222  0.19324  1.0000
  H   H1193     1.0  0.18752  0.38014  0.46635  1.0000
  H   H1194     1.0  0.34692  0.28182  0.27195  1.0000
  H   H1195     1.0  0.31499  0.47749  0.06909  1.0000
  H   H1196     1.0  0.19985  0.09184  0.26683  1.0000
  C   C1486     1.0  0.35242  0.28364  0.24977  1.0000
  C   C1487     1.0  0.28945  0.17331  0.47604  1.0000
  C   C1488     1.0  0.19242  0.05748  0.09486  1.0000
  C   C1489     1.0  0.18860  0.27609  0.31002  1.0000
  C   C1490     1.0  0.22085  0.05630  0.25447  1.0000
  H   H1197     1.0  0.21186  0.45155  0.03304  1.0000
  S   S211      1.0  0.20599  0.02284  0.13375  1.0000
  H   H1198     1.0  0.33315  0.09768  0.44693  1.0000
  C   C1491     1.0  0.34811  0.15605  0.40775  1.0000
  P   P51       1.0  0.18880  0.11374  0.22879  1.0000
  H   H1199     1.0  0.20310  0.46997  0.99959  1.0000
  C   C1492     1.0  0.26195  0.31821  0.11187  1.0000
  H   H1200     1.0  0.37201  0.29073  0.17014  1.0000
  H   H1201     1.0  0.36279  0.11992  0.12837  1.0000
  C   C1493     1.0  0.35174  0.23763  0.23268  1.0000
  H   H1202     1.0  0.25181  0.46027  0.11087  1.0000
  C   C1494     1.0  0.28514  0.16867  0.19037  1.0000
  C   C1495     1.0  0.29021  0.16963  0.21458  1.0000
  C   C1496     1.0  0.29123  0.18320  0.22356  1.0000
  C   C1497     1.0  0.28698  0.19574  0.20855  1.0000
  C   C1498     1.0  0.28164  0.19479  0.18441  1.0000
  C   C1499     1.0  0.28082  0.18116  0.17535  1.0000
  P   P52       1.0  0.27508  0.21070  0.16667  1.0000
  C   C1500     1.0  0.26504  0.20538  0.14125  1.0000
  C   C1501     1.0  0.26182  0.21570  0.19318  1.0000
  C   C1502     1.0  0.25192  0.20390  0.21627  1.0000
  C   C1503     1.0  0.24083  0.20728  0.23600  1.0000
  C   C1504     1.0  0.23956  0.22251  0.23294  1.0000
  C   C1505     1.0  0.24933  0.23436  0.20998  1.0000
  C   C1506     1.0  0.26041  0.23099  0.19011  1.0000
  C   C1507     1.0  0.27344  0.20416  0.11533  1.0000
  H   H1203     1.0  0.33810  0.26934  0.99808  1.0000
  C   C1508     1.0  0.27516  0.17361  0.47043  1.0000
  H   H1204     1.0  0.20047  0.05029  0.09318  1.0000
  C   C1509     1.0  0.24907  0.20359  0.14603  1.0000
  C   C1510     1.0  0.29101  0.22713  0.14684  1.0000
  C   C1511     1.0  0.30602  0.22785  0.14982  1.0000
  C   C1512     1.0  0.31823  0.24051  0.13347  1.0000
  C   C1513     1.0  0.31551  0.25255  0.11426  1.0000
  C   C1514     1.0  0.30064  0.25180  0.11104  1.0000
  C   C1515     1.0  0.28849  0.23911  0.12699  1.0000
  H   H1205     1.0  0.28386  0.15794  0.18407  1.0000
  H   H1206     1.0  0.29304  0.15973  0.22673  1.0000
  H   H1207     1.0  0.29480  0.18374  0.24275  1.0000
  H   H1208     1.0  0.28736  0.20599  0.21629  1.0000
  H   H1209     1.0  0.27622  0.17983  0.15753  1.0000
  H   H1210     1.0  0.25250  0.19197  0.21874  1.0000
  H   H1211     1.0  0.23306  0.19798  0.25340  1.0000
  H   H1212     1.0  0.23091  0.22506  0.24825  1.0000
  H   H1213     1.0  0.24816  0.24613  0.20726  1.0000
  H   H1214     1.0  0.26757  0.24031  0.17223  1.0000
  H   H1215     1.0  0.28580  0.20580  0.11097  1.0000
  S   S212      1.0  0.30867  0.99603  0.04809  1.0000
  C   C1516     1.0  0.30300  0.99969  0.17747  1.0000
  H   H1216     1.0  0.34933  0.01934  0.12354  1.0000
  H   H1217     1.0  0.24223  0.20471  0.16548  1.0000
  H   H1218     1.0  0.30838  0.21865  0.16448  1.0000
  H   H1219     1.0  0.32979  0.24106  0.13571  1.0000
  C   C1517     1.0  0.23506  0.46593  0.02219  1.0000
  H   H1220     1.0  0.27708  0.23871  0.12382  1.0000
  H   H1221     1.0  0.22089  0.11897  0.23399  1.0000
  C   C1518     1.0  0.29533  0.02635  0.99410  1.0000
  C   C1519     1.0  0.36897  0.00976  0.12225  1.0000
  C   C1520     1.0  0.18793  0.09129  0.19834  1.0000
  H   H1222     1.0  0.33152  0.23068  0.18478  1.0000
  P   P53       1.0  0.25100  0.00184  0.00513  1.0000
  C   C1521     1.0  0.37188  0.47654  0.36254  1.0000
  H   H1223     1.0  0.24767  0.47541  0.06705  1.0000
  H   H1224     1.0  0.29402  0.33345  0.98315  1.0000
  H   H1225     1.0  0.37623  0.30013  0.08837  1.0000
  C   C1522     1.0  0.30143  0.35733  0.98302  1.0000
  H   H1226     1.0  0.19207  0.41799  0.14033  1.0000
  H   H1227     1.0  0.19221  0.29408  0.24106  1.0000
  C   C1523     1.0  0.30065  0.11062  0.45514  1.0000
  C   C1524     1.0  0.28094  0.46673  0.03865  1.0000
  C   C1525     1.0  0.28319  0.45823  0.06354  1.0000
  H   H1228     1.0  0.20720  0.25186  0.05661  1.0000
  C   C1526     1.0  0.25752  0.47050  0.06575  1.0000
  C   C1527     1.0  0.24540  0.48007  0.00589  1.0000
  P   P54       1.0  0.37646  0.38970  0.09915  1.0000
  C   C1528     1.0  0.36446  0.26254  0.15844  1.0000
  C   C1529     1.0  0.20724  0.12377  0.20400  1.0000
  H   H1229     1.0  0.24976  0.99305  0.06577  1.0000
  Fe  Fe101     1.0  0.37322  0.19159  0.29860  1.0000
  H   H1230     1.0  0.21917  0.99575  0.99803  1.0000
  C   C1530     1.0  0.18803  0.45504  0.12787  1.0000
  H   H1231     1.0  0.37469  0.13523  0.30187  1.0000
  C   C1531     1.0  0.37478  0.15321  0.11731  1.0000
  C   C1532     1.0  0.34770  0.27264  0.23554  1.0000
  C   C1533     1.0  0.35482  0.36059  0.19138  1.0000
  H   H1232     1.0  0.32384  0.48062  0.20037  1.0000
  C   C1534     1.0  0.27844  0.15590  0.44127  1.0000
  C   C1535     1.0  0.24166  0.20057  0.12530  1.0000
  C   C1536     1.0  0.29825  0.16412  0.46448  1.0000
  H   H1233     1.0  0.19463  0.10841  0.34132  1.0000
  H   H1234     1.0  0.28949  0.46862  0.01900  1.0000
  H   H1235     1.0  0.29326  0.45361  0.06270  1.0000
  H   H1236     1.0  0.30314  0.35459  0.00415  1.0000
  H   H1237     1.0  0.36401  0.09962  0.01082  1.0000
  C   C1537     1.0  0.19333  0.10935  0.32002  1.0000
  H   H1238     1.0  0.34292  0.19105  0.45336  1.0000
  H   H1239     1.0  0.32665  0.20375  0.21376  1.0000
  C   C1538     1.0  0.24410  0.03997  0.18372  1.0000
  C   C1539     1.0  0.19260  0.06691  0.11349  1.0000
  Fe  Fe102     1.0  0.24125  0.48412  0.44369  1.0000
  H   H1240     1.0  0.20180  0.08932  0.31576  1.0000
  C   C1540     1.0  0.28005  0.08262  0.37273  1.0000
  C   C1541     1.0  0.28173  0.08293  0.34421  1.0000
  C   C1542     1.0  0.29287  0.09483  0.32333  1.0000
  C   C1543     1.0  0.30234  0.10639  0.33093  1.0000
  C   C1544     1.0  0.30098  0.10597  0.35955  1.0000
  C   C1545     1.0  0.28960  0.09411  0.38042  1.0000
  P   P55       1.0  0.31276  0.12150  0.36879  1.0000
  C   C1546     1.0  0.30457  0.25973  0.18314  1.0000
  C   C1547     1.0  0.33234  0.12603  0.34707  1.0000
  C   C1548     1.0  0.33792  0.11457  0.33638  1.0000
  C   C1549     1.0  0.35310  0.11791  0.32003  1.0000
  C   C1550     1.0  0.36297  0.13258  0.31475  1.0000
  C   C1551     1.0  0.35766  0.14389  0.32592  1.0000
  C   C1552     1.0  0.34242  0.14066  0.34189  1.0000
  C   C1553     1.0  0.30406  0.13773  0.36573  1.0000
  C   C1554     1.0  0.29060  0.13710  0.35620  1.0000
  C   C1555     1.0  0.28309  0.14899  0.35646  1.0000
  C   C1556     1.0  0.28901  0.16172  0.36581  1.0000
  C   C1557     1.0  0.30234  0.16246  0.37539  1.0000
  C   C1558     1.0  0.30965  0.15038  0.37589  1.0000
  H   H1241     1.0  0.27113  0.07363  0.38887  1.0000
  H   H1242     1.0  0.27410  0.07422  0.33824  1.0000
  H   H1243     1.0  0.29380  0.09542  0.30116  1.0000
  H   H1244     1.0  0.31056  0.11582  0.31446  1.0000
  H   H1245     1.0  0.28785  0.09381  0.40259  1.0000
  C   C1559     1.0  0.19368  0.42997  0.14112  1.0000
  H   H1246     1.0  0.36518  0.15537  0.32147  1.0000
  H   H1247     1.0  0.33855  0.14975  0.34953  1.0000
  H   H1248     1.0  0.28563  0.12740  0.34888  1.0000
  H   H1249     1.0  0.27257  0.14825  0.34956  1.0000
  H   H1250     1.0  0.28315  0.17091  0.36591  1.0000
  H   H1251     1.0  0.30685  0.17227  0.38289  1.0000
  H   H1252     1.0  0.31944  0.15078  0.38484  1.0000
  C   C1560     1.0  0.31943  0.11295  0.13001  1.0000
  C   C1561     1.0  0.32876  0.10554  0.11478  1.0000
  C   C1562     1.0  0.34440  0.10829  0.11400  1.0000
  C   C1563     1.0  0.35076  0.11847  0.12833  1.0000
  C   C1564     1.0  0.34158  0.12636  0.14293  1.0000
  C   C1565     1.0  0.32576  0.12318  0.14435  1.0000
  P   P56       1.0  0.34947  0.13834  0.16358  1.0000
  C   C1566     1.0  0.34721  0.12510  0.19730  1.0000
  C   C1567     1.0  0.36933  0.14868  0.14693  1.0000
  H   H1253     1.0  0.28233  0.99900  0.10093  1.0000
  C   C1568     1.0  0.24380  0.12861  0.45042  1.0000
  C   C1569     1.0  0.33354  0.12159  0.21880  1.0000
  C   C1570     1.0  0.33164  0.11100  0.24470  1.0000
  C   C1571     1.0  0.34322  0.10360  0.24911  1.0000
  C   C1572     1.0  0.35663  0.10668  0.22746  1.0000
  C   C1573     1.0  0.35858  0.11730  0.20156  1.0000
  C   C1574     1.0  0.33988  0.15350  0.16745  1.0000
  C   C1575     1.0  0.33387  0.16040  0.14579  1.0000
  C   C1576     1.0  0.32684  0.17245  0.14866  1.0000
  C   C1577     1.0  0.32598  0.17783  0.17295  1.0000
  C   C1578     1.0  0.33224  0.17124  0.19432  1.0000
  C   C1579     1.0  0.33937  0.15929  0.19137  1.0000
  H   H1254     1.0  0.30722  0.11049  0.13125  1.0000
  H   H1255     1.0  0.32386  0.09738  0.10411  1.0000
  H   H1256     1.0  0.31826  0.12834  0.15696  1.0000
  C   C1580     1.0  0.37495  0.26653  0.10801  1.0000
  C   C1581     1.0  0.35230  0.39379  0.07434  1.0000
  H   H1257     1.0  0.32434  0.12706  0.21573  1.0000
  H   H1258     1.0  0.32119  0.10865  0.26138  1.0000
  H   H1259     1.0  0.34178  0.09545  0.26920  1.0000
  H   H1260     1.0  0.36565  0.10094  0.23067  1.0000
  H   H1261     1.0  0.36899  0.11938  0.18492  1.0000
  H   H1262     1.0  0.33470  0.15654  0.12664  1.0000
  H   H1263     1.0  0.32204  0.17760  0.13206  1.0000
  H   H1264     1.0  0.32040  0.18705  0.17525  1.0000
  H   H1265     1.0  0.33198  0.37304  0.03887  1.0000
  H   H1266     1.0  0.25843  0.16481  0.44926  1.0000
  C   C1582     1.0  0.21431  0.29272  0.28790  1.0000
  C   C1583     1.0  0.24232  0.02687  0.02204  1.0000
  H   H1267     1.0  0.29905  0.14803  0.43839  1.0000
  H   H1268     1.0  0.36787  0.30554  0.24635  1.0000
  C   C1584     1.0  0.38161  0.42128  0.07342  1.0000
  H   H1269     1.0  0.18309  0.13274  0.26855  1.0000
  C   C1585     1.0  0.20297  0.43564  0.15745  1.0000
  C   C1586     1.0  0.20491  0.45099  0.15894  1.0000
  C   C1587     1.0  0.19750  0.46068  0.14421  1.0000
  H   H1270     1.0  0.28170  0.30200  0.99247  1.0000
  H   H1271     1.0  0.22517  0.42177  0.37165  1.0000
  C   C1588     1.0  0.35042  0.36688  0.05559  1.0000
  C   C1589     1.0  0.34504  0.28111  0.98832  1.0000
  H   H1272     1.0  0.37719  0.02094  0.11261  1.0000
  H   H1273     1.0  0.20856  0.42807  0.16920  1.0000
  S   S213      1.0  0.38016  0.21316  0.31298  1.0000
  H   H1274     1.0  0.34250  0.18948  0.37130  1.0000
  H   H1275     1.0  0.35762  0.17038  0.36488  1.0000
  C   C1590     1.0  0.23576  0.13968  0.16549  1.0000
  C   C1591     1.0  0.32426  0.10297  0.44125  1.0000
  H   H1276     1.0  0.35158  0.10226  0.10280  1.0000
  C   C1592     1.0  0.35697  0.30634  0.99269  1.0000
  H   H1277     1.0  0.33686  0.14412  0.45107  1.0000
  C   C1593     1.0  0.19888  0.29267  0.15140  1.0000
  H   H1278     1.0  0.20466  0.00131  0.07685  1.0000
  C   C1594     1.0  0.35257  0.37635  0.14774  1.0000
  C   C1595     1.0  0.18425  0.28059  0.28483  1.0000
  H   H1279     1.0  0.35723  0.10912  0.31139  1.0000
  S   S214      1.0  0.20387  0.04891  0.18627  1.0000
  C   C1596     1.0  0.26981  0.01516  0.98998  1.0000
  H   H1280     1.0  0.37522  0.15008  0.18629  1.0000
  H   H1281     1.0  0.21827  0.43874  0.46023  1.0000
  C   C1597     1.0  0.25865  0.30595  0.13606  1.0000
  H   H1282     1.0  0.19761  0.13054  0.16860  1.0000
  H   H1283     1.0  0.27844  0.00831  0.02673  1.0000
  C   C1598     1.0  0.37123  0.29940  0.20676  1.0000
  Fe  Fe103     1.0  0.19511  0.02498  0.17717  1.0000
  S   S215      1.0  0.18676  0.18083  0.21991  1.0000
  H   H1284     1.0  0.31346  0.00701  0.20881  1.0000
  H   H1285     1.0  0.19045  0.14670  0.20517  1.0000
  H   H1286     1.0  0.25281  0.03423  0.00707  1.0000
  H   H1287     1.0  0.24214  0.28567  0.16373  1.0000
  C   C1599     1.0  0.19521  0.29085  0.26095  1.0000
  H   H1288     1.0  0.20983  0.03640  0.24190  1.0000
  Fe  Fe104     1.0  0.20690  0.99920  0.15617  1.0000
  H   H1289     1.0  0.22804  0.31026  0.09384  1.0000
  Fe  Fe105     1.0  0.18437  0.19226  0.17667  1.0000
  C   C1600     1.0  0.22277  0.26721  0.07145  1.0000
  C   C1601     1.0  0.22452  0.27476  0.09259  1.0000
  C   C1602     1.0  0.21166  0.27400  0.11423  1.0000
  P   P57       1.0  0.21411  0.28317  0.14241  1.0000
  C   C1603     1.0  0.21283  0.26875  0.17423  1.0000
  C   C1604     1.0  0.21291  0.25347  0.17371  1.0000
  C   C1605     1.0  0.21189  0.24242  0.19855  1.0000
  C   C1606     1.0  0.21067  0.24654  0.22410  1.0000
  C   C1607     1.0  0.21057  0.26175  0.22482  1.0000
  C   C1608     1.0  0.21165  0.27283  0.19997  1.0000
  C   C1609     1.0  0.23280  0.29700  0.13091  1.0000
  C   C1610     1.0  0.22381  0.42522  0.39125  1.0000
  C   C1611     1.0  0.34007  0.21017  0.24195  1.0000
  H   H1290     1.0  0.33368  0.39690  0.05546  1.0000
  C   C1612     1.0  0.25087  0.31973  0.09678  1.0000
  H   H1291     1.0  0.23273  0.26782  0.05490  1.0000
  H   H1292     1.0  0.23602  0.28083  0.09215  1.0000
  H   H1293     1.0  0.21369  0.25004  0.15417  1.0000
  H   H1294     1.0  0.21188  0.23059  0.19798  1.0000
  H   H1295     1.0  0.20950  0.23786  0.24342  1.0000
  H   H1296     1.0  0.20944  0.26487  0.24472  1.0000
  H   H1297     1.0  0.21154  0.28458  0.20077  1.0000
  C   C1613     1.0  0.19621  0.10004  0.27787  1.0000
  H   H1298     1.0  0.18711  0.26349  0.13150  1.0000
  H   H1299     1.0  0.27252  0.20070  0.07433  1.0000
  C   C1614     1.0  0.35498  0.27479  0.20694  1.0000
  P   P58       1.0  0.19195  0.41266  0.46824  1.0000
  C   C1615     1.0  0.36656  0.28843  0.19247  1.0000
  H   H1300     1.0  0.24430  0.19780  0.08316  1.0000
  C   C1616     1.0  0.37408  0.99626  0.12771  1.0000
  C   C1617     1.0  0.37918  0.15327  0.16340  1.0000
  C   C1618     1.0  0.30670  0.27319  0.16176  1.0000
  C   C1619     1.0  0.32146  0.28295  0.14935  1.0000
  C   C1620     1.0  0.33412  0.27914  0.15782  1.0000
  C   C1621     1.0  0.36268  0.38470  0.07918  1.0000
  C   C1622     1.0  0.19072  0.11215  0.26439  1.0000
  C   C1623     1.0  0.26964  0.16487  0.45312  1.0000
  H   H1301     1.0  0.22940  0.19954  0.12886  1.0000
  H   H1302     1.0  0.37999  0.43367  0.14326  1.0000
  H   H1303     1.0  0.29692  0.27609  0.15479  1.0000
  H   H1304     1.0  0.32317  0.29350  0.13302  1.0000
  H   H1305     1.0  0.34544  0.28699  0.14813  1.0000
  C   C1624     1.0  0.31725  0.25587  0.19168  1.0000
  C   C1625     1.0  0.35738  0.47317  0.38143  1.0000
  C   C1626     1.0  0.31221  0.10395  0.46244  1.0000
  C   C1627     1.0  0.21982  0.46238  0.02016  1.0000
  H   H1306     1.0  0.34962  0.35364  0.21294  1.0000
  H   H1307     1.0  0.37341  0.26852  0.08676  1.0000
  C   C1628     1.0  0.37219  0.30852  0.09827  1.0000
  H   H1308     1.0  0.24373  0.03758  0.14203  1.0000
  H   H1309     1.0  0.20081  0.06696  0.12635  1.0000
  C   C1629     1.0  0.20836  0.25826  0.07231  1.0000
  C   C1630     1.0  0.20202  0.30886  0.14700  1.0000
  H   H1310     1.0  0.29308  0.25229  0.19302  1.0000
  H   H1311     1.0  0.38065  0.25980  0.18385  1.0000
  S   S216      1.0  0.33017  0.45805  0.04056  1.0000
  C   C1631     1.0  0.21489  0.47269  0.00126  1.0000
  C   C1632     1.0  0.27270  0.45592  0.08952  1.0000
  H   H1312     1.0  0.26750  0.30441  0.14699  1.0000
  C   C1633     1.0  0.19719  0.26497  0.11480  1.0000
  C   C1634     1.0  0.32974  0.16525  0.43816  1.0000
  C   C1635     1.0  0.33126  0.17789  0.41527  1.0000
  H   H1313     1.0  0.35924  0.31407  0.00595  1.0000
  C   C1636     1.0  0.22097  0.12438  0.21250  1.0000
  H   H1314     1.0  0.23894  0.13405  0.46607  1.0000
  C   C1637     1.0  0.33808  0.15420  0.43409  1.0000
  H   H1315     1.0  0.33035  0.99365  0.14368  1.0000
  H   H1316     1.0  0.24674  0.14609  0.15091  1.0000
  C   C1638     1.0  0.24417  0.29534  0.14554  1.0000
  H   H1317     1.0  0.31526  0.24563  0.20877  1.0000
  H   H1318     1.0  0.33844  0.26244  0.24689  1.0000
  S   S217      1.0  0.37682  0.09138  0.11879  1.0000
  H   H1319     1.0  0.35210  0.40375  0.08280  1.0000
  H   H1320     1.0  0.24789  0.04236  0.22375  1.0000
  C   C1639     1.0  0.23441  0.43802  0.39327  1.0000
  H   H1321     1.0  0.36848  0.36322  0.07501  1.0000
  C   C1640     1.0  0.37045  0.36253  0.17916  1.0000
  H   H1322     1.0  0.30379  0.02682  0.00631  1.0000
  H   H1323     1.0  0.36504  0.21062  0.19154  1.0000
  H   H1324     1.0  0.32470  0.18637  0.41780  1.0000
  C   C1641     1.0  0.31867  0.48308  0.04668  1.0000
  H   H1325     1.0  0.23167  0.03738  0.19107  1.0000
  H   H1326     1.0  0.21853  0.30504  0.24417  1.0000
  S   S218      1.0  0.23232  0.48742  0.34534  1.0000
  C   C1642     1.0  0.18824  0.12165  0.30649  1.0000
  H   H1327     1.0  0.35937  0.47128  0.06416  1.0000
  C   C1643     1.0  0.19732  0.09856  0.30568  1.0000
  C   C1644     1.0  0.34923  0.22235  0.24859  1.0000
  H   H1328     1.0  0.34449  0.15456  0.20778  1.0000
  H   H1329     1.0  0.29201  0.99569  0.14465  1.0000
  C   C1645     1.0  0.34163  0.38982  0.05910  1.0000
  C   C1646     1.0  0.28091  0.01578  0.00556  1.0000
  C   C1647     1.0  0.25985  0.46203  0.09061  1.0000
  C   C1648     1.0  0.20356  0.28223  0.31157  1.0000
  H   H1330     1.0  0.24565  0.13286  0.20016  1.0000
  H   H1331     1.0  0.36734  0.15009  0.10410  1.0000
  C   C1649     1.0  0.34131  0.17971  0.38899  1.0000
  H   H1332     1.0  0.34925  0.35614  0.04928  1.0000
  C   C1650     1.0  0.37724  0.21472  0.18128  1.0000
  C   C1651     1.0  0.36666  0.09214  0.99735  1.0000
  C   C1652     1.0  0.21112  0.41722  0.41414  1.0000
  C   C1653     1.0  0.37477  0.07599  0.10248  1.0000
  C   C1654     1.0  0.19558  0.25714  0.09400  1.0000
  H   H1333     1.0  0.34708  0.48374  0.16246  1.0000
  H   H1334     1.0  0.19896  0.47249  0.14592  1.0000
  C   C1655     1.0  0.36137  0.37100  0.07024  1.0000
  C   C1656     1.0  0.33362  0.21324  0.21902  1.0000
  Fe  Fe106     1.0  0.18590  0.41670  0.29689  1.0000
  H   H1335     1.0  0.35036  0.46134  0.38915  1.0000
  C   C1657     1.0  0.38076  0.43019  0.12370  1.0000
  C   C1658     1.0  0.23242  0.44272  0.41829  1.0000
  C   C1659     1.0  0.37572  0.32668  0.12691  1.0000
  C   C1660     1.0  0.18625  0.43962  0.12631  1.0000
  C   C1661     1.0  0.36817  0.37811  0.13515  1.0000
  C   C1662     1.0  0.20891  0.42203  0.43921  1.0000
  H   H1336     1.0  0.18443  0.24993  0.09504  1.0000
  C   C1663     1.0  0.33046  0.48307  0.99881  1.0000
  C   C1664     1.0  0.36084  0.48350  0.05474  1.0000
  H   H1337     1.0  0.33613  0.47749  0.98423  1.0000
  H   H1338     1.0  0.30549  0.99663  0.98886  1.0000
  C   C1665     1.0  0.33662  0.18996  0.47474  1.0000
  C   C1666     1.0  0.37896  0.26176  0.16273  1.0000
  H   H1339     1.0  0.19272  0.32836  0.15152  1.0000
  C   C1667     1.0  0.18690  0.12305  0.27877  1.0000
  H   H1340     1.0  0.38132  0.23110  0.20583  1.0000
  H   H1341     1.0  0.37670  0.19955  0.15369  1.0000
  C   C1668     1.0  0.38098  0.31595  0.11381  1.0000
  C   C1669     1.0  0.19089  0.48140  0.07884  1.0000
  C   C1670     1.0  0.37944  0.40998  0.09879  1.0000
  H   H1342     1.0  0.37736  0.35695  0.19110  1.0000
  C   C1671     1.0  0.37717  0.37142  0.15127  1.0000
  H   H1343     1.0  0.38170  0.41797  0.05385  1.0000
  C   C1672     1.0  0.18333  0.07632  0.19526  1.0000
  C   C1673     1.0  0.20693  0.48449  0.07524  1.0000
  H   H1344     1.0  0.18234  0.08311  0.13062  1.0000
  H   H1345     1.0  0.36308  0.48079  0.01257  1.0000
  C   C1674     1.0  0.35189  0.48508  0.39024  1.0000
  C   C1675     1.0  0.35803  0.48615  0.16768  1.0000
  Fe  Fe107     1.0  0.32262  0.99082  0.07935  1.0000
  S   S219      1.0  0.22750  0.98916  0.14722  1.0000
  C   C1676     1.0  0.22520  0.48652  0.98430  1.0000
  H   H1346     1.0  0.35255  0.20989  0.47828  1.0000
  Fe  Fe108     1.0  0.20302  0.39538  0.64842  1.0000
  S   S220      1.0  0.22654  0.39931  0.65867  1.0000
  H   H1347     1.0  0.22175  0.46695  0.83464  1.0000
  S   S221      1.0  0.20066  0.39202  0.60585  1.0000
  S   S222      1.0  0.18368  0.37416  0.67152  1.0000
  S   S223      1.0  0.36456  0.19519  0.67092  1.0000
  H   H1348     1.0  0.21703  0.22033  0.80141  1.0000
  S   S224      1.0  0.36493  0.22624  0.62476  1.0000
  C   C1677     1.0  0.36412  0.30907  0.78116  1.0000
  Fe  Fe109     1.0  0.35567  0.20045  0.63204  1.0000
  S   S225      1.0  0.33022  0.19056  0.63383  1.0000
  C   C1678     1.0  0.34805  0.34679  0.90680  1.0000
  H   H1349     1.0  0.26483  0.02549  0.95078  1.0000
  H   H1350     1.0  0.24777  0.45535  0.89099  1.0000
  Fe  Fe110     1.0  0.31140  0.46435  0.72330  1.0000
  S   S226      1.0  0.31674  0.45611  0.76482  1.0000
  H   H1351     1.0  0.35407  0.46113  0.68293  1.0000
  Fe  Fe111     1.0  0.27785  0.44473  0.74379  1.0000
  S   S227      1.0  0.28077  0.43521  0.78729  1.0000
  S   S228      1.0  0.25387  0.44029  0.73516  1.0000
  Fe  Fe112     1.0  0.29384  0.45944  0.78441  1.0000
  S   S229      1.0  0.28907  0.46865  0.82340  1.0000
  Fe  Fe113     1.0  0.30354  0.43268  0.76446  1.0000
  S   S230      1.0  0.31385  0.41293  0.77976  1.0000
  S   S231      1.0  0.28914  0.46929  0.74281  1.0000
  S   S232      1.0  0.29992  0.44048  0.72109  1.0000
  Fe  Fe114     1.0  0.26207  0.29098  0.81264  1.0000
  S   S233      1.0  0.25824  0.31090  0.83043  1.0000
  S   S234      1.0  0.23989  0.27626  0.80836  1.0000
  Fe  Fe115     1.0  0.29641  0.29985  0.81059  1.0000
  S   S235      1.0  0.29518  0.32061  0.82760  1.0000
  S   S236      1.0  0.31797  0.29178  0.79839  1.0000
  Fe  Fe116     1.0  0.27355  0.30459  0.85822  1.0000
  S   S237      1.0  0.26553  0.30288  0.90482  1.0000
  Fe  Fe117     1.0  0.27999  0.32505  0.79835  1.0000
  S   S238      1.0  0.27907  0.34769  0.77066  1.0000
  S   S239      1.0  0.27572  0.28344  0.84321  1.0000
  S   S240      1.0  0.28296  0.30557  0.77850  1.0000
  Fe  Fe118     1.0  0.31968  0.01512  0.79786  1.0000
  C   C1679     1.0  0.19582  0.46261  0.62174  1.0000
  S   S241      1.0  0.33949  0.03599  0.77229  1.0000
  Fe  Fe119     1.0  0.28580  0.00029  0.80132  1.0000
  C   C1680     1.0  0.25281  0.48010  0.88500  1.0000
  S   S242      1.0  0.26470  0.00558  0.78772  1.0000
  C   C1681     1.0  0.23290  0.01472  0.67995  1.0000
  H   H1352     1.0  0.21320  0.46961  0.49229  1.0000
  C   C1682     1.0  0.18585  0.07768  0.76606  1.0000
  S   S243      1.0  0.29715  0.01745  0.82204  1.0000
  S   S244      1.0  0.30842  0.99955  0.77429  1.0000
  C   C1683     1.0  0.31901  0.00150  0.90799  1.0000
  Fe  Fe120     1.0  0.24268  0.14246  0.57137  1.0000
  S   S245      1.0  0.25141  0.13100  0.60692  1.0000
  S   S246      1.0  0.23262  0.16325  0.57348  1.0000
  Fe  Fe121     1.0  0.25439  0.12332  0.53162  1.0000
  S   S247      1.0  0.26397  0.11064  0.56531  1.0000
  Fe  Fe122     1.0  0.24177  0.10873  0.59639  1.0000
  S   S248      1.0  0.23062  0.08790  0.63510  1.0000
  Fe  Fe123     1.0  0.27289  0.13375  0.57345  1.0000
  S   S249      1.0  0.29782  0.14074  0.57687  1.0000
  S   S250      1.0  0.23146  0.12009  0.56274  1.0000
  S   S251      1.0  0.26485  0.14650  0.53799  1.0000
  Fe  Fe124     1.0  0.20874  0.22447  0.71539  1.0000
  C   C1684     1.0  0.35520  0.26014  0.64571  1.0000
  S   S252      1.0  0.23213  0.23710  0.71861  1.0000
  Fe  Fe125     1.0  0.19488  0.19536  0.69878  1.0000
  S   S253      1.0  0.20084  0.17318  0.69180  1.0000
  C   C1685     1.0  0.36472  0.05751  0.92205  1.0000
  C   C1686     1.0  0.30052  0.02483  0.71268  1.0000
  S   S254      1.0  0.20769  0.21949  0.67361  1.0000
  S   S255      1.0  0.19738  0.19984  0.74029  1.0000
  C   C1687     1.0  0.37433  0.07279  0.96286  1.0000
  C   C1688     1.0  0.20428  0.03855  0.63837  1.0000
  C   C1689     1.0  0.25411  0.37658  0.80623  1.0000
  H   H1353     1.0  0.22075  0.05919  0.67865  1.0000
  C   C1690     1.0  0.22437  0.16613  0.60666  1.0000
  C   C1691     1.0  0.21963  0.15397  0.63137  1.0000
  C   C1692     1.0  0.21264  0.15641  0.65729  1.0000
  C   C1693     1.0  0.21036  0.17101  0.65884  1.0000
  C   C1694     1.0  0.21551  0.18331  0.63430  1.0000
  C   C1695     1.0  0.22241  0.18085  0.60830  1.0000
  H   H1354     1.0  0.22110  0.14261  0.63043  1.0000
  H   H1355     1.0  0.20877  0.14686  0.67618  1.0000
  H   H1356     1.0  0.21770  0.09126  0.69517  1.0000
  C   C1696     1.0  0.25034  0.46655  0.87595  1.0000
  C   C1697     1.0  0.20432  0.01766  0.79706  1.0000
  Fe  Fe126     1.0  0.29761  0.99669  0.85496  1.0000
  C   C1698     1.0  0.33149  0.39070  0.71336  1.0000
  H   H1357     1.0  0.22587  0.20558  0.76826  1.0000
  C   C1699     1.0  0.35951  0.45882  0.66342  1.0000
  H   H1358     1.0  0.35151  0.00814  0.79239  1.0000
  C   C1700     1.0  0.23012  0.21492  0.89699  1.0000
  C   C1701     1.0  0.36568  0.44555  0.72420  1.0000
  H   H1359     1.0  0.37496  0.02910  0.76942  1.0000
  C   C1702     1.0  0.18739  0.23961  0.84769  1.0000
  C   C1703     1.0  0.34689  0.39016  0.70912  1.0000
  H   H1360     1.0  0.33344  0.15694  0.65576  1.0000
  H   H1361     1.0  0.21779  0.45567  0.66831  1.0000
  H   H1362     1.0  0.19814  0.46256  0.73887  1.0000
  H   H1363     1.0  0.37398  0.24848  0.74154  1.0000
  C   C1704     1.0  0.21702  0.20926  0.88832  1.0000
  C   C1705     1.0  0.20844  0.18033  0.52661  1.0000
  C   C1706     1.0  0.27940  0.30561  0.92417  1.0000
  H   H1364     1.0  0.21926  0.07474  0.59237  1.0000
  C   C1707     1.0  0.29509  0.31101  0.91053  1.0000
  C   C1708     1.0  0.24271  0.99656  0.97749  1.0000
  H   H1365     1.0  0.29888  0.31340  0.88778  1.0000
  C   C1709     1.0  0.23805  0.26584  0.78263  1.0000
  C   C1710     1.0  0.25090  0.26430  0.76394  1.0000
  C   C1711     1.0  0.24887  0.25554  0.74432  1.0000
  C   C1712     1.0  0.23405  0.24823  0.74326  1.0000
  C   C1713     1.0  0.22122  0.24986  0.76185  1.0000
  C   C1714     1.0  0.22324  0.25865  0.78140  1.0000
  H   H1366     1.0  0.26234  0.26978  0.76475  1.0000
  H   H1367     1.0  0.25882  0.25441  0.72992  1.0000
  H   H1368     1.0  0.20975  0.24436  0.76118  1.0000
  H   H1369     1.0  0.21324  0.25988  0.79564  1.0000
  C   C1715     1.0  0.21707  0.05690  0.66046  1.0000
  H   H1370     1.0  0.36507  0.25765  0.63315  1.0000
  H   H1371     1.0  0.33691  0.15243  0.50485  1.0000
  C   C1716     1.0  0.19662  0.03038  0.75664  1.0000
  H   H1372     1.0  0.22632  0.19039  0.58940  1.0000
  H   H1373     1.0  0.25420  0.16352  0.61287  1.0000
  C   C1717     1.0  0.30411  0.39474  0.77775  1.0000
  C   C1718     1.0  0.29257  0.39359  0.76344  1.0000
  C   C1719     1.0  0.28533  0.37913  0.76079  1.0000
  C   C1720     1.0  0.28898  0.36562  0.77368  1.0000
  C   C1721     1.0  0.30042  0.36672  0.78834  1.0000
  C   C1722     1.0  0.30815  0.38132  0.78999  1.0000
  H   H1374     1.0  0.28940  0.40388  0.75389  1.0000
  H   H1375     1.0  0.27662  0.37848  0.74922  1.0000
  H   H1376     1.0  0.30333  0.35638  0.79834  1.0000
  H   H1377     1.0  0.31716  0.38221  0.80091  1.0000
  C   C1723     1.0  0.27044  0.47049  0.96303  1.0000
  C   C1724     1.0  0.35225  0.32167  0.81450  1.0000
  C   C1725     1.0  0.33755  0.31364  0.81407  1.0000
  C   C1726     1.0  0.33611  0.30316  0.79746  1.0000
  C   C1727     1.0  0.34944  0.30097  0.78092  1.0000
  H   H1378     1.0  0.23725  0.20011  0.67163  1.0000
  H   H1379     1.0  0.35330  0.32951  0.82785  1.0000
  H   H1380     1.0  0.32736  0.31517  0.82725  1.0000
  H   H1381     1.0  0.34842  0.29303  0.76777  1.0000
  C   C1728     1.0  0.20015  0.22732  0.59836  1.0000
  C   C1729     1.0  0.36524  0.04670  0.82641  1.0000
  C   C1730     1.0  0.35367  0.03933  0.81547  1.0000
  C   C1731     1.0  0.35344  0.04517  0.78741  1.0000
  C   C1732     1.0  0.36493  0.05839  0.77046  1.0000
  H   H1382     1.0  0.29208  0.13348  0.49398  1.0000
  C   C1733     1.0  0.20214  0.43600  0.83314  1.0000
  H   H1383     1.0  0.34499  0.02909  0.82873  1.0000
  H   H1384     1.0  0.36489  0.06291  0.74871  1.0000
  C   C1734     1.0  0.25138  0.46747  0.84736  1.0000
  C   C1735     1.0  0.28314  0.19454  0.57225  1.0000
  C   C1736     1.0  0.30118  0.31005  0.95598  1.0000
  H   H1385     1.0  0.20591  0.03270  0.68138  1.0000
  H   H1386     1.0  0.21436  0.42033  0.68917  1.0000
  H   H1387     1.0  0.36845  0.09179  0.75064  1.0000
  H   H1388     1.0  0.31795  0.31810  0.91550  1.0000
  C   C1737     1.0  0.21298  0.44685  0.60760  1.0000
  H   H1389     1.0  0.33881  0.48480  0.73550  1.0000
  C   C1738     1.0  0.32155  0.17688  0.61725  1.0000
  C   C1739     1.0  0.33020  0.16992  0.59965  1.0000
  C   C1740     1.0  0.32274  0.15887  0.58761  1.0000
  C   C1741     1.0  0.30658  0.15472  0.59272  1.0000
  C   C1742     1.0  0.29795  0.16166  0.61032  1.0000
  C   C1743     1.0  0.30538  0.17266  0.62245  1.0000
  H   H1390     1.0  0.34263  0.17300  0.59542  1.0000
  H   H1391     1.0  0.32956  0.15358  0.57405  1.0000
  H   H1392     1.0  0.28553  0.15836  0.61495  1.0000
  H   H1393     1.0  0.29850  0.17779  0.63620  1.0000
  C   C1744     1.0  0.22621  0.45294  0.50215  1.0000
  C   C1745     1.0  0.21314  0.45872  0.50605  1.0000
  C   C1746     1.0  0.19998  0.45039  0.52791  1.0000
  C   C1747     1.0  0.19972  0.43618  0.54575  1.0000
  C   C1748     1.0  0.21285  0.43051  0.54207  1.0000
  C   C1749     1.0  0.22606  0.43887  0.52030  1.0000
  C   C1750     1.0  0.26202  0.17496  0.60652  1.0000
  H   H1394     1.0  0.24983  0.45700  0.84019  1.0000
  H   H1395     1.0  0.21279  0.41961  0.55578  1.0000
  H   H1396     1.0  0.23616  0.43437  0.51739  1.0000
  C   C1751     1.0  0.23398  0.41100  0.67965  1.0000
  C   C1752     1.0  0.24857  0.41077  0.68433  1.0000
  C   C1753     1.0  0.25488  0.41969  0.70106  1.0000
  C   C1754     1.0  0.24662  0.42895  0.71346  1.0000
  C   C1755     1.0  0.23194  0.42903  0.70905  1.0000
  C   C1756     1.0  0.22565  0.42013  0.69231  1.0000
  H   H1397     1.0  0.25505  0.40360  0.67498  1.0000
  H   H1398     1.0  0.26610  0.41934  0.70442  1.0000
  H   H1399     1.0  0.22541  0.43609  0.71854  1.0000
  C   C1757     1.0  0.32774  0.40490  0.71162  1.0000
  C   C1758     1.0  0.33924  0.41846  0.70688  1.0000
  C   C1759     1.0  0.35471  0.41799  0.70345  1.0000
  H   H1400     1.0  0.30499  0.38826  0.92853  1.0000
  H   H1401     1.0  0.33482  0.12767  0.53871  1.0000
  Fe  Fe127     1.0  0.37557  0.22085  0.66129  1.0000
  C   C1760     1.0  0.33464  0.19934  0.51686  1.0000
  C   C1761     1.0  0.35522  0.06410  0.88030  1.0000
  C   C1762     1.0  0.37783  0.01452  0.96986  1.0000
  H   H1402     1.0  0.33679  0.99298  0.70892  1.0000
  C   C1763     1.0  0.22890  0.99059  0.75564  1.0000
  H   H1403     1.0  0.31584  0.40543  0.71444  1.0000
  H   H1404     1.0  0.32534  0.22106  0.62920  1.0000
  C   C1764     1.0  0.21331  0.45549  0.64993  1.0000
  C   C1765     1.0  0.30454  0.37275  0.96753  1.0000
  C   C1766     1.0  0.25190  0.33516  0.88221  1.0000
  H   H1405     1.0  0.21327  0.01687  0.75419  1.0000
  H   H1406     1.0  0.19127  0.24109  0.86621  1.0000
  H   H1407     1.0  0.26246  0.29838  0.96437  1.0000
  H   H1408     1.0  0.18858  0.20978  0.91782  1.0000
  H   H1409     1.0  0.19419  0.34331  0.78686  1.0000
  C   C1767     1.0  0.33107  0.13313  0.67732  1.0000
  C   C1768     1.0  0.33857  0.12234  0.68867  1.0000
  C   C1769     1.0  0.35438  0.12690  0.68686  1.0000
  C   C1770     1.0  0.36244  0.14246  0.67418  1.0000
  P   P59       1.0  0.36412  0.11327  0.70234  1.0000
  C   C1771     1.0  0.35421  0.09386  0.70317  1.0000
  H   H1410     1.0  0.29338  0.18005  0.48969  1.0000
  H   H1411     1.0  0.33914  0.20746  0.52799  1.0000
  C   C1772     1.0  0.37648  0.06577  0.78142  1.0000
  C   C1773     1.0  0.34220  0.20068  0.48887  1.0000
  C   C1774     1.0  0.18599  0.46008  0.78221  1.0000
  S   S256      1.0  0.33896  0.00569  0.97188  1.0000
  C   C1775     1.0  0.27329  0.02546  0.96300  1.0000
  C   C1776     1.0  0.35064  0.07255  0.68111  1.0000
  C   C1777     1.0  0.33932  0.06341  0.70535  1.0000
  C   C1778     1.0  0.33516  0.06956  0.72820  1.0000
  C   C1779     1.0  0.34244  0.08476  0.72705  1.0000
  C   C1780     1.0  0.36411  0.11434  0.73799  1.0000
  C   C1781     1.0  0.36193  0.12754  0.74681  1.0000
  C   C1782     1.0  0.18543  0.18664  0.54994  1.0000
  H   H1412     1.0  0.32287  0.00305  0.88548  1.0000
  C   C1783     1.0  0.21888  0.44737  0.63106  1.0000
  C   C1784     1.0  0.36655  0.10197  0.75712  1.0000
  C   C1785     1.0  0.27956  0.46777  0.93944  1.0000
  C   C1786     1.0  0.23445  0.23986  0.86392  1.0000
  H   H1413     1.0  0.31888  0.12961  0.67858  1.0000
  H   H1414     1.0  0.33199  0.11050  0.69887  1.0000
  S   S257      1.0  0.18796  0.41195  0.64955  1.0000
  H   H1415     1.0  0.25583  0.48244  0.80569  1.0000
  C   C1787     1.0  0.29268  0.48853  0.96698  1.0000
  H   H1416     1.0  0.37706  0.45015  0.59284  1.0000
  C   C1788     1.0  0.20319  0.18104  0.50219  1.0000
  C   C1789     1.0  0.36240  0.31168  0.96323  1.0000
  H   H1417     1.0  0.19531  0.20261  0.61258  1.0000
  C   C1790     1.0  0.29622  0.34539  0.97117  1.0000
  H   H1418     1.0  0.33384  0.05150  0.70666  1.0000
  H   H1419     1.0  0.32653  0.06238  0.74716  1.0000
  H   H1420     1.0  0.33898  0.08926  0.74504  1.0000
  H   H1421     1.0  0.37035  0.40312  0.69942  1.0000
  C   C1791     1.0  0.19471  0.02381  0.81459  1.0000
  C   C1792     1.0  0.37297  0.46771  0.74269  1.0000
  H   H1422     1.0  0.20227  0.25163  0.58164  1.0000
  C   C1793     1.0  0.18824  0.22637  0.83802  1.0000
  C   C1794     1.0  0.33713  0.29546  0.90154  1.0000
  H   H1423     1.0  0.21204  0.31692  0.84592  1.0000
  H   H1424     1.0  0.32138  0.26977  0.69316  1.0000
  C   C1795     1.0  0.23449  0.47448  0.76596  1.0000
  H   H1425     1.0  0.27576  0.38536  0.92619  1.0000
  H   H1426     1.0  0.29679  0.41916  0.82831  1.0000
  H   H1427     1.0  0.35625  0.36961  0.87822  1.0000
  H   H1428     1.0  0.30169  0.39329  0.83990  1.0000
  H   H1429     1.0  0.31811  0.18779  0.69339  1.0000
  S   S258      1.0  0.28936  0.99443  0.90198  1.0000
  H   H1430     1.0  0.30884  0.01860  0.71813  1.0000
  C   C1796     1.0  0.20148  0.17561  0.82150  1.0000
  C   C1797     1.0  0.21268  0.20783  0.80730  1.0000
  H   H1431     1.0  0.36908  0.09331  0.79903  1.0000
  H   H1432     1.0  0.29173  0.19824  0.55214  1.0000
  C   C1798     1.0  0.20681  0.09771  0.73189  1.0000
  H   H1433     1.0  0.21924  0.38576  0.72340  1.0000
  C   C1799     1.0  0.19663  0.40114  0.49799  1.0000
  H   H1434     1.0  0.37432  0.30732  0.76832  1.0000
  C   C1800     1.0  0.21532  0.39431  0.52330  1.0000
  C   C1801     1.0  0.20379  0.38222  0.54297  1.0000
  H   H1435     1.0  0.37837  0.36335  0.84902  1.0000
  C   C1802     1.0  0.18740  0.06757  0.74866  1.0000
  C   C1803     1.0  0.36099  0.46078  0.76720  1.0000
  C   C1804     1.0  0.36556  0.31937  0.79810  1.0000
  C   C1805     1.0  0.25216  0.99458  0.95330  1.0000
  C   C1806     1.0  0.28364  0.41694  0.87042  1.0000
  C   C1807     1.0  0.34506  0.24854  0.66862  1.0000
  H   H1436     1.0  0.30580  0.16713  0.52798  1.0000
  H   H1437     1.0  0.32898  0.03443  0.93106  1.0000
  C   C1808     1.0  0.23877  0.23026  0.88491  1.0000
  C   C1809     1.0  0.29733  0.03621  0.72607  1.0000
  C   C1810     1.0  0.21268  0.47272  0.83913  1.0000
  H   H1438     1.0  0.36047  0.13745  0.73240  1.0000
  H   H1439     1.0  0.22007  0.29772  0.82149  1.0000
  C   C1811     1.0  0.35048  0.28638  0.95884  1.0000
  C   C1812     1.0  0.32503  0.00214  0.95300  1.0000
  H   H1440     1.0  0.27453  0.45981  0.92855  1.0000
  H   H1441     1.0  0.20649  0.37487  0.56037  1.0000
  C   C1813     1.0  0.20147  0.45433  0.60311  1.0000
  C   C1814     1.0  0.38156  0.04243  0.96069  1.0000
  C   C1815     1.0  0.32685  0.14290  0.50912  1.0000
  H   H1442     1.0  0.31576  0.18611  0.55261  1.0000
  S   S259      1.0  0.19393  0.01974  0.63891  1.0000
  H   H1443     1.0  0.23356  0.20743  0.91308  1.0000
  H   H1444     1.0  0.18847  0.17764  0.86061  1.0000
  H   H1445     1.0  0.26093  0.37220  0.81979  1.0000
  H   H1446     1.0  0.36692  0.09453  0.66116  1.0000
  H   H1447     1.0  0.23457  0.00594  0.78142  1.0000
  C   C1816     1.0  0.32334  0.17784  0.48855  1.0000
  C   C1817     1.0  0.31276  0.11651  0.53434  1.0000
  H   H1448     1.0  0.35888  0.33824  0.59116  1.0000
  H   H1449     1.0  0.23082  0.25183  0.60711  1.0000
  C   C1818     1.0  0.37659  0.06007  0.80958  1.0000
  C   C1819     1.0  0.21957  0.47644  0.76720  1.0000
  H   H1450     1.0  0.35662  0.26349  0.76507  1.0000
  C   C1820     1.0  0.27769  0.40735  0.89796  1.0000
  H   H1451     1.0  0.21092  0.01023  0.80598  1.0000
  C   C1821     1.0  0.37535  0.01728  0.76980  1.0000
  C   C1822     1.0  0.32145  0.18733  0.53072  1.0000
  H   H1452     1.0  0.30994  0.04464  0.95852  1.0000
  C   C1823     1.0  0.20874  0.04182  0.66203  1.0000
  C   C1824     1.0  0.37230  0.45266  0.61252  1.0000
  H   H1453     1.0  0.27395  0.17192  0.56717  1.0000
  C   C1825     1.0  0.28547  0.30462  0.96966  1.0000
  H   H1454     1.0  0.31234  0.21323  0.69059  1.0000
  H   H1455     1.0  0.34711  0.36175  0.82183  1.0000
  C   C1826     1.0  0.35748  0.46688  0.63797  1.0000
  C   C1827     1.0  0.23825  0.24447  0.61276  1.0000
  C   C1828     1.0  0.18927  0.18492  0.50130  1.0000
  C   C1829     1.0  0.30591  0.31346  0.92635  1.0000
  C   C1830     1.0  0.37315  0.09841  0.96828  1.0000
  C   C1831     1.0  0.28639  0.04407  0.71940  1.0000
  C   C1832     1.0  0.27837  0.04040  0.69959  1.0000
  C   C1833     1.0  0.28182  0.02908  0.68597  1.0000
  P   P60       1.0  0.26383  0.05021  0.69174  1.0000
  C   C1834     1.0  0.25146  0.05078  0.72459  1.0000
  C   C1835     1.0  0.27279  0.06972  0.66930  1.0000
  C   C1836     1.0  0.26408  0.07835  0.65568  1.0000
  C   C1837     1.0  0.27087  0.09348  0.63882  1.0000
  C   C1838     1.0  0.28645  0.10017  0.63523  1.0000
  C   C1839     1.0  0.29528  0.09170  0.64854  1.0000
  C   C1840     1.0  0.28851  0.07654  0.66551  1.0000
  C   C1841     1.0  0.24244  0.06155  0.72492  1.0000
  C   C1842     1.0  0.23295  0.06191  0.75039  1.0000
  C   C1843     1.0  0.23238  0.05155  0.77573  1.0000
  C   C1844     1.0  0.24108  0.04063  0.77556  1.0000
  C   C1845     1.0  0.25038  0.04008  0.75011  1.0000
  C   C1846     1.0  0.25165  0.03863  0.67566  1.0000
  C   C1847     1.0  0.24206  0.02415  0.69205  1.0000
  H   H1456     1.0  0.32451  0.33925  0.84455  1.0000
  H   H1457     1.0  0.37160  0.02831  0.93588  1.0000
  C   C1848     1.0  0.24270  0.03403  0.63494  1.0000
  C   C1849     1.0  0.25214  0.04336  0.64680  1.0000
  C   C1850     1.0  0.20179  0.20017  0.83319  1.0000
  H   H1458     1.0  0.33882  0.28996  0.65171  1.0000
  C   C1851     1.0  0.29847  0.99557  0.95059  1.0000
  H   H1459     1.0  0.28390  0.05273  0.73021  1.0000
  H   H1460     1.0  0.27590  0.02603  0.67054  1.0000
  H   H1461     1.0  0.25202  0.07335  0.65780  1.0000
  H   H1462     1.0  0.26400  0.10003  0.62848  1.0000
  H   H1463     1.0  0.29165  0.11192  0.62207  1.0000
  H   H1464     1.0  0.30738  0.09691  0.64568  1.0000
  H   H1465     1.0  0.29563  0.07027  0.67549  1.0000
  H   H1466     1.0  0.24256  0.06964  0.70568  1.0000
  H   H1467     1.0  0.22603  0.07023  0.75045  1.0000
  H   H1468     1.0  0.22502  0.05181  0.79543  1.0000
  H   H1469     1.0  0.24056  0.03241  0.79509  1.0000
  H   H1470     1.0  0.25666  0.03121  0.75056  1.0000
  C   C1852     1.0  0.32986  0.00379  0.92383  1.0000
  P   P61       1.0  0.36927  0.43592  0.69650  1.0000
  C   C1853     1.0  0.24712  0.48456  0.74500  1.0000
  H   H1471     1.0  0.24263  0.03797  0.61298  1.0000
  H   H1472     1.0  0.25972  0.05419  0.63328  1.0000
  H   H1473     1.0  0.33241  0.29979  0.91906  1.0000
  C   C1854     1.0  0.31102  0.35231  0.86547  1.0000
  H   H1474     1.0  0.31476  0.28653  0.89561  1.0000
  H   H1475     1.0  0.23646  0.46510  0.78095  1.0000
  S   S260      1.0  0.19169  0.99751  0.71812  1.0000
  H   H1476     1.0  0.31172  0.09939  0.48451  1.0000
  C   C1855     1.0  0.36797  0.44758  0.66357  1.0000
  H   H1477     1.0  0.20482  0.04814  0.59486  1.0000
  H   H1478     1.0  0.30885  0.26220  0.62042  1.0000
  H   H1479     1.0  0.18531  0.18565  0.48223  1.0000
  C   C1856     1.0  0.32269  0.19515  0.70569  1.0000
  H   H1480     1.0  0.30169  0.24370  0.76796  1.0000
  H   H1481     1.0  0.18622  0.24736  0.54834  1.0000
  H   H1482     1.0  0.34781  0.27847  0.94616  1.0000
  H   H1483     1.0  0.34652  0.38742  0.83090  1.0000
  H   H1484     1.0  0.19666  0.45328  0.58546  1.0000
  C   C1857     1.0  0.35810  0.08771  0.68002  1.0000
  H   H1485     1.0  0.22559  0.01260  0.64240  1.0000
  P   P62       1.0  0.20328  0.46354  0.79452  1.0000
  C   C1858     1.0  0.19544  0.09276  0.75754  1.0000
  H   H1486     1.0  0.36085  0.28397  0.62173  1.0000
  C   C1859     1.0  0.30223  0.37623  0.94035  1.0000
  H   H1487     1.0  0.19695  0.16316  0.82682  1.0000
  H   H1488     1.0  0.22756  0.44124  0.63484  1.0000
  P   P63       1.0  0.29350  0.36878  0.89356  1.0000
  H   H1489     1.0  0.21412  0.19467  0.63539  1.0000
  C   C1860     1.0  0.27314  0.17974  0.58064  1.0000
  C   C1861     1.0  0.33051  0.26686  0.67953  1.0000
  H   H1490     1.0  0.18999  0.45502  0.53113  1.0000
  H   H1491     1.0  0.25198  0.47947  0.90713  1.0000
  C   C1862     1.0  0.37518  0.46024  0.72109  1.0000
  H   H1492     1.0  0.22698  0.39647  0.52561  1.0000
  H   H1493     1.0  0.24662  0.35481  0.79736  1.0000
  H   H1494     1.0  0.22548  0.18430  0.72037  1.0000
  H   H1495     1.0  0.34610  0.19643  0.75018  1.0000
  C   C1863     1.0  0.30174  0.13234  0.50281  1.0000
  C   C1864     1.0  0.35054  0.33202  0.91391  1.0000
  H   H1496     1.0  0.24383  0.32856  0.92762  1.0000
  H   H1497     1.0  0.35894  0.46686  0.78345  1.0000
  C   C1865     1.0  0.23308  0.01972  0.65151  1.0000
  H   H1498     1.0  0.20400  0.18277  0.56894  1.0000
  H   H1499     1.0  0.33484  0.17924  0.72329  1.0000
  H   H1500     1.0  0.33599  0.42930  0.70621  1.0000
  C   C1866     1.0  0.27461  0.30256  0.95374  1.0000
  H   H1501     1.0  0.22074  0.48047  0.87264  1.0000
  H   H1502     1.0  0.34657  0.42703  0.75251  1.0000
  C   C1867     1.0  0.20549  0.02120  0.76802  1.0000
  C   C1868     1.0  0.19042  0.48089  0.82879  1.0000
  H   H1503     1.0  0.28146  0.42832  0.86495  1.0000
  C   C1869     1.0  0.32576  0.12885  0.52818  1.0000
  C   C1870     1.0  0.20694  0.44472  0.80476  1.0000
  C   C1871     1.0  0.18865  0.37972  0.54061  1.0000
  H   H1504     1.0  0.21705  0.44027  0.59327  1.0000
  H   H1505     1.0  0.36096  0.13865  0.78083  1.0000
  C   C1872     1.0  0.19331  0.21222  0.59827  1.0000
  H   H1506     1.0  0.37285  0.33454  0.67662  1.0000
  H   H1507     1.0  0.26535  0.34719  0.93436  1.0000
  C   C1873     1.0  0.21667  0.42366  0.79157  1.0000
  C   C1874     1.0  0.21400  0.43833  0.78398  1.0000
  C   C1875     1.0  0.21645  0.06563  0.61177  1.0000
  C   C1876     1.0  0.21212  0.48032  0.86069  1.0000
  C   C1877     1.0  0.21215  0.41515  0.81991  1.0000
  H   H1508     1.0  0.29511  0.01227  0.68262  1.0000
  C   C1878     1.0  0.30327  0.99739  0.92130  1.0000
  H   H1509     1.0  0.33815  0.34930  0.91927  1.0000
  H   H1510     1.0  0.22563  0.00352  0.69264  1.0000
  H   H1511     1.0  0.26125  0.40000  0.80920  1.0000
  C   C1879     1.0  0.20882  0.08750  0.71504  1.0000
  H   H1512     1.0  0.34249  0.32341  0.93189  1.0000
  C   C1880     1.0  0.30931  0.99798  0.96638  1.0000
  H   H1513     1.0  0.22228  0.41894  0.77534  1.0000
  H   H1514     1.0  0.21757  0.44471  0.76187  1.0000
  C   C1881     1.0  0.28986  0.38772  0.88435  1.0000
  C   C1882     1.0  0.33905  0.35614  0.63361  1.0000
  C   C1883     1.0  0.34694  0.35343  0.60887  1.0000
  C   C1884     1.0  0.35284  0.34039  0.61036  1.0000
  C   C1885     1.0  0.35090  0.33006  0.63660  1.0000
  C   C1886     1.0  0.34318  0.33283  0.66160  1.0000
  C   C1887     1.0  0.33710  0.34586  0.65989  1.0000
  P   P64       1.0  0.34006  0.31898  0.69518  1.0000
  C   C1888     1.0  0.32283  0.30375  0.70113  1.0000
  C   C1889     1.0  0.35710  0.31173  0.69432  1.0000
  C   C1890     1.0  0.35606  0.29578  0.70307  1.0000
  C   C1891     1.0  0.32420  0.35051  0.84808  1.0000
  C   C1892     1.0  0.29527  0.39716  0.85649  1.0000
  C   C1893     1.0  0.31714  0.29276  0.72743  1.0000
  C   C1894     1.0  0.30306  0.28180  0.73368  1.0000
  C   C1895     1.0  0.29463  0.28155  0.71344  1.0000
  C   C1896     1.0  0.30030  0.29230  0.68694  1.0000
  C   C1897     1.0  0.31431  0.30344  0.68080  1.0000
  C   C1898     1.0  0.33708  0.32869  0.72312  1.0000
  C   C1899     1.0  0.32239  0.33066  0.73375  1.0000
  C   C1900     1.0  0.32004  0.33884  0.75422  1.0000
  C   C1901     1.0  0.33226  0.34501  0.76453  1.0000
  C   C1902     1.0  0.34688  0.34300  0.75431  1.0000
  C   C1903     1.0  0.34930  0.33483  0.73378  1.0000
  H   H1515     1.0  0.33434  0.36618  0.63244  1.0000
  H   H1516     1.0  0.18241  0.21405  0.80741  1.0000
  H   H1517     1.0  0.35541  0.31993  0.63735  1.0000
  H   H1518     1.0  0.33080  0.34813  0.67868  1.0000
  H   H1519     1.0  0.34505  0.28736  0.71136  1.0000
  C   C1904     1.0  0.27583  0.35505  0.86236  1.0000
  H   H1520     1.0  0.32356  0.29288  0.74322  1.0000
  H   H1521     1.0  0.29854  0.27375  0.75453  1.0000
  H   H1522     1.0  0.28359  0.27321  0.71847  1.0000
  H   H1523     1.0  0.29359  0.29225  0.67146  1.0000
  H   H1524     1.0  0.31821  0.31192  0.66047  1.0000
  H   H1525     1.0  0.31269  0.32595  0.72617  1.0000
  H   H1526     1.0  0.30866  0.34026  0.76228  1.0000
  H   H1527     1.0  0.33032  0.35111  0.78076  1.0000
  H   H1528     1.0  0.35630  0.34738  0.76286  1.0000
  H   H1529     1.0  0.36065  0.33317  0.72689  1.0000
  C   C1905     1.0  0.35397  0.43843  0.74926  1.0000
  H   H1530     1.0  0.29018  0.33935  0.93498  1.0000
  C   C1906     1.0  0.19651  0.18394  0.84050  1.0000
  S   S261      1.0  0.18280  0.42589  0.57241  1.0000
  H   H1531     1.0  0.30203  0.25098  0.68185  1.0000
  S   S262      1.0  0.32097  0.99551  0.83224  1.0000
  C   C1907     1.0  0.33694  0.36319  0.83538  1.0000
  C   C1908     1.0  0.25296  0.99519  0.77025  1.0000
  H   H1532     1.0  0.21559  0.17695  0.78054  1.0000
  C   C1909     1.0  0.31487  0.14473  0.49620  1.0000
  C   C1910     1.0  0.29878  0.03640  0.96715  1.0000
  C   C1911     1.0  0.33662  0.37760  0.84060  1.0000
  C   C1912     1.0  0.35287  0.27502  0.63940  1.0000
  C   C1913     1.0  0.34171  0.05234  0.89328  1.0000
  C   C1914     1.0  0.33941  0.04359  0.92099  1.0000
  C   C1915     1.0  0.35075  0.04633  0.93552  1.0000
  C   C1916     1.0  0.35852  0.40379  0.70363  1.0000
  H   H1533     1.0  0.36540  0.11679  0.81415  1.0000
  H   H1534     1.0  0.35708  0.07089  0.85876  1.0000
  C   C1917     1.0  0.20185  0.46310  0.64533  1.0000
  H   H1535     1.0  0.33040  0.24954  0.62060  1.0000
  C   C1918     1.0  0.25263  0.33621  0.90939  1.0000
  H   H1536     1.0  0.34980  0.37915  0.71004  1.0000
  S   S263      1.0  0.37343  0.23287  0.69740  1.0000
  C   C1919     1.0  0.35494  0.15319  0.66278  1.0000
  C   C1920     1.0  0.21179  0.40373  0.50085  1.0000
  H   H1537     1.0  0.34203  0.00711  0.91336  1.0000
  C   C1921     1.0  0.21782  0.19946  0.78857  1.0000
  H   H1538     1.0  0.20690  0.22922  0.61324  1.0000
  C   C1922     1.0  0.29524  0.47530  0.92981  1.0000
  H   H1539     1.0  0.21414  0.10944  0.72507  1.0000
  H   H1540     1.0  0.20113  0.41460  0.86260  1.0000
  H   H1541     1.0  0.27076  0.41125  0.91394  1.0000
  H   H1542     1.0  0.33308  0.04994  0.88181  1.0000
  H   H1543     1.0  0.34733  0.23721  0.67343  1.0000
  H   H1544     1.0  0.24127  0.25170  0.85426  1.0000
  C   C1923     1.0  0.36226  0.98995  0.78471  1.0000
  C   C1924     1.0  0.26343  0.34469  0.85868  1.0000
  C   C1925     1.0  0.19933  0.07242  0.72364  1.0000
  H   H1545     1.0  0.20358  0.47828  0.56067  1.0000
  C   C1926     1.0  0.20820  0.05054  0.61328  1.0000
  H   H1546     1.0  0.19379  0.02106  0.83712  1.0000
  H   H1547     1.0  0.21925  0.17734  0.52742  1.0000
  H   H1548     1.0  0.35000  0.25091  0.72841  1.0000
  H   H1549     1.0  0.34211  0.44076  0.78934  1.0000
  H   H1550     1.0  0.22093  0.41302  0.48602  1.0000
  H   H1551     1.0  0.29070  0.10870  0.52636  1.0000
  C   C1927     1.0  0.27097  0.19975  0.61599  1.0000
  C   C1928     1.0  0.26078  0.18495  0.62401  1.0000
  P   P65       1.0  0.26935  0.21288  0.63818  1.0000
  C   C1929     1.0  0.26082  0.20166  0.67448  1.0000
  C   C1930     1.0  0.28855  0.22454  0.63412  1.0000
  C   C1931     1.0  0.30089  0.21754  0.63401  1.0000
  C   C1932     1.0  0.31587  0.22655  0.62946  1.0000
  C   C1933     1.0  0.31873  0.24261  0.62464  1.0000
  C   C1934     1.0  0.30658  0.24971  0.62448  1.0000
  C   C1935     1.0  0.29155  0.24074  0.62921  1.0000
  C   C1936     1.0  0.27002  0.19691  0.69216  1.0000
  C   C1937     1.0  0.26320  0.18774  0.71985  1.0000
  C   C1938     1.0  0.24717  0.18330  0.73014  1.0000
  C   C1939     1.0  0.23793  0.18793  0.71269  1.0000
  C   C1940     1.0  0.24470  0.19700  0.68496  1.0000
  C   C1941     1.0  0.25703  0.22505  0.62810  1.0000
  C   C1942     1.0  0.25288  0.22606  0.60240  1.0000
  C   C1943     1.0  0.24347  0.23571  0.59484  1.0000
  H   H1552     1.0  0.20123  0.06460  0.71055  1.0000
  C   C1944     1.0  0.24224  0.24343  0.63844  1.0000
  C   C1945     1.0  0.25143  0.23363  0.64624  1.0000
  H   H1553     1.0  0.25179  0.18104  0.64361  1.0000
  H   H1554     1.0  0.29903  0.20513  0.63697  1.0000
  C   C1946     1.0  0.32351  0.37937  0.85835  1.0000
  H   H1555     1.0  0.24888  0.23471  0.89166  1.0000
  H   H1556     1.0  0.28981  0.21604  0.58282  1.0000
  H   H1557     1.0  0.28242  0.24656  0.62855  1.0000
  H   H1558     1.0  0.28242  0.20013  0.68474  1.0000
  H   H1559     1.0  0.27036  0.18403  0.73330  1.0000
  H   H1560     1.0  0.24190  0.17611  0.75151  1.0000
  H   H1561     1.0  0.25672  0.21931  0.58829  1.0000
  H   H1562     1.0  0.31173  0.10573  0.54956  1.0000
  H   H1563     1.0  0.36533  0.04206  0.84813  1.0000
  H   H1564     1.0  0.23778  0.24982  0.65282  1.0000
  H   H1565     1.0  0.25399  0.23263  0.66662  1.0000
  H   H1566     1.0  0.38018  0.43534  0.63782  1.0000
  C   C1947     1.0  0.31043  0.36685  0.87018  1.0000
  Fe  Fe128     1.0  0.18423  0.40715  0.60877  1.0000
  C   C1948     1.0  0.29395  0.34880  0.94396  1.0000
  H   H1567     1.0  0.21425  0.40377  0.82568  1.0000
  C   C1949     1.0  0.37173  0.32220  0.68359  1.0000
  C   C1950     1.0  0.18253  0.22445  0.81466  1.0000
  H   H1568     1.0  0.19765  0.46909  0.66051  1.0000
  S   S264      1.0  0.18667  0.23187  0.72095  1.0000
  S   S265      1.0  0.26000  0.11698  0.48870  1.0000
  C   C1951     1.0  0.29648  0.36427  0.92868  1.0000
  C   C1952     1.0  0.20170  0.47275  0.82326  1.0000
  C   C1953     1.0  0.27693  0.35579  0.88963  1.0000
  C   C1954     1.0  0.30178  0.48568  0.94356  1.0000
  H   H1569     1.0  0.19479  0.39189  0.71920  1.0000
  C   C1955     1.0  0.28779  0.03592  0.95153  1.0000
  C   C1956     1.0  0.37414  0.44438  0.63799  1.0000
  H   H1570     1.0  0.30233  0.47320  0.91154  1.0000
  C   C1957     1.0  0.19472  0.38147  0.73447  1.0000
  C   C1958     1.0  0.33925  0.14855  0.66440  1.0000
  C   C1959     1.0  0.28066  0.39274  0.90486  1.0000
  H   H1571     1.0  0.36865  0.27817  0.70734  1.0000
  C   C1960     1.0  0.20482  0.42129  0.84068  1.0000
  C   C1961     1.0  0.36944  0.29047  0.70096  1.0000
  H   H1572     1.0  0.25836  0.46442  0.97034  1.0000
  H   H1573     1.0  0.33588  0.26603  0.80302  1.0000
  C   C1962     1.0  0.35818  0.35816  0.88366  1.0000
  C   C1963     1.0  0.36202  0.00536  0.78315  1.0000
  C   C1964     1.0  0.31585  0.17660  0.51670  1.0000
  C   C1965     1.0  0.29280  0.02128  0.69263  1.0000
  C   C1966     1.0  0.21207  0.18337  0.79550  1.0000
  C   C1967     1.0  0.35900  0.30179  0.94604  1.0000
  H   H1574     1.0  0.26661  0.20928  0.76283  1.0000
  C   C1968     1.0  0.22135  0.23424  0.85525  1.0000
  H   H1575     1.0  0.38166  0.41460  0.73257  1.0000
  H   H1576     1.0  0.37337  0.00377  0.96495  1.0000
  H   H1577     1.0  0.29049  0.04366  0.93055  1.0000
  C   C1969     1.0  0.36209  0.12824  0.77439  1.0000
  C   C1970     1.0  0.29233  0.41178  0.84972  1.0000
  H   H1578     1.0  0.32354  0.39053  0.86258  1.0000
  H   H1579     1.0  0.21053  0.19730  0.89761  1.0000
  H   H1580     1.0  0.30128  0.34232  0.87526  1.0000
  C   C1971     1.0  0.36685  0.10276  0.78458  1.0000
  C   C1972     1.0  0.37067  0.35465  0.86737  1.0000
  H   H1581     1.0  0.38168  0.44486  0.81554  1.0000
  C   C1973     1.0  0.24345  0.36720  0.67238  1.0000
  C   C1974     1.0  0.25902  0.36768  0.66961  1.0000
  C   C1975     1.0  0.26462  0.36520  0.69369  1.0000
  C   C1976     1.0  0.25472  0.36264  0.72041  1.0000
  C   C1977     1.0  0.23921  0.36273  0.72331  1.0000
  C   C1978     1.0  0.23351  0.36449  0.69913  1.0000
  P   P66       1.0  0.22688  0.35962  0.75822  1.0000
  C   C1979     1.0  0.20874  0.36430  0.75605  1.0000
  C   C1980     1.0  0.22376  0.33968  0.77793  1.0000
  C   C1981     1.0  0.21779  0.33529  0.80746  1.0000
  C   C1982     1.0  0.21638  0.32019  0.82311  1.0000
  C   C1983     1.0  0.22085  0.30935  0.80940  1.0000
  C   C1984     1.0  0.22659  0.31354  0.78002  1.0000
  C   C1985     1.0  0.22800  0.32862  0.76428  1.0000
  C   C1986     1.0  0.20861  0.37800  0.73706  1.0000
  H   H1582     1.0  0.34839  0.36140  0.58853  1.0000
  C   C1987     1.0  0.30224  0.48332  0.83111  1.0000
  P   P67       1.0  0.19547  0.21144  0.85674  1.0000
  C   C1988     1.0  0.18592  0.03313  0.80322  1.0000
  C   C1989     1.0  0.23725  0.37239  0.77527  1.0000
  C   C1990     1.0  0.23771  0.38828  0.76911  1.0000
  C   C1991     1.0  0.24626  0.39814  0.78146  1.0000
  C   C1992     1.0  0.25437  0.39228  0.80013  1.0000
  C   C1993     1.0  0.24582  0.36672  0.79354  1.0000
  H   H1583     1.0  0.23904  0.36917  0.65377  1.0000
  H   H1584     1.0  0.26669  0.36989  0.64883  1.0000
  H   H1585     1.0  0.27661  0.36527  0.69180  1.0000
  H   H1586     1.0  0.25910  0.36039  0.73892  1.0000
  H   H1587     1.0  0.22149  0.36395  0.70055  1.0000
  H   H1588     1.0  0.21453  0.34365  0.81841  1.0000
  H   H1589     1.0  0.34026  0.22167  0.74826  1.0000
  H   H1590     1.0  0.24258  0.32670  0.87947  1.0000
  H   H1591     1.0  0.23019  0.30510  0.76957  1.0000
  H   H1592     1.0  0.23261  0.33160  0.74157  1.0000
  C   C1994     1.0  0.30083  0.11823  0.52150  1.0000
  H   H1593     1.0  0.28470  0.36231  0.84394  1.0000
  C   C1995     1.0  0.24593  0.99054  0.93183  1.0000
  H   H1594     1.0  0.23191  0.39330  0.75424  1.0000
  H   H1595     1.0  0.24690  0.41043  0.77600  1.0000
  H   H1596     1.0  0.37703  0.07593  0.88408  1.0000
  C   C1996     1.0  0.36663  0.06680  0.89469  1.0000
  H   H1597     1.0  0.28604  0.48312  0.86910  1.0000
  H   H1598     1.0  0.21846  0.24183  0.83854  1.0000
  C   C1997     1.0  0.34047  0.27836  0.65625  1.0000
  C   C1998     1.0  0.34867  0.28366  0.85687  1.0000
  C   C1999     1.0  0.33283  0.28195  0.86606  1.0000
  C   C2000     1.0  0.32705  0.28778  0.88851  1.0000
  C   C2001     1.0  0.22085  0.06892  0.63543  1.0000
  C   C2002     1.0  0.35311  0.29753  0.89213  1.0000
  C   C2003     1.0  0.35879  0.29135  0.86988  1.0000
  P   P68       1.0  0.36574  0.30892  0.90787  1.0000
  H   H1599     1.0  0.35376  0.06779  0.66331  1.0000
  C   C2004     1.0  0.19758  0.23997  0.58043  1.0000
  H   H1600     1.0  0.24010  0.23628  0.57521  1.0000
  C   C2005     1.0  0.21230  0.21902  0.86794  1.0000
  H   H1601     1.0  0.36134  0.16512  0.65272  1.0000
  H   H1602     1.0  0.30860  0.25627  0.80405  1.0000
  C   C2006     1.0  0.36320  0.32839  0.89808  1.0000
  C   C2007     1.0  0.35154  0.44611  0.77051  1.0000
  H   H1603     1.0  0.19409  0.10062  0.77080  1.0000
  S   S266      1.0  0.32914  0.48117  0.68500  1.0000
  H   H1604     1.0  0.35315  0.27938  0.83911  1.0000
  H   H1605     1.0  0.32504  0.27639  0.85543  1.0000
  C   C2008     1.0  0.19970  0.18331  0.55025  1.0000
  H   H1606     1.0  0.32242  0.38016  0.71798  1.0000
  H   H1607     1.0  0.37575  0.05920  0.69071  1.0000
  H   H1608     1.0  0.20995  0.17861  0.48396  1.0000
  H   H1609     1.0  0.24183  0.02001  0.71408  1.0000
  H   H1610     1.0  0.25855  0.48274  0.74378  1.0000
  C   C2009     1.0  0.26502  0.34659  0.91314  1.0000
  H   H1611     1.0  0.29460  0.21534  0.75886  1.0000
  C   C2010     1.0  0.28204  0.20456  0.58978  1.0000
  H   H1612     1.0  0.26295  0.34384  0.83758  1.0000
  C   C2011     1.0  0.36465  0.11592  0.79319  1.0000
  H   H1613     1.0  0.34876  0.03945  0.95702  1.0000
  H   H1614     1.0  0.30305  0.03865  0.74215  1.0000
  C   C2012     1.0  0.27869  0.23835  0.70206  1.0000
  C   C2013     1.0  0.26867  0.22653  0.72471  1.0000
  C   C2014     1.0  0.27444  0.21837  0.74522  1.0000
  C   C2015     1.0  0.29026  0.22189  0.74292  1.0000
  C   C2016     1.0  0.30043  0.23380  0.72028  1.0000
  C   C2017     1.0  0.29453  0.24197  0.69975  1.0000
  P   P69       1.0  0.32084  0.23770  0.71782  1.0000
  C   C2018     1.0  0.33257  0.25180  0.68566  1.0000
  C   C2019     1.0  0.32537  0.24598  0.74578  1.0000
  C   C2020     1.0  0.31373  0.24760  0.76721  1.0000
  C   C2021     1.0  0.31757  0.25474  0.78783  1.0000
  C   C2022     1.0  0.33300  0.26033  0.78718  1.0000
  C   C2023     1.0  0.34465  0.25893  0.76576  1.0000
  C   C2024     1.0  0.34086  0.25183  0.74507  1.0000
  C   C2025     1.0  0.32558  0.21929  0.71966  1.0000
  C   C2026     1.0  0.31950  0.20960  0.70409  1.0000
  S   S267      1.0  0.37666  0.19804  0.60279  1.0000
  C   C2027     1.0  0.33211  0.19031  0.72258  1.0000
  C   C2028     1.0  0.33839  0.19997  0.73780  1.0000
  C   C2029     1.0  0.33510  0.21438  0.73650  1.0000
  H   H1615     1.0  0.27408  0.24475  0.68643  1.0000
  H   H1616     1.0  0.25641  0.22366  0.72640  1.0000
  H   H1617     1.0  0.25344  0.98924  0.91314  1.0000
  H   H1618     1.0  0.19621  0.44047  0.84941  1.0000
  H   H1619     1.0  0.38037  0.47905  0.74015  1.0000
  C   C2030     1.0  0.19460  0.35410  0.77244  1.0000
  H   H1620     1.0  0.32092  0.48651  0.79474  1.0000
  H   H1621     1.0  0.37844  0.12563  0.64117  1.0000
  H   H1622     1.0  0.36900  0.32359  0.95388  1.0000
  H   H1623     1.0  0.21766  0.99261  0.75608  1.0000
  C   C2031     1.0  0.18842  0.23754  0.56188  1.0000
  H   H1624     1.0  0.37454  0.14633  0.67311  1.0000
  C   C2032     1.0  0.22061  0.99024  0.95831  1.0000
  C   C2033     1.0  0.23845  0.99801  0.77011  1.0000
  C   C2034     1.0  0.27695  0.48094  0.97694  1.0000
  C   C2035     1.0  0.25501  0.48193  0.82776  1.0000
  C   C2036     1.0  0.18643  0.03603  0.77431  1.0000
  H   H1625     1.0  0.37543  0.11077  0.95913  1.0000
  C   C2037     1.0  0.36395  0.46390  0.61252  1.0000
  H   H1626     1.0  0.19765  0.03292  0.73408  1.0000
  H   H1627     1.0  0.26442  0.99630  0.95071  1.0000
  H   H1628     1.0  0.26819  0.18035  0.48003  1.0000
  H   H1629     1.0  0.35055  0.47520  0.63816  1.0000
  Fe  Fe129     1.0  0.18455  0.22512  0.68091  1.0000
  H   H1630     1.0  0.36221  0.47010  0.59292  1.0000
  C   C2038     1.0  0.18505  0.38915  0.51831  1.0000
  C   C2039     1.0  0.19789  0.48754  0.56034  1.0000
  H   H1631     1.0  0.28637  0.99224  0.96124  1.0000
  C   C2040     1.0  0.37665  0.02851  0.95358  1.0000
  C   C2041     1.0  0.37687  0.08876  0.95103  1.0000
  Fe  Fe130     1.0  0.18753  0.99785  0.67532  1.0000
  C   C2042     1.0  0.18370  0.20968  0.58034  1.0000
  P   P70       1.0  0.37958  0.06051  0.94054  1.0000
  H   H1632     1.0  0.30875  0.38198  0.97669  1.0000
  H   H1633     1.0  0.37093  0.29248  0.86217  1.0000
  H   H1634     1.0  0.38184  0.03521  0.71282  1.0000
  C   C2043     1.0  0.18703  0.45999  0.75384  1.0000
  C   C2044     1.0  0.37316  0.33984  0.87445  1.0000
  S   S268      1.0  0.31522  0.31290  0.97502  1.0000
  C   C2045     1.0  0.18684  0.48784  0.58418  1.0000
  H   H1635     1.0  0.38189  0.09377  0.92853  1.0000
  C   C2046     1.0  0.29753  0.48829  0.85548  1.0000
  C   C2047     1.0  0.20056  0.48793  0.86668  1.0000
  C   C2048     1.0  0.18970  0.48820  0.85078  1.0000
  H   H1636     1.0  0.18224  0.48182  0.81613  1.0000
  C   C2049     1.0  0.36012  0.90185  0.30965  1.0000
  Fe  Fe131     1.0  0.35871  0.58441  0.42983  1.0000
  C   C2050     1.0  0.23356  0.72625  0.30809  1.0000
  S   S269      1.0  0.33245  0.57769  0.43427  1.0000
  C   C2051     1.0  0.32011  0.57431  0.33586  1.0000
  C   C2052     1.0  0.21310  0.59350  0.43583  1.0000
  C   C2053     1.0  0.23978  0.59228  0.42953  1.0000
  C   C2054     1.0  0.18570  0.65599  0.41795  1.0000
  H   H1637     1.0  0.28015  0.84102  0.08428  1.0000
  H   H1638     1.0  0.28429  0.57719  0.42731  1.0000
  C   C2055     1.0  0.24625  0.58127  0.37021  1.0000
  H   H1639     1.0  0.30427  0.98796  0.18325  1.0000
  H   H1640     1.0  0.32544  0.95623  0.01928  1.0000
  H   H1641     1.0  0.28134  0.54535  0.43951  1.0000
  H   H1642     1.0  0.34961  0.74702  0.01845  1.0000
  H   H1643     1.0  0.30225  0.58547  0.34821  1.0000
  C   C2056     1.0  0.27354  0.50955  0.03049  1.0000
  Fe  Fe132     1.0  0.22622  0.51038  0.43037  1.0000
  S   S270      1.0  0.24156  0.51970  0.38612  1.0000
  S   S271      1.0  0.20672  0.51949  0.45120  1.0000
  C   C2057     1.0  0.31393  0.49726  0.12068  1.0000
  Fe  Fe133     1.0  0.26103  0.51583  0.40597  1.0000
  S   S272      1.0  0.28561  0.53220  0.39009  1.0000
  C   C2058     1.0  0.21228  0.83344  0.19145  1.0000
  S   S273      1.0  0.24584  0.50801  0.45043  1.0000
  H   H1644     1.0  0.23232  0.81594  0.21785  1.0000
  Fe  Fe134     1.0  0.26342  0.74114  0.43084  1.0000
  C   C2059     1.0  0.35308  0.78222  0.98447  1.0000
  S   S274      1.0  0.28966  0.75088  0.42265  1.0000
  Fe  Fe135     1.0  0.23592  0.74837  0.40991  1.0000
  S   S275      1.0  0.21856  0.72746  0.44057  1.0000
  S   S276      1.0  0.23200  0.76741  0.37711  1.0000
  C   C2060     1.0  0.25587  0.95776  0.06398  1.0000
  C   C2061     1.0  0.30887  0.50743  0.38778  1.0000
  Fe  Fe136     1.0  0.23609  0.71427  0.42902  1.0000
  S   S277      1.0  0.23006  0.68968  0.42224  1.0000
  S   S278      1.0  0.24731  0.75557  0.44251  1.0000
  S   S279      1.0  0.25287  0.73503  0.39621  1.0000
  H   H1645     1.0  0.26761  0.55904  0.39984  1.0000
  C   C2062     1.0  0.37078  0.94580  0.06629  1.0000
  Fe  Fe137     1.0  0.34101  0.86922  0.15466  1.0000
  S   S280      1.0  0.34836  0.87510  0.10723  1.0000
  S   S281      1.0  0.35852  0.86927  0.18147  1.0000
  Fe  Fe138     1.0  0.30673  0.86126  0.15506  1.0000
  S   S282      1.0  0.31159  0.86714  0.10759  1.0000
  S   S283      1.0  0.28241  0.85436  0.18372  1.0000
  Fe  Fe139     1.0  0.32985  0.85411  0.10975  1.0000
  S   S284      1.0  0.33511  0.83677  0.08456  1.0000
  Fe  Fe140     1.0  0.32957  0.88762  0.10880  1.0000
  S   S285      1.0  0.33531  0.91095  0.07708  1.0000
  S   S286      1.0  0.32395  0.84694  0.15745  1.0000
  S   S287      1.0  0.32327  0.88299  0.15614  1.0000
  C   C2063     1.0  0.32506  0.83155  0.05972  1.0000
  C   C2064     1.0  0.32876  0.82017  0.04640  1.0000
  C   C2065     1.0  0.32043  0.81509  0.02782  1.0000
  C   C2066     1.0  0.30845  0.82156  0.02201  1.0000
  C   C2067     1.0  0.30524  0.83345  0.03432  1.0000
  C   C2068     1.0  0.31337  0.83831  0.05328  1.0000
  C   C2069     1.0  0.25368  0.57508  0.39013  1.0000
  H   H1646     1.0  0.29610  0.83864  0.02975  1.0000
  H   H1647     1.0  0.31050  0.84720  0.06308  1.0000
  C   C2070     1.0  0.32979  0.92667  0.08783  1.0000
  C   C2071     1.0  0.32144  0.92504  0.11548  1.0000
  C   C2072     1.0  0.31728  0.93788  0.12321  1.0000
  C   C2073     1.0  0.32151  0.95241  0.10342  1.0000
  C   C2074     1.0  0.32982  0.95401  0.07580  1.0000
  C   C2075     1.0  0.33389  0.94116  0.06804  1.0000
  H   H1648     1.0  0.31813  0.91390  0.13083  1.0000
  H   H1649     1.0  0.33306  0.96514  0.06041  1.0000
  H   H1650     1.0  0.34038  0.94248  0.04668  1.0000
  H   H1651     1.0  0.31517  0.87837  0.00451  1.0000
  S   S288      1.0  0.29679  0.81495  0.00041  1.0000
  H   H1652     1.0  0.32018  0.74668  0.45985  1.0000
  H   H1653     1.0  0.24050  0.59029  0.37312  1.0000
  C   C2076     1.0  0.21256  0.67686  0.42169  1.0000
  C   C2077     1.0  0.21255  0.66158  0.42024  1.0000
  C   C2078     1.0  0.19921  0.65117  0.41875  1.0000
  C   C2079     1.0  0.30081  0.50000  0.41586  1.0000
  H   H1654     1.0  0.36782  0.54353  0.11608  1.0000
  C   C2080     1.0  0.19889  0.68149  0.42188  1.0000
  H   H1655     1.0  0.22300  0.65779  0.42016  1.0000
  H   H1656     1.0  0.19951  0.63955  0.41751  1.0000
  H   H1657     1.0  0.19858  0.69310  0.42320  1.0000
  C   C2081     1.0  0.20259  0.53629  0.43288  1.0000
  C   C2082     1.0  0.23854  0.53987  0.47815  1.0000
  C   C2083     1.0  0.19520  0.56289  0.40458  1.0000
  C   C2084     1.0  0.20678  0.55710  0.39068  1.0000
  C   C2085     1.0  0.21052  0.54389  0.40479  1.0000
  H   H1658     1.0  0.21297  0.56296  0.36897  1.0000
  H   H1659     1.0  0.21960  0.53967  0.39397  1.0000
  H   H1660     1.0  0.35484  0.57959  0.01615  1.0000
  C   C2086     1.0  0.31879  0.89888  0.01963  1.0000
  H   H1661     1.0  0.34133  0.74034  0.42965  1.0000
  C   C2087     1.0  0.29923  0.76523  0.43703  1.0000
  C   C2088     1.0  0.31528  0.77158  0.42654  1.0000
  C   C2089     1.0  0.32339  0.78224  0.43858  1.0000
  C   C2090     1.0  0.33796  0.51437  0.13668  1.0000
  C   C2091     1.0  0.27169  0.50483  0.00615  1.0000
  H   H1662     1.0  0.32153  0.76796  0.40939  1.0000
  H   H1663     1.0  0.33574  0.78673  0.43066  1.0000
  C   C2092     1.0  0.31998  0.56312  0.42445  1.0000
  C   C2093     1.0  0.32515  0.55699  0.40198  1.0000
  C   C2094     1.0  0.31455  0.54697  0.39275  1.0000
  C   C2095     1.0  0.29861  0.54280  0.40581  1.0000
  C   C2096     1.0  0.29351  0.54839  0.42909  1.0000
  C   C2097     1.0  0.30411  0.55852  0.43819  1.0000
  H   H1664     1.0  0.33722  0.56051  0.39092  1.0000
  H   H1665     1.0  0.31872  0.54279  0.37474  1.0000
  H   H1666     1.0  0.32622  0.89508  0.03246  1.0000
  C   C2098     1.0  0.36301  0.48889  0.02559  1.0000
  C   C2099     1.0  0.35686  0.84764  0.25136  1.0000
  C   C2100     1.0  0.28110  0.53648  0.00353  1.0000
  S   S289      1.0  0.23640  0.79009  0.19362  1.0000
  H   H1667     1.0  0.37993  0.61039  0.33474  1.0000
  H   H1668     1.0  0.19883  0.74798  0.47214  1.0000
  C   C2101     1.0  0.36624  0.90052  0.18102  1.0000
  C   C2102     1.0  0.36899  0.88589  0.18912  1.0000
  C   C2103     1.0  0.22618  0.84467  0.17861  1.0000
  C   C2104     1.0  0.21911  0.85983  0.21120  1.0000
  H   H1669     1.0  0.38073  0.88568  0.34151  1.0000
  H   H1670     1.0  0.35757  0.90199  0.16966  1.0000
  C   C2105     1.0  0.30540  0.91807  0.00327  1.0000
  H   H1671     1.0  0.18379  0.63932  0.31241  1.0000
  S   S290      1.0  0.19659  0.78997  0.24882  1.0000
  S   S291      1.0  0.32502  0.79960  0.47850  1.0000
  Fe  Fe141     1.0  0.21060  0.78289  0.21361  1.0000
  P   P71       1.0  0.34710  0.85849  0.29863  1.0000
  C   C2106     1.0  0.37108  0.95728  0.11403  1.0000
  C   C2107     1.0  0.20605  0.76960  0.32062  1.0000
  C   C2108     1.0  0.21694  0.77341  0.33571  1.0000
  C   C2109     1.0  0.21746  0.76267  0.35990  1.0000
  C   C2110     1.0  0.20650  0.74840  0.36979  1.0000
  C   C2111     1.0  0.19519  0.74484  0.35536  1.0000
  H   H1672     1.0  0.22518  0.78461  0.32822  1.0000
  H   H1673     1.0  0.20666  0.74014  0.38866  1.0000
  C   C2112     1.0  0.23335  0.72714  0.33570  1.0000
  C   C2113     1.0  0.24892  0.80801  0.19136  1.0000
  C   C2114     1.0  0.26424  0.81159  0.17525  1.0000
  C   C2115     1.0  0.27461  0.82577  0.17258  1.0000
  C   C2116     1.0  0.26974  0.83647  0.18624  1.0000
  C   C2117     1.0  0.25445  0.83285  0.20257  1.0000
  C   C2118     1.0  0.24405  0.81866  0.20515  1.0000
  H   H1674     1.0  0.26803  0.80341  0.16450  1.0000
  H   H1675     1.0  0.28635  0.82844  0.15988  1.0000
  H   H1676     1.0  0.25065  0.84105  0.21329  1.0000
  C   C2119     1.0  0.19097  0.54206  0.44677  1.0000
  C   C2120     1.0  0.28482  0.93894  0.98895  1.0000
  Fe  Fe142     1.0  0.23173  0.73333  0.47192  1.0000
  H   H1677     1.0  0.18680  0.66655  0.09889  1.0000
  C   C2121     1.0  0.27472  0.51616  0.98051  1.0000
  C   C2122     1.0  0.27655  0.61063  0.39580  1.0000
  H   H1678     1.0  0.38177  0.91910  0.29085  1.0000
  C   C2123     1.0  0.36332  0.77640  0.39298  1.0000
  H   H1679     1.0  0.35768  0.48920  0.09460  1.0000
  C   C2124     1.0  0.27925  0.53189  0.97930  1.0000
  H   H1680     1.0  0.35855  0.59120  0.31695  1.0000
  H   H1681     1.0  0.26764  0.54975  0.35720  1.0000
  H   H1682     1.0  0.22929  0.49805  0.04887  1.0000
  C   C2125     1.0  0.37293  0.52652  0.46554  1.0000
  C   C2126     1.0  0.18223  0.70882  0.27633  1.0000
  H   H1683     1.0  0.27037  0.91616  0.01240  1.0000
  H   H1684     1.0  0.23444  0.84304  0.16138  1.0000
  H   H1685     1.0  0.30255  0.50958  0.37188  1.0000
  C   C2127     1.0  0.25861  0.92891  0.98661  1.0000
  Fe  Fe143     1.0  0.18269  0.75876  0.20976  1.0000
  H   H1686     1.0  0.37251  0.87793  0.00011  1.0000
  H   H1687     1.0  0.18206  0.96614  0.34147  1.0000
  C   C2128     1.0  0.25172  0.98352  0.05696  1.0000
  C   C2129     1.0  0.30481  0.85957  0.28379  1.0000
  H   H1688     1.0  0.32955  0.50329  0.07961  1.0000
  C   C2130     1.0  0.19519  0.50073  0.03430  1.0000
  H   H1689     1.0  0.34022  0.56596  0.32445  1.0000
  C   C2131     1.0  0.37082  0.94167  0.11565  1.0000
  S   S292      1.0  0.36719  0.59252  0.46498  1.0000
  H   H1690     1.0  0.18667  0.97591  0.28947  1.0000
  C   C2132     1.0  0.29943  0.78083  0.47098  1.0000
  H   H1691     1.0  0.37796  0.68003  0.99464  1.0000
  C   C2133     1.0  0.32379  0.50705  0.15644  1.0000
  S   S293      1.0  0.31704  0.52303  0.99563  1.0000
  C   C2134     1.0  0.37970  0.78489  0.98733  1.0000
  H   H1692     1.0  0.26501  0.80466  0.04533  1.0000
  H   H1693     1.0  0.32768  0.81648  0.40878  1.0000
  H   H1694     1.0  0.19635  0.73646  0.02622  1.0000
  C   C2135     1.0  0.36472  0.78608  0.99810  1.0000
  H   H1695     1.0  0.34508  0.59226  0.12976  1.0000
  H   H1696     1.0  0.29994  0.56306  0.45574  1.0000
  H   H1697     1.0  0.38058  0.55307  0.05973  1.0000
  H   H1698     1.0  0.20154  0.58880  0.43444  1.0000
  C   C2136     1.0  0.23123  0.61282  0.44725  1.0000
  H   H1699     1.0  0.26733  0.61516  0.38968  1.0000
  H   H1700     1.0  0.20469  0.82449  0.26830  1.0000
  H   H1701     1.0  0.33851  0.61282  0.42585  1.0000
  C   C2137     1.0  0.31182  0.49837  0.14851  1.0000
  C   C2138     1.0  0.25141  0.56645  0.45134  1.0000
  H   H1702     1.0  0.25739  0.98349  0.13440  1.0000
  C   C2139     1.0  0.37249  0.82395  0.07504  1.0000
  C   C2140     1.0  0.37397  0.88272  0.28157  1.0000
  H   H1703     1.0  0.19949  0.70073  0.37078  1.0000
  C   C2141     1.0  0.19393  0.82252  0.28387  1.0000
  H   H1704     1.0  0.34707  0.52071  0.14360  1.0000
  H   H1705     1.0  0.37151  0.75187  0.04016  1.0000
  C   C2142     1.0  0.19654  0.67420  0.32566  1.0000
  C   C2143     1.0  0.34762  0.98091  0.14547  1.0000
  H   H1706     1.0  0.21881  0.51249  0.01271  1.0000
  H   H1707     1.0  0.26026  0.94952  0.02668  1.0000
  H   H1708     1.0  0.20741  0.61277  0.45028  1.0000
  H   H1709     1.0  0.29990  0.87346  0.24775  1.0000
  H   H1710     1.0  0.25685  0.94736  0.07789  1.0000
  H   H1711     1.0  0.35482  0.90928  0.32053  1.0000
  H   H1712     1.0  0.18444  0.54300  0.06061  1.0000
  H   H1713     1.0  0.29320  0.73164  0.47504  1.0000
  C   C2144     1.0  0.19217  0.69961  0.28338  1.0000
  H   H1714     1.0  0.38053  0.82756  0.12829  1.0000
  H   H1715     1.0  0.37108  0.57291  0.35157  1.0000
  H   H1716     1.0  0.18903  0.69218  0.06778  1.0000
  C   C2145     1.0  0.23616  0.81814  0.33162  1.0000
  C   C2146     1.0  0.23044  0.82409  0.30898  1.0000
  C   C2147     1.0  0.23768  0.82410  0.28156  1.0000
  C   C2148     1.0  0.25070  0.81830  0.27677  1.0000
  C   C2149     1.0  0.25691  0.81283  0.29919  1.0000
  C   C2150     1.0  0.24925  0.81242  0.32684  1.0000
  P   P72       1.0  0.27278  0.80393  0.29271  1.0000
  C   C2151     1.0  0.26537  0.78885  0.27722  1.0000
  C   C2152     1.0  0.29036  0.81708  0.26908  1.0000
  C   C2153     1.0  0.30451  0.81343  0.26968  1.0000
  C   C2154     1.0  0.31830  0.82337  0.25179  1.0000
  C   C2155     1.0  0.31809  0.83692  0.23286  1.0000
  C   C2156     1.0  0.30409  0.84052  0.23184  1.0000
  C   C2157     1.0  0.29028  0.83074  0.24993  1.0000
  C   C2158     1.0  0.25236  0.77696  0.29329  1.0000
  C   C2159     1.0  0.24419  0.76720  0.28033  1.0000
  C   C2160     1.0  0.24915  0.76904  0.25124  1.0000
  C   C2161     1.0  0.26239  0.78053  0.23519  1.0000
  C   C2162     1.0  0.27041  0.79052  0.24801  1.0000
  C   C2163     1.0  0.27755  0.79690  0.32556  1.0000
  C   C2164     1.0  0.27641  0.78111  0.33661  1.0000
  C   C2165     1.0  0.28017  0.77613  0.36215  1.0000
  C   C2166     1.0  0.28511  0.78683  0.37673  1.0000
  C   C2167     1.0  0.28661  0.80259  0.36555  1.0000
  C   C2168     1.0  0.28300  0.80763  0.33992  1.0000
  H   H1717     1.0  0.23019  0.81750  0.35306  1.0000
  H   H1718     1.0  0.22018  0.82830  0.31281  1.0000
  H   H1719     1.0  0.23305  0.82827  0.26401  1.0000
  H   H1720     1.0  0.25566  0.81761  0.25566  1.0000
  H   H1721     1.0  0.25284  0.80709  0.34499  1.0000
  H   H1722     1.0  0.30488  0.80285  0.28390  1.0000
  H   H1723     1.0  0.32915  0.82050  0.25234  1.0000
  H   H1724     1.0  0.31494  0.62245  0.39030  1.0000
  H   H1725     1.0  0.30396  0.85097  0.21692  1.0000
  H   H1726     1.0  0.27972  0.83397  0.24852  1.0000
  H   H1727     1.0  0.24808  0.77573  0.31567  1.0000
  H   H1728     1.0  0.23363  0.75867  0.29271  1.0000
  H   H1729     1.0  0.24241  0.76199  0.24094  1.0000
  H   H1730     1.0  0.26588  0.78225  0.21248  1.0000
  H   H1731     1.0  0.27998  0.80000  0.23478  1.0000
  H   H1732     1.0  0.27258  0.77258  0.32582  1.0000
  H   H1733     1.0  0.27911  0.76393  0.37090  1.0000
  H   H1734     1.0  0.28767  0.78284  0.39680  1.0000
  H   H1735     1.0  0.29040  0.81083  0.37698  1.0000
  H   H1736     1.0  0.28415  0.81988  0.33151  1.0000
  H   H1737     1.0  0.23541  0.55042  0.43792  1.0000
  C   C2169     1.0  0.30608  0.79253  0.10992  1.0000
  H   H1738     1.0  0.24819  0.91958  0.99297  1.0000
  H   H1739     1.0  0.37950  0.87569  0.27005  1.0000
  H   H1740     1.0  0.36983  0.95215  0.20541  1.0000
  C   C2170     1.0  0.20840  0.51092  0.33075  1.0000
  C   C2171     1.0  0.35820  0.63232  0.40631  1.0000
  C   C2172     1.0  0.37728  0.63066  0.27104  1.0000
  P   P73       1.0  0.35388  0.51599  0.39116  1.0000
  C   C2173     1.0  0.35977  0.49367  0.07190  1.0000
  C   C2174     1.0  0.36108  0.50941  0.05996  1.0000
  C   C2175     1.0  0.36335  0.51477  0.03057  1.0000
  P   P74       1.0  0.35860  0.52213  0.08281  1.0000
  C   C2176     1.0  0.34026  0.51315  0.10870  1.0000
  C   C2177     1.0  0.30885  0.49729  0.43650  1.0000
  Fe  Fe144     1.0  0.23698  0.49460  0.38466  1.0000
  C   C2178     1.0  0.22109  0.71781  0.35822  1.0000
  C   C2179     1.0  0.21640  0.60697  0.44487  1.0000
  H   H1741     1.0  0.34341  0.84313  0.40150  1.0000
  H   H1742     1.0  0.18627  0.71173  0.11396  1.0000
  C   C2180     1.0  0.29038  0.79175  0.11366  1.0000
  C   C2181     1.0  0.33308  0.51021  0.40113  1.0000
  C   C2182     1.0  0.35738  0.54051  0.06228  1.0000
  C   C2183     1.0  0.32823  0.95855  0.99653  1.0000
  S   S294      1.0  0.37407  0.86291  0.39407  1.0000
  H   H1743     1.0  0.29734  0.96291  0.02618  1.0000
  C   C2184     1.0  0.25300  0.97009  0.07483  1.0000
  C   C2185     1.0  0.34410  0.54155  0.05289  1.0000
  H   H1744     1.0  0.37618  0.64456  0.33610  1.0000
  C   C2186     1.0  0.28191  0.78415  0.09790  1.0000
  C   C2187     1.0  0.36044  0.74480  0.00925  1.0000
  C   C2188     1.0  0.20513  0.84855  0.22426  1.0000
  C   C2189     1.0  0.22978  0.74846  0.18173  1.0000
  H   H1745     1.0  0.24992  0.74965  0.19776  1.0000
  C   C2190     1.0  0.37151  0.96718  0.08805  1.0000
  C   C2191     1.0  0.34851  0.75192  0.42593  1.0000
  C   C2192     1.0  0.22393  0.75392  0.15899  1.0000
  C   C2193     1.0  0.30310  0.89456  0.98725  1.0000
  H   H1746     1.0  0.35182  0.86151  0.35444  1.0000
  C   C2194     1.0  0.36299  0.58360  0.14456  1.0000
  H   H1747     1.0  0.31027  0.59458  0.41494  1.0000
  H   H1748     1.0  0.25411  0.60984  0.44285  1.0000
  C   C2195     1.0  0.30087  0.59915  0.40964  1.0000
  H   H1749     1.0  0.33911  0.96988  0.15355  1.0000
  H   H1750     1.0  0.33451  0.53148  0.05768  1.0000
  C   C2196     1.0  0.36037  0.53365  0.36265  1.0000
  C   C2197     1.0  0.36284  0.54818  0.36859  1.0000
  C   C2198     1.0  0.37549  0.50367  0.36145  1.0000
  H   H1751     1.0  0.31204  0.72342  0.98582  1.0000
  H   H1752     1.0  0.35313  0.53540  0.47662  1.0000
  C   C2199     1.0  0.36329  0.53305  0.33427  1.0000
  H   H1753     1.0  0.36060  0.54909  0.39013  1.0000
  H   H1754     1.0  0.29347  0.63254  0.37718  1.0000
  H   H1755     1.0  0.36961  0.92373  0.09364  1.0000
  H   H1756     1.0  0.22207  0.74055  0.20103  1.0000
  C   C2200     1.0  0.35951  0.94588  0.20148  1.0000
  C   C2201     1.0  0.37572  0.53617  0.11503  1.0000
  C   C2202     1.0  0.18670  0.72377  0.10534  1.0000
  H   H1757     1.0  0.19111  0.82655  0.22400  1.0000
  C   C2203     1.0  0.20181  0.83537  0.21416  1.0000
  P   P75       1.0  0.19124  0.85089  0.25335  1.0000
  S   S295      1.0  0.19363  0.78382  0.18709  1.0000
  C   C2204     1.0  0.35910  0.52987  0.46221  1.0000
  C   C2205     1.0  0.32048  0.50482  0.00737  1.0000
  C   C2206     1.0  0.24597  0.80478  0.12078  1.0000
  H   H1758     1.0  0.23758  0.71776  0.99610  1.0000
  H   H1759     1.0  0.37617  0.79262  0.41071  1.0000
  H   H1760     1.0  0.26580  0.57953  0.47205  1.0000
  H   H1761     1.0  0.25622  0.84358  0.11451  1.0000
  C   C2207     1.0  0.35551  0.56873  0.02915  1.0000
  C   C2208     1.0  0.30879  0.87070  0.25777  1.0000
  C   C2209     1.0  0.34633  0.59025  0.32326  1.0000
  H   H1762     1.0  0.31209  0.56317  0.33931  1.0000
  C   C2210     1.0  0.20007  0.86616  0.26718  1.0000
  C   C2211     1.0  0.20591  0.86271  0.29096  1.0000
  C   C2212     1.0  0.21245  0.87462  0.30179  1.0000
  C   C2213     1.0  0.21326  0.89003  0.28894  1.0000
  C   C2214     1.0  0.20760  0.89357  0.26513  1.0000
  C   C2215     1.0  0.20109  0.88171  0.25420  1.0000
  C   C2216     1.0  0.25292  0.98457  0.02814  1.0000
  S   S296      1.0  0.35416  0.83872  0.47162  1.0000
  H   H1763     1.0  0.34922  0.97572  0.99103  1.0000
  C   C2217     1.0  0.36541  0.83956  0.23630  1.0000
  H   H1764     1.0  0.37147  0.81670  0.34990  1.0000
  C   C2218     1.0  0.25149  0.76531  0.06836  1.0000
  C   C2219     1.0  0.30506  0.77781  0.07515  1.0000
  H   H1765     1.0  0.19164  0.51517  0.39487  1.0000
  H   H1766     1.0  0.26045  0.79937  0.00128  1.0000
  S   S297      1.0  0.18419  0.98714  0.15070  1.0000
  C   C2220     1.0  0.37809  0.87396  0.01634  1.0000
  C   C2221     1.0  0.37270  0.62300  0.30008  1.0000
  H   H1767     1.0  0.33092  0.51831  0.35854  1.0000
  H   H1768     1.0  0.20538  0.85085  0.30125  1.0000
  H   H1769     1.0  0.21688  0.87190  0.32022  1.0000
  H   H1770     1.0  0.21830  0.89926  0.29738  1.0000
  H   H1771     1.0  0.20827  0.90554  0.25510  1.0000
  H   H1772     1.0  0.19682  0.88467  0.23564  1.0000
  H   H1773     1.0  0.33634  0.60665  0.38121  1.0000
  H   H1774     1.0  0.32742  0.88652  0.22402  1.0000
  S   S298      1.0  0.37650  0.60413  0.39686  1.0000
  C   C2222     1.0  0.33211  0.64382  0.26770  1.0000
  P   P76       1.0  0.37014  0.96426  0.14543  1.0000
  C   C2223     1.0  0.31455  0.58691  0.34078  1.0000
  C   C2224     1.0  0.20610  0.66985  0.34287  1.0000
  C   C2225     1.0  0.32426  0.87806  0.24441  1.0000
  H   H1775     1.0  0.29280  0.85383  0.29401  1.0000
  C   C2226     1.0  0.32806  0.50459  0.10090  1.0000
  C   C2227     1.0  0.36887  0.56777  0.03796  1.0000
  H   H1776     1.0  0.37158  0.97923  0.08611  1.0000
  H   H1777     1.0  0.19792  0.73124  0.13576  1.0000
  H   H1778     1.0  0.37852  0.57793  0.03167  1.0000
  C   C2228     1.0  0.25757  0.78986  0.02016  1.0000
  C   C2229     1.0  0.37612  0.73881  0.47591  1.0000
  C   C2230     1.0  0.31551  0.78682  0.46118  1.0000
  C   C2231     1.0  0.33574  0.87439  0.25712  1.0000
  H   H1779     1.0  0.34769  0.88029  0.24647  1.0000
  C   C2232     1.0  0.34452  0.85013  0.35705  1.0000
  H   H1780     1.0  0.24021  0.58043  0.33109  1.0000
  C   C2233     1.0  0.36774  0.63770  0.35546  1.0000
  C   C2234     1.0  0.25630  0.97231  0.01723  1.0000
  H   H1781     1.0  0.23431  0.82030  0.13780  1.0000
  H   H1782     1.0  0.21169  0.75031  0.16086  1.0000
  H   H1783     1.0  0.33305  0.55617  0.02864  1.0000
  H   H1784     1.0  0.37038  0.93380  0.13542  1.0000
  S   S299      1.0  0.31597  0.96826  0.11354  1.0000
  C   C2235     1.0  0.26159  0.55851  0.36084  1.0000
  H   H1785     1.0  0.34915  0.85314  0.24172  1.0000
  C   C2236     1.0  0.31579  0.49747  0.03638  1.0000
  H   H1786     1.0  0.28012  0.52887  0.04771  1.0000
  C   C2237     1.0  0.33630  0.92482  0.21872  1.0000
  H   H1787     1.0  0.32861  0.91523  0.23561  1.0000
  C   C2238     1.0  0.37981  0.61460  0.12875  1.0000
  C   C2239     1.0  0.36119  0.51985  0.42062  1.0000
  C   C2240     1.0  0.34945  0.93359  0.22332  1.0000
  H   H1788     1.0  0.33992  0.88278  0.32447  1.0000
  C   C2241     1.0  0.19952  0.72745  0.98987  1.0000
  H   H1789     1.0  0.25783  0.97302  0.99497  1.0000
  C   C2242     1.0  0.20777  0.65469  0.34859  1.0000
  C   C2243     1.0  0.33250  0.65789  0.27472  1.0000
  C   C2244     1.0  0.34322  0.55558  0.03631  1.0000
  C   C2245     1.0  0.33939  0.66111  0.29597  1.0000
  H   H1790     1.0  0.21202  0.67798  0.35246  1.0000
  H   H1791     1.0  0.35993  0.61979  0.11611  1.0000
  C   C2246     1.0  0.33990  0.83964  0.38388  1.0000
  S   S300      1.0  0.20082  0.75737  0.23363  1.0000
  H   H1792     1.0  0.36424  0.83910  0.21536  1.0000
  C   C2247     1.0  0.34591  0.65029  0.31025  1.0000
  C   C2248     1.0  0.24470  0.81933  0.12422  1.0000
  P   P77       1.0  0.25455  0.58236  0.42070  1.0000
  C   C2249     1.0  0.18473  0.83311  0.28159  1.0000
  S   S301      1.0  0.29996  0.77209  0.99266  1.0000
  H   H1793     1.0  0.22897  0.76886  0.11714  1.0000
  C   C2250     1.0  0.20902  0.70684  0.32548  1.0000
  C   C2251     1.0  0.29139  0.62047  0.38841  1.0000
  C   C2252     1.0  0.24621  0.57581  0.34612  1.0000
  H   H1794     1.0  0.32031  0.61091  0.34043  1.0000
  C   C2253     1.0  0.24034  0.49024  0.98668  1.0000
  H   H1795     1.0  0.33793  0.81502  0.05088  1.0000
  C   C2254     1.0  0.24897  0.76238  0.04313  1.0000
  C   C2255     1.0  0.22143  0.71617  0.30294  1.0000
  C   C2256     1.0  0.19207  0.72713  0.01744  1.0000
  C   C2257     1.0  0.18722  0.55528  0.43265  1.0000
  C   C2258     1.0  0.33136  0.83046  0.33828  1.0000
  C   C2259     1.0  0.31658  0.73710  0.47856  1.0000
  H   H1796     1.0  0.37019  0.84219  0.31047  1.0000
  H   H1797     1.0  0.19734  0.49743  0.30698  1.0000
  H   H1798     1.0  0.23642  0.79483  0.13182  1.0000
  H   H1799     1.0  0.28334  0.77145  0.06572  1.0000
  C   C2260     1.0  0.36814  0.78141  0.41500  1.0000
  C   C2261     1.0  0.29134  0.77015  0.45905  1.0000
  C   C2262     1.0  0.26011  0.79284  0.04532  1.0000
  H   H1800     1.0  0.32217  0.50791  0.17805  1.0000
  H   H1801     1.0  0.37119  0.96900  0.04459  1.0000
  S   S302      1.0  0.26243  0.74542  0.98158  1.0000
  H   H1802     1.0  0.31084  0.77276  0.05967  1.0000
  C   C2263     1.0  0.27177  0.81642  0.09068  1.0000
  C   C2264     1.0  0.28940  0.77714  0.07864  1.0000
  C   C2265     1.0  0.35272  0.75713  0.44839  1.0000
  H   H1803     1.0  0.37004  0.83501  0.07563  1.0000
  C   C2266     1.0  0.31825  0.95097  0.98309  1.0000
  S   S303      1.0  0.36795  0.81942  0.42832  1.0000
  C   C2267     1.0  0.26150  0.56378  0.38510  1.0000
  C   C2268     1.0  0.34560  0.63612  0.30329  1.0000
  P   P78       1.0  0.35382  0.62185  0.32161  1.0000
  C   C2269     1.0  0.19361  0.75039  0.10791  1.0000
  C   C2270     1.0  0.35574  0.62554  0.35498  1.0000
  C   C2271     1.0  0.34639  0.62005  0.40608  1.0000
  C   C2272     1.0  0.33598  0.57592  0.32737  1.0000
  H   H1804     1.0  0.28498  0.79749  0.12824  1.0000
  H   H1805     1.0  0.20963  0.82311  0.18404  1.0000
  C   C2273     1.0  0.32778  0.49760  0.98851  1.0000
  C   C2274     1.0  0.37276  0.74752  0.02150  1.0000
  H   H1806     1.0  0.28991  0.96539  0.07513  1.0000
  C   C2275     1.0  0.32494  0.51250  0.38039  1.0000
  C   C2276     1.0  0.38093  0.49179  0.35259  1.0000
  C   C2277     1.0  0.24128  0.55214  0.45415  1.0000
  H   H1807     1.0  0.35038  0.81149  0.10336  1.0000
  C   C2278     1.0  0.36991  0.55367  0.05411  1.0000
  H   H1808     1.0  0.34279  0.52982  0.43704  1.0000
  C   C2279     1.0  0.36344  0.79594  0.08996  1.0000
  C   C2280     1.0  0.21694  0.49571  0.05156  1.0000
  C   C2281     1.0  0.33188  0.86301  0.28301  1.0000
  C   C2282     1.0  0.19018  0.64791  0.32056  1.0000
  H   H1809     1.0  0.36684  0.77596  0.45931  1.0000
  C   C2283     1.0  0.27122  0.92697  0.99742  1.0000
  C   C2284     1.0  0.36866  0.56181  0.34664  1.0000
  C   C2285     1.0  0.36114  0.81051  0.09092  1.0000
  H   H1810     1.0  0.34146  0.78273  0.99339  1.0000
  C   C2286     1.0  0.19124  0.70981  0.22684  1.0000
  H   H1811     1.0  0.38161  0.60590  0.19447  1.0000
  H   H1812     1.0  0.37220  0.54605  0.29058  1.0000
  H   H1813     1.0  0.25175  0.96927  0.09713  1.0000
  C   C2287     1.0  0.36419  0.50449  0.01352  1.0000
  H   H1814     1.0  0.24508  0.75057  0.04189  1.0000
  H   H1815     1.0  0.37099  0.84267  0.16080  1.0000
  C   C2288     1.0  0.37703  0.83309  0.27495  1.0000
  C   C2289     1.0  0.35866  0.87712  0.29801  1.0000
  C   C2290     1.0  0.37708  0.79481  0.07302  1.0000
  S   S304      1.0  0.24844  0.71902  0.46234  1.0000
  C   C2291     1.0  0.35178  0.88681  0.31199  1.0000
  C   C2292     1.0  0.25961  0.80317  0.10427  1.0000
  C   C2293     1.0  0.20893  0.70780  0.35312  1.0000
  C   C2294     1.0  0.32494  0.50218  0.42914  1.0000
  C   C2295     1.0  0.32685  0.81998  0.36513  1.0000
  C   C2296     1.0  0.37415  0.52481  0.10001  1.0000
  H   H1816     1.0  0.22185  0.57550  0.42203  1.0000
  C   C2297     1.0  0.35844  0.84864  0.27824  1.0000
  C   C2298     1.0  0.37743  0.88040  0.03939  1.0000
  C   C2299     1.0  0.36496  0.61073  0.12498  1.0000
  C   C2300     1.0  0.23376  0.76444  0.13429  1.0000
  H   H1817     1.0  0.30990  0.50292  0.05092  1.0000
  C   C2301     1.0  0.37530  0.90738  0.29303  1.0000
  H   H1818     1.0  0.35400  0.50531  0.18463  1.0000
  H   H1819     1.0  0.29136  0.91375  0.05983  1.0000
  H   H1820     1.0  0.24957  0.75561  0.08651  1.0000
  C   C2302     1.0  0.37135  0.96143  0.06431  1.0000
  H   H1821     1.0  0.27902  0.76552  0.46728  1.0000
  H   H1822     1.0  0.21675  0.52317  0.35907  1.0000
  C   C2303     1.0  0.33107  0.82459  0.38795  1.0000
  H   H1823     1.0  0.32872  0.84459  0.21870  1.0000
  C   C2304     1.0  0.37052  0.93594  0.09194  1.0000
  H   H1824     1.0  0.35210  0.93068  0.24361  1.0000
  H   H1825     1.0  0.26730  0.76838  0.15465  1.0000
  C   C2305     1.0  0.35659  0.59523  0.13271  1.0000
  H   H1826     1.0  0.32826  0.82662  0.32067  1.0000
  C   C2306     1.0  0.31630  0.85573  0.29642  1.0000
  H   H1827     1.0  0.33096  0.49968  0.44534  1.0000
  H   H1828     1.0  0.28231  0.81544  0.07771  1.0000
  H   H1829     1.0  0.32023  0.80821  0.36828  1.0000
  C   C2307     1.0  0.37786  0.58742  0.14824  1.0000
  H   H1830     1.0  0.37961  0.59772  0.24569  1.0000
  Fe  Fe145     1.0  0.37319  0.84388  0.43200  1.0000
  H   H1831     1.0  0.22203  0.87012  0.21847  1.0000
  C   C2308     1.0  0.19341  0.73482  0.11775  1.0000
  C   C2309     1.0  0.31539  0.91319  0.01902  1.0000
  H   H1832     1.0  0.36730  0.78387  0.37168  1.0000
  H   H1833     1.0  0.19081  0.71379  0.20507  1.0000
  C   C2310     1.0  0.28606  0.58931  0.41700  1.0000
  C   C2311     1.0  0.25702  0.78060  0.06967  1.0000
  H   H1834     1.0  0.25043  0.77229  0.99936  1.0000
  C   C2312     1.0  0.25836  0.56845  0.47329  1.0000
  C   C2313     1.0  0.19573  0.50148  0.32593  1.0000
  H   H1835     1.0  0.34996  0.75766  0.38132  1.0000
  H   H1836     1.0  0.35454  0.78555  0.10187  1.0000
  H   H1837     1.0  0.23392  0.67911  0.99066  1.0000
  H   H1838     1.0  0.31292  0.84720  0.31662  1.0000
  C   C2314     1.0  0.25201  0.77465  0.01905  1.0000
  H   H1839     1.0  0.25373  0.56010  0.32292  1.0000
  C   C2315     1.0  0.22468  0.58607  0.42852  1.0000
  C   C2316     1.0  0.20685  0.51598  0.35538  1.0000
  H   H1840     1.0  0.30097  0.49229  0.16392  1.0000
  P   P79       1.0  0.26189  0.78430  0.10122  1.0000
  H   H1841     1.0  0.28503  0.54868  0.00226  1.0000
  H   H1842     1.0  0.37876  0.78357  0.07139  1.0000
  H   H1843     1.0  0.35640  0.57159  0.15104  1.0000
  C   C2317     1.0  0.36088  0.50047  0.38012  1.0000
  S   S305      1.0  0.37368  0.56787  0.42682  1.0000
  C   C2318     1.0  0.29530  0.93821  0.03923  1.0000
  C   C2319     1.0  0.29123  0.92516  0.06258  1.0000
  C   C2320     1.0  0.28709  0.92674  0.09010  1.0000
  C   C2321     1.0  0.28664  0.94125  0.09452  1.0000
  C   C2322     1.0  0.29023  0.95418  0.07144  1.0000
  C   C2323     1.0  0.29448  0.95271  0.04385  1.0000
  H   H1844     1.0  0.22180  0.71574  0.28142  1.0000
  H   H1845     1.0  0.36400  0.52673  0.02077  1.0000
  H   H1846     1.0  0.37239  0.92451  0.18176  1.0000
  H   H1847     1.0  0.37835  0.65023  0.38158  1.0000
  H   H1848     1.0  0.38167  0.51171  0.40931  1.0000
  C   C2324     1.0  0.20183  0.69579  0.26166  1.0000
  H   H1849     1.0  0.35945  0.63465  0.42621  1.0000
  C   C2325     1.0  0.36891  0.64108  0.38104  1.0000
  H   H1850     1.0  0.24264  0.73505  0.33973  1.0000
  C   C2326     1.0  0.22962  0.85783  0.18854  1.0000
  C   C2327     1.0  0.27053  0.83094  0.09427  1.0000
  H   H1851     1.0  0.32674  0.64131  0.25124  1.0000
  H   H1852     1.0  0.19829  0.75881  0.11831  1.0000
  C   C2328     1.0  0.37465  0.91331  0.18792  1.0000
  C   C2329     1.0  0.29960  0.90885  0.98674  1.0000
  P   P80       1.0  0.30089  0.93643  0.00351  1.0000
  H   H1853     1.0  0.28457  0.91676  0.10804  1.0000
  H   H1854     1.0  0.28388  0.94260  0.11583  1.0000
  H   H1855     1.0  0.21960  0.51390  0.31578  1.0000
  C   C2330     1.0  0.36930  0.54669  0.31235  1.0000
  H   H1856     1.0  0.21501  0.65137  0.36218  1.0000
  H   H1857     1.0  0.20072  0.63184  0.34282  1.0000
  C   C2331     1.0  0.19266  0.51148  0.37549  1.0000
  C   C2332     1.0  0.21107  0.50387  0.03117  1.0000
  H   H1858     1.0  0.32040  0.92036  0.03122  1.0000
  C   C2333     1.0  0.37633  0.50182  0.18662  1.0000
  H   H1859     1.0  0.32314  0.80605  0.01831  1.0000
  P   P81       1.0  0.19343  0.69343  0.31950  1.0000
  C   C2334     1.0  0.35329  0.52667  0.43975  1.0000
  H   H1860     1.0  0.32745  0.66630  0.26369  1.0000
  H   H1861     1.0  0.33824  0.62212  0.27617  1.0000
  H   H1862     1.0  0.22101  0.71832  0.37969  1.0000
  C   C2335     1.0  0.36869  0.84140  0.28986  1.0000
  H   H1863     1.0  0.33966  0.67203  0.30143  1.0000
  H   H1864     1.0  0.36960  0.63591  0.26080  1.0000
  H   H1865     1.0  0.35109  0.65307  0.32667  1.0000
  C   C2336     1.0  0.35355  0.76165  0.39842  1.0000
  H   H1866     1.0  0.31268  0.79903  0.12120  1.0000
  C   C2337     1.0  0.34080  0.60309  0.32738  1.0000
  C   C2338     1.0  0.32483  0.60126  0.33649  1.0000
  C   C2339     1.0  0.36279  0.77188  0.44265  1.0000
  C   C2340     1.0  0.31257  0.88950  0.00390  1.0000
  C   C2341     1.0  0.18927  0.80911  0.30635  1.0000
  H   H1867     1.0  0.37008  0.94121  0.04820  1.0000
  C   C2342     1.0  0.24283  0.60537  0.44006  1.0000
  H   H1868     1.0  0.20983  0.68899  0.26647  1.0000
  H   H1869     1.0  0.32564  0.78649  0.08730  1.0000
  S   S306      1.0  0.25771  0.49151  0.40050  1.0000
  C   C2343     1.0  0.35654  0.94940  0.17470  1.0000
  C   C2344     1.0  0.33318  0.92834  0.19225  1.0000
  C   C2345     1.0  0.34325  0.94057  0.17035  1.0000
  C   C2346     1.0  0.34007  0.84570  0.33407  1.0000
  C   C2347     1.0  0.34523  0.61658  0.38057  1.0000
  H   H1870     1.0  0.31074  0.93656  0.14455  1.0000
  C   C2348     1.0  0.19510  0.75531  0.33046  1.0000
  H   H1871     1.0  0.20606  0.77775  0.30152  1.0000
  H   H1872     1.0  0.24054  0.86639  0.17882  1.0000
  S   S307      1.0  0.19156  0.58004  0.38665  1.0000
  C   C2349     1.0  0.33862  0.63297  0.28191  1.0000
  C   C2350     1.0  0.27369  0.59510  0.41106  1.0000
  H   H1873     1.0  0.36518  0.50847  0.99110  1.0000
  H   H1874     1.0  0.30472  0.49030  0.11466  1.0000
  C   C2351     1.0  0.25703  0.83239  0.11119  1.0000
  H   H1875     1.0  0.36200  0.78961  0.01747  1.0000
  H   H1876     1.0  0.19623  0.80081  0.30763  1.0000
  H   H1877     1.0  0.32305  0.92153  0.18850  1.0000
  H   H1878     1.0  0.34080  0.94303  0.14984  1.0000
  C   C2352     1.0  0.31340  0.78551  0.09075  1.0000
  C   C2353     1.0  0.25381  0.56439  0.34150  1.0000
  H   H1879     1.0  0.37720  0.57158  0.30164  1.0000
  C   C2354     1.0  0.25771  0.95895  0.03514  1.0000
  C   C2355     1.0  0.24546  0.75359  0.17987  1.0000
  C   C2356     1.0  0.25531  0.76422  0.15529  1.0000
  C   C2357     1.0  0.24956  0.76963  0.13220  1.0000
  C   C2358     1.0  0.36202  0.49840  0.18009  1.0000
  C   C2359     1.0  0.27829  0.52531  0.02910  1.0000
  H   H1880     1.0  0.27175  0.50120  0.05043  1.0000
  H   H1881     1.0  0.24312  0.73342  0.29069  1.0000
  C   C2360     1.0  0.36344  0.98172  0.13975  1.0000
  C   C2361     1.0  0.19973  0.64369  0.33767  1.0000
  C   C2362     1.0  0.37514  0.51660  0.42405  1.0000
  H   H1882     1.0  0.36130  0.52204  0.32897  1.0000
  Fe  Fe146     1.0  0.35010  0.81381  0.46944  1.0000
  H   H1883     1.0  0.28094  0.82354  0.47119  1.0000
  C   C2363     1.0  0.37209  0.56106  0.31854  1.0000
  H   H1884     1.0  0.19066  0.50688  0.01818  1.0000
  C   C2364     1.0  0.30351  0.61478  0.39565  1.0000
  C   C2365     1.0  0.37549  0.83227  0.24807  1.0000
  C   C2366     1.0  0.38028  0.88432  0.20407  1.0000
  H   H1885     1.0  0.30256  0.49142  0.45822  1.0000
  C   C2367     1.0  0.38096  0.51991  0.44645  1.0000
  C   C2368     1.0  0.18514  0.48963  0.05805  1.0000
  Fe  Fe147     1.0  0.18558  0.76438  0.26697  1.0000
  H   H1886     1.0  0.18502  0.53645  0.46868  1.0000
  C   C2369     1.0  0.18566  0.67122  0.41965  1.0000
  C   C2370     1.0  0.18861  0.66312  0.31450  1.0000
  H   H1887     1.0  0.18662  0.73388  0.36346  1.0000
  H   H1888     1.0  0.23369  0.62311  0.45481  1.0000
  C   C2371     1.0  0.20131  0.70083  0.23354  1.0000
  H   H1889     1.0  0.20875  0.69783  0.21689  1.0000
  C   C2372     1.0  0.18731  0.75498  0.08533  1.0000
  C   C2373     1.0  0.36231  0.74001  0.98427  1.0000
  H   H1890     1.0  0.37138  0.88937  0.04098  1.0000
  H   H1891     1.0  0.18731  0.76702  0.07796  1.0000
  H   H1892     1.0  0.28833  0.49646  0.42161  1.0000
  S   S308      1.0  0.38113  0.51781  0.20106  1.0000
  C   C2374     1.0  0.34187  0.96946  0.98055  1.0000
  H   H1893     1.0  0.38042  0.75122  0.47207  1.0000
  C   C2375     1.0  0.38141  0.71366  0.47884  1.0000
  H   H1894     1.0  0.25773  0.83225  0.72930  1.0000
  S   S309      1.0  0.22523  0.78595  0.57324  1.0000
  Fe  Fe148     1.0  0.20822  0.79071  0.67287  1.0000
  S   S310      1.0  0.22149  0.79258  0.70596  1.0000
  C   C2376     1.0  0.35973  0.87963  0.58243  1.0000
  H   H1895     1.0  0.29849  0.88738  0.97470  1.0000
  H   H1896     1.0  0.31924  0.91797  0.67342  1.0000
  S   S311      1.0  0.31867  0.55812  0.93945  1.0000
  C   C2377     1.0  0.28409  0.50617  0.77534  1.0000
  Fe  Fe149     1.0  0.32891  0.53369  0.88706  1.0000
  S   S312      1.0  0.30661  0.52606  0.92095  1.0000
  S   S313      1.0  0.33564  0.52122  0.85323  1.0000
  Fe  Fe150     1.0  0.34033  0.56352  0.90504  1.0000
  S   S314      1.0  0.35836  0.58668  0.89434  1.0000
  Fe  Fe151     1.0  0.32131  0.53378  0.94888  1.0000
  Fe  Fe152     1.0  0.30585  0.55096  0.90874  1.0000
  S   S315      1.0  0.28488  0.55994  0.90417  1.0000
  S   S316      1.0  0.34389  0.53949  0.91614  1.0000
  S   S317      1.0  0.32733  0.55830  0.87307  1.0000
  H   H1897     1.0  0.23207  0.84904  0.67217  1.0000
  H   H1898     1.0  0.36621  0.76074  0.56087  1.0000
  S   S318      1.0  0.22059  0.51526  0.91132  1.0000
  Fe  Fe153     1.0  0.27361  0.86732  0.71986  1.0000
  S   S319      1.0  0.26959  0.87932  0.75434  1.0000
  S   S320      1.0  0.25514  0.86186  0.69709  1.0000
  Fe  Fe154     1.0  0.30710  0.86972  0.72061  1.0000
  S   S321      1.0  0.30592  0.88184  0.75544  1.0000
  S   S322      1.0  0.32773  0.86421  0.69554  1.0000
  Fe  Fe155     1.0  0.28300  0.86442  0.77496  1.0000
  S   S323      1.0  0.27376  0.85347  0.82176  1.0000
  Fe  Fe156     1.0  0.29262  0.89574  0.73201  1.0000
  S   S324      1.0  0.29512  0.92160  0.72181  1.0000
  S   S325      1.0  0.28523  0.85098  0.74218  1.0000
  S   S326      1.0  0.29564  0.88499  0.69563  1.0000
  C   C2378     1.0  0.21339  0.52231  0.81496  1.0000
  C   C2379     1.0  0.20379  0.88209  0.64494  1.0000
  C   C2380     1.0  0.28537  0.95311  0.97051  1.0000
  Fe  Fe157     1.0  0.30241  0.79330  0.91547  1.0000
  S   S327      1.0  0.28210  0.79076  0.95132  1.0000
  S   S328      1.0  0.30630  0.80244  0.86853  1.0000
  C   C2381     1.0  0.25780  0.98474  0.75584  1.0000
  H   H1899     1.0  0.35186  0.98073  0.79519  1.0000
  C   C2382     1.0  0.23259  0.66830  0.95670  1.0000
  H   H1900     1.0  0.36167  0.69441  0.48774  1.0000
  S   S329      1.0  0.31989  0.80177  0.93776  1.0000
  S   S330      1.0  0.30300  0.76845  0.92821  1.0000
  S   S331      1.0  0.20779  0.67212  0.89008  1.0000
  H   H1901     1.0  0.28663  0.87996  0.51979  1.0000
  Fe  Fe158     1.0  0.20580  0.68983  0.91506  1.0000
  S   S332      1.0  0.22570  0.71155  0.90607  1.0000
  S   S333      1.0  0.31546  0.95815  0.80809  1.0000
  C   C2383     1.0  0.25204  0.73628  0.96049  1.0000
  C   C2384     1.0  0.25534  0.74227  0.93118  1.0000
  C   C2385     1.0  0.24681  0.73479  0.91523  1.0000
  C   C2386     1.0  0.23530  0.72086  0.92798  1.0000
  C   C2387     1.0  0.23202  0.71482  0.95731  1.0000
  H   H1902     1.0  0.18256  0.68786  0.62901  1.0000
  H   H1903     1.0  0.26454  0.75263  0.92076  1.0000
  H   H1904     1.0  0.24919  0.73982  0.89277  1.0000
  H   H1905     1.0  0.20623  0.49097  0.74901  1.0000
  H   H1906     1.0  0.21004  0.49882  0.51672  1.0000
  H   H1907     1.0  0.33539  0.90484  0.64544  1.0000
  C   C2388     1.0  0.28261  0.83915  0.83483  1.0000
  C   C2389     1.0  0.27845  0.83176  0.86384  1.0000
  C   C2390     1.0  0.28558  0.82038  0.87456  1.0000
  C   C2391     1.0  0.29696  0.81648  0.85622  1.0000
  C   C2392     1.0  0.30102  0.82383  0.82725  1.0000
  C   C2393     1.0  0.29383  0.83509  0.81652  1.0000
  H   H1908     1.0  0.26983  0.83498  0.87805  1.0000
  H   H1909     1.0  0.28236  0.81473  0.89694  1.0000
  H   H1910     1.0  0.30981  0.82081  0.81307  1.0000
  H   H1911     1.0  0.29707  0.84071  0.79412  1.0000
  C   C2394     1.0  0.30067  0.93164  0.74601  1.0000
  C   C2395     1.0  0.29913  0.94683  0.74361  1.0000
  C   C2396     1.0  0.30338  0.95499  0.76285  1.0000
  C   C2397     1.0  0.30959  0.94815  0.78408  1.0000
  C   C2398     1.0  0.31137  0.93307  0.78617  1.0000
  C   C2399     1.0  0.30672  0.92476  0.76742  1.0000
  H   H1912     1.0  0.29449  0.95225  0.72706  1.0000
  H   H1913     1.0  0.31615  0.92773  0.80259  1.0000
  H   H1914     1.0  0.30777  0.91302  0.76955  1.0000
  H   H1915     1.0  0.35587  0.98188  0.93869  1.0000
  H   H1916     1.0  0.33344  0.78338  0.53133  1.0000
  Fe  Fe159     1.0  0.19219  0.80825  0.63428  1.0000
  C   C2400     1.0  0.36181  0.92169  0.67593  1.0000
  H   H1917     1.0  0.22060  0.72708  0.84244  1.0000
  C   C2401     1.0  0.29850  0.66813  0.88598  1.0000
  C   C2402     1.0  0.22076  0.52522  0.83578  1.0000
  H   H1918     1.0  0.25221  0.96953  0.72965  1.0000
  C   C2403     1.0  0.18481  0.90250  0.62851  1.0000
  C   C2404     1.0  0.25943  0.94287  0.96758  1.0000
  H   H1919     1.0  0.33792  0.82453  0.57586  1.0000
  C   C2405     1.0  0.27279  0.95497  0.95964  1.0000
  H   H1920     1.0  0.30197  0.96661  0.76108  1.0000
  H   H1921     1.0  0.33139  0.50322  0.96608  1.0000
  C   C2406     1.0  0.36847  0.59280  0.91839  1.0000
  Fe  Fe160     1.0  0.30797  0.98008  0.81074  1.0000
  C   C2407     1.0  0.21597  0.93804  0.77748  1.0000
  C   C2408     1.0  0.22940  0.77273  0.52924  1.0000
  H   H1922     1.0  0.37361  0.92224  0.67672  1.0000
  C   C2409     1.0  0.34825  0.49092  0.71723  1.0000
  C   C2410     1.0  0.26697  0.54727  0.90705  1.0000
  C   C2411     1.0  0.25420  0.55339  0.90524  1.0000
  C   C2412     1.0  0.23981  0.54368  0.90711  1.0000
  C   C2413     1.0  0.23810  0.52776  0.91084  1.0000
  C   C2414     1.0  0.25079  0.52160  0.91311  1.0000
  C   C2415     1.0  0.26521  0.53132  0.91096  1.0000
  H   H1923     1.0  0.25547  0.56572  0.90224  1.0000
  H   H1924     1.0  0.23011  0.54855  0.90535  1.0000
  H   H1925     1.0  0.24946  0.50927  0.91650  1.0000
  H   H1926     1.0  0.27498  0.52652  0.91202  1.0000
  C   C2416     1.0  0.29029  0.87120  0.53319  1.0000
  H   H1927     1.0  0.20000  0.71579  0.95653  1.0000
  C   C2417     1.0  0.32246  0.50676  0.84499  1.0000
  C   C2418     1.0  0.37542  0.88818  0.70098  1.0000
  H   H1928     1.0  0.21458  0.51381  0.77786  1.0000
  C   C2419     1.0  0.21506  0.74256  0.56232  1.0000
  C   C2420     1.0  0.19263  0.63646  0.85769  1.0000
  S   S334      1.0  0.20300  0.76909  0.65777  1.0000
  H   H1929     1.0  0.24414  0.80514  0.73296  1.0000
  C   C2421     1.0  0.29501  0.84573  0.54407  1.0000
  C   C2422     1.0  0.23971  0.66824  0.92929  1.0000
  H   H1930     1.0  0.21081  0.81171  0.54824  1.0000
  H   H1931     1.0  0.30366  0.83986  0.58058  1.0000
  C   C2423     1.0  0.35635  0.77694  0.96021  1.0000
  S   S335      1.0  0.21658  0.80663  0.62924  1.0000
  H   H1932     1.0  0.29544  0.96280  0.96449  1.0000
  C   C2424     1.0  0.18358  0.69497  0.72694  1.0000
  H   H1933     1.0  0.27385  0.51289  0.96125  1.0000
  H   H1934     1.0  0.28575  0.49895  0.79406  1.0000
  C   C2425     1.0  0.37387  0.88080  0.67956  1.0000
  C   C2426     1.0  0.35917  0.87333  0.67829  1.0000
  C   C2427     1.0  0.34596  0.87365  0.69784  1.0000
  C   C2428     1.0  0.34752  0.88115  0.71912  1.0000
  C   C2429     1.0  0.36223  0.88824  0.72089  1.0000
  H   H1935     1.0  0.35804  0.86733  0.66207  1.0000
  H   H1936     1.0  0.33745  0.88131  0.73443  1.0000
  C   C2430     1.0  0.22311  0.77010  0.55835  1.0000
  H   H1937     1.0  0.25757  0.77543  0.54426  1.0000
  C   C2431     1.0  0.21586  0.75499  0.57491  1.0000
  H   H1938     1.0  0.21120  0.75286  0.59746  1.0000
  C   C2432     1.0  0.23064  0.81179  0.70413  1.0000
  C   C2433     1.0  0.22729  0.82423  0.68704  1.0000
  C   C2434     1.0  0.23484  0.83950  0.68527  1.0000
  C   C2435     1.0  0.24588  0.84248  0.70036  1.0000
  C   C2436     1.0  0.24924  0.83006  0.71758  1.0000
  C   C2437     1.0  0.24155  0.81472  0.71959  1.0000
  H   H1939     1.0  0.21873  0.82211  0.67539  1.0000
  C   C2438     1.0  0.18437  0.70076  0.54909  1.0000
  C   C2439     1.0  0.23165  0.88288  0.73041  1.0000
  C   C2440     1.0  0.22960  0.87033  0.75350  1.0000
  C   C2441     1.0  0.22934  0.87272  0.78024  1.0000
  C   C2442     1.0  0.23131  0.88773  0.78381  1.0000
  C   C2443     1.0  0.23367  0.90046  0.76057  1.0000
  C   C2444     1.0  0.23361  0.89788  0.73389  1.0000
  P   P82       1.0  0.23621  0.91989  0.76510  1.0000
  C   C2445     1.0  0.21787  0.92294  0.78108  1.0000
  C   C2446     1.0  0.24943  0.92375  0.78659  1.0000
  C   C2447     1.0  0.25041  0.93689  0.79723  1.0000
  C   C2448     1.0  0.26116  0.94043  0.81258  1.0000
  C   C2449     1.0  0.27098  0.93088  0.81756  1.0000
  C   C2450     1.0  0.27020  0.91788  0.80685  1.0000
  C   C2451     1.0  0.25969  0.91447  0.79098  1.0000
  C   C2452     1.0  0.33955  0.76626  0.51060  1.0000
  H   H1940     1.0  0.20026  0.49392  0.88325  1.0000
  H   H1941     1.0  0.19091  0.76783  0.71971  1.0000
  H   H1942     1.0  0.18512  0.71791  0.77205  1.0000
  C   C2453     1.0  0.35865  0.50001  0.66652  1.0000
  C   C2454     1.0  0.24479  0.93344  0.73072  1.0000
  C   C2455     1.0  0.23556  0.93907  0.71391  1.0000
  C   C2456     1.0  0.24236  0.94947  0.68726  1.0000
  C   C2457     1.0  0.25838  0.95409  0.67697  1.0000
  C   C2458     1.0  0.26762  0.94820  0.69326  1.0000
  C   C2459     1.0  0.26085  0.93792  0.72001  1.0000
  H   H1943     1.0  0.36189  0.92404  0.81542  1.0000
  H   H1944     1.0  0.22858  0.85882  0.75036  1.0000
  H   H1945     1.0  0.22800  0.86300  0.79806  1.0000
  H   H1946     1.0  0.23127  0.88944  0.80460  1.0000
  H   H1947     1.0  0.23530  0.90740  0.71558  1.0000
  H   H1948     1.0  0.24321  0.94469  0.79315  1.0000
  H   H1949     1.0  0.26208  0.95078  0.82018  1.0000
  H   H1950     1.0  0.27952  0.93382  0.82898  1.0000
  H   H1951     1.0  0.27811  0.91071  0.81003  1.0000
  H   H1952     1.0  0.25998  0.90489  0.78153  1.0000
  H   H1953     1.0  0.22544  0.94786  0.76543  1.0000
  C   C2460     1.0  0.25390  0.68928  0.95529  1.0000
  H   H1954     1.0  0.19403  0.77860  0.76004  1.0000
  H   H1955     1.0  0.22312  0.93571  0.72147  1.0000
  H   H1956     1.0  0.23515  0.95426  0.67496  1.0000
  H   H1957     1.0  0.26361  0.96230  0.65648  1.0000
  H   H1958     1.0  0.28005  0.95160  0.68534  1.0000
  H   H1959     1.0  0.26820  0.93346  0.73227  1.0000
  C   C2461     1.0  0.33736  0.92775  0.69071  1.0000
  C   C2462     1.0  0.25797  0.49558  0.83659  1.0000
  C   C2463     1.0  0.35928  0.81168  0.88791  1.0000
  C   C2464     1.0  0.34880  0.80841  0.87198  1.0000
  C   C2465     1.0  0.34670  0.82038  0.85172  1.0000
  C   C2466     1.0  0.35496  0.83577  0.84737  1.0000
  H   H1960     1.0  0.24035  0.50913  0.77614  1.0000
  P   P83       1.0  0.34969  0.85112  0.82514  1.0000
  C   C2467     1.0  0.34866  0.84585  0.79262  1.0000
  C   C2468     1.0  0.33165  0.85356  0.84396  1.0000
  C   C2469     1.0  0.32533  0.86511  0.83118  1.0000
  C   C2470     1.0  0.31166  0.86753  0.84572  1.0000
  C   C2471     1.0  0.30448  0.85878  0.87350  1.0000
  C   C2472     1.0  0.31085  0.84746  0.88664  1.0000
  C   C2473     1.0  0.32432  0.84477  0.87193  1.0000
  C   C2474     1.0  0.33569  0.84602  0.78192  1.0000
  C   C2475     1.0  0.33527  0.84224  0.75644  1.0000
  C   C2476     1.0  0.34794  0.83863  0.74101  1.0000
  C   C2477     1.0  0.36087  0.83831  0.75156  1.0000
  C   C2478     1.0  0.36116  0.84170  0.77746  1.0000
  C   C2479     1.0  0.36336  0.86973  0.81737  1.0000
  C   C2480     1.0  0.36133  0.93044  0.77172  1.0000
  H   H1961     1.0  0.21323  0.60489  0.94285  1.0000
  C   C2481     1.0  0.28995  0.67618  0.90118  1.0000
  H   H1962     1.0  0.29249  0.91267  0.97332  1.0000
  H   H1963     1.0  0.28160  0.54056  0.95942  1.0000
  C   C2482     1.0  0.26012  0.81324  0.55094  1.0000
  Fe  Fe161     1.0  0.28371  0.76618  0.96560  1.0000
  H   H1964     1.0  0.33806  0.81773  0.84037  1.0000
  H   H1965     1.0  0.19742  0.52045  0.51369  1.0000
  H   H1966     1.0  0.33087  0.87200  0.80971  1.0000
  H   H1967     1.0  0.30638  0.87592  0.83533  1.0000
  H   H1968     1.0  0.29373  0.86044  0.88456  1.0000
  H   H1969     1.0  0.30511  0.84044  0.90801  1.0000
  H   H1970     1.0  0.32879  0.83574  0.88256  1.0000
  H   H1971     1.0  0.32585  0.84909  0.79296  1.0000
  H   H1972     1.0  0.32524  0.84255  0.74825  1.0000
  H   H1973     1.0  0.34780  0.83641  0.72062  1.0000
  H   H1974     1.0  0.37645  0.60885  0.84117  1.0000
  C   C2483     1.0  0.24593  0.54176  0.49943  1.0000
  H   H1975     1.0  0.35696  0.87182  0.86024  1.0000
  C   C2484     1.0  0.19543  0.58858  0.93400  1.0000
  H   H1976     1.0  0.18357  0.73446  0.57573  1.0000
  C   C2485     1.0  0.26763  0.77082  0.54307  1.0000
  H   H1977     1.0  0.19878  0.78585  0.54386  1.0000
  C   C2486     1.0  0.25657  0.49456  0.86538  1.0000
  C   C2487     1.0  0.37486  0.50616  0.69742  1.0000
  H   H1978     1.0  0.19076  0.68930  0.71487  1.0000
  C   C2488     1.0  0.37659  0.60844  0.91237  1.0000
  H   H1979     1.0  0.34617  0.98504  0.66533  1.0000
  C   C2489     1.0  0.18943  0.92813  0.80488  1.0000
  C   C2490     1.0  0.35791  0.75338  0.52736  1.0000
  C   C2491     1.0  0.35867  0.76221  0.54697  1.0000
  C   C2492     1.0  0.34981  0.77296  0.54854  1.0000
  C   C2493     1.0  0.34017  0.77490  0.53047  1.0000
  C   C2494     1.0  0.33594  0.96515  0.93749  1.0000
  C   C2495     1.0  0.33119  0.91913  0.67383  1.0000
  C   C2496     1.0  0.20541  0.91042  0.79730  1.0000
  C   C2497     1.0  0.36931  0.58229  0.94244  1.0000
  C   C2498     1.0  0.25684  0.77145  0.61257  1.0000
  H   H1980     1.0  0.18956  0.73461  0.52285  1.0000
  C   C2499     1.0  0.35168  0.73340  0.92460  1.0000
  C   C2500     1.0  0.23387  0.98047  0.74066  1.0000
  H   H1981     1.0  0.27713  0.72546  0.94091  1.0000
  H   H1982     1.0  0.23212  0.88097  0.70963  1.0000
  H   H1983     1.0  0.28932  0.80596  0.50565  1.0000
  H   H1984     1.0  0.28644  0.85468  0.50870  1.0000
  C   C2501     1.0  0.24025  0.72255  0.97346  1.0000
  C   C2502     1.0  0.34147  0.98293  0.71011  1.0000
  H   H1985     1.0  0.35052  0.77991  0.56352  1.0000
  H   H1986     1.0  0.36314  0.57023  0.94733  1.0000
  C   C2503     1.0  0.36770  0.70325  0.92978  1.0000
  C   C2504     1.0  0.35216  0.87246  0.56526  1.0000
  H   H1987     1.0  0.37571  0.61671  0.89420  1.0000
  C   C2505     1.0  0.29365  0.50733  0.74897  1.0000
  C   C2506     1.0  0.29984  0.84864  0.56760  1.0000
  H   H1988     1.0  0.19810  0.88609  0.74919  1.0000
  H   H1989     1.0  0.24191  0.87044  0.62034  1.0000
  C   C2507     1.0  0.29323  0.75843  0.54030  1.0000
  H   H1990     1.0  0.31629  0.81305  0.61921  1.0000
  C   C2508     1.0  0.31452  0.81212  0.59882  1.0000
  C   C2509     1.0  0.37290  0.50728  0.67018  1.0000
  H   H1991     1.0  0.20650  0.89865  0.80080  1.0000
  H   H1992     1.0  0.30366  0.50380  0.88097  1.0000
  H   H1993     1.0  0.33400  0.82192  0.52952  1.0000
  C   C2510     1.0  0.23963  0.67886  0.96964  1.0000
  H   H1994     1.0  0.37916  0.57911  0.97811  1.0000
  C   C2511     1.0  0.30835  0.67577  0.85923  1.0000
  C   C2512     1.0  0.21741  0.88934  0.65068  1.0000
  H   H1995     1.0  0.35884  0.87028  0.54662  1.0000
  H   H1996     1.0  0.22535  0.98532  0.91758  1.0000
  C   C2513     1.0  0.28008  0.81097  0.51327  1.0000
  C   C2514     1.0  0.35562  0.91317  0.65893  1.0000
  C   C2515     1.0  0.23138  0.87392  0.62669  1.0000
  C   C2516     1.0  0.18594  0.76748  0.76372  1.0000
  H   H1997     1.0  0.23969  0.75432  0.64693  1.0000
  C   C2517     1.0  0.35775  0.59395  0.78559  1.0000
  H   H1998     1.0  0.37232  0.85065  0.86009  1.0000
  C   C2518     1.0  0.26482  0.78718  0.60160  1.0000
  C   C2519     1.0  0.21806  0.86721  0.61974  1.0000
  C   C2520     1.0  0.20439  0.87146  0.62841  1.0000
  C   C2521     1.0  0.30608  0.71312  0.52843  1.0000
  H   H1999     1.0  0.20224  0.68190  0.59349  1.0000
  C   C2522     1.0  0.18315  0.69147  0.60665  1.0000
  H   H2000     1.0  0.31490  0.66948  0.84741  1.0000
  H   H2001     1.0  0.28108  0.74186  0.52232  1.0000
  H   H2002     1.0  0.34741  0.95434  0.75892  1.0000
  H   H2003     1.0  0.30323  0.75373  0.53878  1.0000
  H   H2004     1.0  0.32929  0.71876  0.53247  1.0000
  H   H2005     1.0  0.30196  0.70394  0.54795  1.0000
  C   C2523     1.0  0.34242  0.73984  0.90899  1.0000
  H   H2006     1.0  0.25898  0.69748  0.96563  1.0000
  C   C2524     1.0  0.30752  0.50001  0.86229  1.0000
  C   C2525     1.0  0.30009  0.80442  0.59691  1.0000
  C   C2526     1.0  0.37432  0.75230  0.89284  1.0000
  H   H2007     1.0  0.21821  0.85855  0.60788  1.0000
  C   C2527     1.0  0.19154  0.91808  0.62642  1.0000
  C   C2528     1.0  0.30115  0.72869  0.48740  1.0000
  C   C2529     1.0  0.34564  0.97291  0.95103  1.0000
  H   H2008     1.0  0.30254  0.77624  0.55856  1.0000
  H   H2009     1.0  0.29954  0.51770  0.70413  1.0000
  H   H2010     1.0  0.24527  0.82729  0.53805  1.0000
  S   S336      1.0  0.34161  0.76960  0.94520  1.0000
  H   H2011     1.0  0.27343  0.96584  0.94498  1.0000
  C   C2530     1.0  0.35367  0.92706  0.75132  1.0000
  H   H2012     1.0  0.18276  0.75413  0.60258  1.0000
  Fe  Fe162     1.0  0.18473  0.67355  0.88224  1.0000
  H   H2013     1.0  0.33002  0.93312  0.70325  1.0000
  Fe  Fe163     1.0  0.20921  0.78551  0.61435  1.0000
  C   C2531     1.0  0.25082  0.79260  0.64370  1.0000
  C   C2532     1.0  0.19875  0.80879  0.54825  1.0000
  H   H2014     1.0  0.29791  0.49667  0.97734  1.0000
  P   P84       1.0  0.36014  0.93928  0.71551  1.0000
  P   P85       1.0  0.26168  0.51422  0.81192  1.0000
  C   C2533     1.0  0.24290  0.51759  0.81258  1.0000
  C   C2534     1.0  0.27388  0.52863  0.82298  1.0000
  C   C2535     1.0  0.27082  0.54312  0.82295  1.0000
  C   C2536     1.0  0.28039  0.55399  0.83186  1.0000
  C   C2537     1.0  0.29333  0.55071  0.83993  1.0000
  C   C2538     1.0  0.29673  0.53653  0.83917  1.0000
  C   C2539     1.0  0.28706  0.52556  0.83065  1.0000
  C   C2540     1.0  0.23517  0.51402  0.79240  1.0000
  C   C2541     1.0  0.36023  0.73200  0.48247  1.0000
  C   C2542     1.0  0.31712  0.49017  0.81362  1.0000
  C   C2543     1.0  0.30587  0.71919  0.97154  1.0000
  H   H2015     1.0  0.28239  0.67008  0.92193  1.0000
  C   C2544     1.0  0.27284  0.51458  0.77751  1.0000
  C   C2545     1.0  0.23533  0.52264  0.83487  1.0000
  C   C2546     1.0  0.32720  0.50174  0.82065  1.0000
  C   C2547     1.0  0.29205  0.51684  0.72452  1.0000
  C   C2548     1.0  0.28109  0.52550  0.72651  1.0000
  C   C2549     1.0  0.27165  0.52455  0.75295  1.0000
  C   C2550     1.0  0.24831  0.97746  0.74101  1.0000
  C   C2551     1.0  0.29285  0.77129  0.55127  1.0000
  H   H2016     1.0  0.18509  0.70421  0.52671  1.0000
  Fe  Fe164     1.0  0.19810  0.52254  0.91742  1.0000
  H   H2017     1.0  0.19563  0.64856  0.85773  1.0000
  H   H2018     1.0  0.26109  0.54610  0.81617  1.0000
  H   H2019     1.0  0.27772  0.56493  0.83290  1.0000
  H   H2020     1.0  0.30064  0.55913  0.84701  1.0000
  H   H2021     1.0  0.30684  0.53403  0.84527  1.0000
  H   H2022     1.0  0.28989  0.51468  0.82995  1.0000
  H   H2023     1.0  0.30483  0.69281  0.93285  1.0000
  C   C2552     1.0  0.18685  0.74157  0.48089  1.0000
  C   C2553     1.0  0.19432  0.71551  0.97796  1.0000
  C   C2554     1.0  0.36237  0.49837  0.72086  1.0000
  C   C2555     1.0  0.20180  0.94063  0.78902  1.0000
  H   H2024     1.0  0.34179  0.79668  0.87621  1.0000
  C   C2556     1.0  0.29760  0.80336  0.57047  1.0000
  H   H2025     1.0  0.37132  0.84155  0.78527  1.0000
  H   H2026     1.0  0.28017  0.53322  0.70760  1.0000
  H   H2027     1.0  0.26369  0.53183  0.75428  1.0000
  C   C2557     1.0  0.28988  0.80250  0.76801  1.0000
  C   C2558     1.0  0.30083  0.79771  0.78106  1.0000
  C   C2559     1.0  0.29664  0.79047  0.81002  1.0000
  C   C2560     1.0  0.28161  0.78831  0.82611  1.0000
  C   C2561     1.0  0.27056  0.79326  0.81329  1.0000
  C   C2562     1.0  0.27477  0.80011  0.78393  1.0000
  P   P86       1.0  0.25083  0.78956  0.83361  1.0000
  C   C2563     1.0  0.25006  0.79211  0.86880  1.0000
  C   C2564     1.0  0.24181  0.80280  0.81477  1.0000
  C   C2565     1.0  0.24903  0.81875  0.80560  1.0000
  C   C2566     1.0  0.24247  0.82903  0.79011  1.0000
  C   C2567     1.0  0.22876  0.82343  0.78328  1.0000
  C   C2568     1.0  0.22155  0.80758  0.79210  1.0000
  C   C2569     1.0  0.22798  0.79728  0.80793  1.0000
  C   C2570     1.0  0.24580  0.80492  0.87648  1.0000
  C   C2571     1.0  0.24466  0.80639  0.90403  1.0000
  C   C2572     1.0  0.24773  0.79513  0.92420  1.0000
  C   C2573     1.0  0.25183  0.78230  0.91691  1.0000
  C   C2574     1.0  0.25300  0.78078  0.88938  1.0000
  C   C2575     1.0  0.24113  0.76981  0.83628  1.0000
  C   C2576     1.0  0.24485  0.76320  0.81367  1.0000
  C   C2577     1.0  0.23738  0.74789  0.81576  1.0000
  C   C2578     1.0  0.22619  0.73907  0.84042  1.0000
  C   C2579     1.0  0.22222  0.74566  0.86275  1.0000
  C   C2580     1.0  0.22952  0.76101  0.86063  1.0000
  H   H2028     1.0  0.29312  0.80819  0.74558  1.0000
  H   H2029     1.0  0.31260  0.79980  0.76885  1.0000
  H   H2030     1.0  0.30521  0.78712  0.82035  1.0000
  H   H2031     1.0  0.27888  0.78311  0.84860  1.0000
  H   H2032     1.0  0.26645  0.80369  0.77318  1.0000
  H   H2033     1.0  0.25982  0.82324  0.81031  1.0000
  H   H2034     1.0  0.24820  0.84131  0.78300  1.0000
  H   H2035     1.0  0.22391  0.83130  0.77053  1.0000
  H   H2036     1.0  0.21112  0.80324  0.78619  1.0000
  H   H2037     1.0  0.22223  0.78505  0.81437  1.0000
  H   H2038     1.0  0.24344  0.81390  0.86141  1.0000
  H   H2039     1.0  0.24160  0.81643  0.90960  1.0000
  H   H2040     1.0  0.24703  0.79637  0.94544  1.0000
  H   H2041     1.0  0.25412  0.77354  0.93268  1.0000
  H   H2042     1.0  0.25600  0.77063  0.88428  1.0000
  H   H2043     1.0  0.25347  0.76986  0.79441  1.0000
  H   H2044     1.0  0.24030  0.74280  0.79835  1.0000
  H   H2045     1.0  0.24814  0.80075  0.65562  1.0000
  Fe  Fe165     1.0  0.19990  0.97621  0.71410  1.0000
  H   H2046     1.0  0.22612  0.76588  0.87813  1.0000
  C   C2581     1.0  0.29017  0.85697  0.52694  1.0000
  C   C2582     1.0  0.25396  0.67863  0.91488  1.0000
  H   H2047     1.0  0.24973  0.94438  0.95903  1.0000
  H   H2048     1.0  0.19751  0.87679  0.70643  1.0000
  H   H2049     1.0  0.18309  0.50855  0.67607  1.0000
  C   C2583     1.0  0.18360  0.51196  0.55695  1.0000
  C   C2584     1.0  0.36985  0.58238  0.82040  1.0000
  C   C2585     1.0  0.23024  0.49909  0.72697  1.0000
  H   H2050     1.0  0.20967  0.73083  0.57523  1.0000
  H   H2051     1.0  0.18617  0.90754  0.75693  1.0000
  C   C2586     1.0  0.18452  0.60513  0.85853  1.0000
  C   C2587     1.0  0.26131  0.68911  0.92791  1.0000
  C   C2588     1.0  0.37657  0.73790  0.97133  1.0000
  P   P87       1.0  0.27995  0.70223  0.90926  1.0000
  C   C2589     1.0  0.27766  0.71877  0.88476  1.0000
  H   H2052     1.0  0.37621  0.97450  0.77478  1.0000
  C   C2590     1.0  0.28997  0.70855  0.93410  1.0000
  H   H2053     1.0  0.33461  0.91140  0.74412  1.0000
  H   H2054     1.0  0.23511  0.78440  0.51638  1.0000
  S   S337      1.0  0.19361  0.67185  0.95612  1.0000
  H   H2055     1.0  0.35718  0.50089  0.64541  1.0000
  C   C2591     1.0  0.28801  0.73342  0.87853  1.0000
  C   C2592     1.0  0.28643  0.74608  0.85900  1.0000
  C   C2593     1.0  0.27477  0.74415  0.84499  1.0000
  C   C2594     1.0  0.26461  0.72957  0.85068  1.0000
  C   C2595     1.0  0.26597  0.71697  0.87059  1.0000
  C   C2596     1.0  0.19127  0.91303  0.80923  1.0000
  C   C2597     1.0  0.30114  0.69956  0.86281  1.0000
  H   H2056     1.0  0.32518  0.89590  0.79323  1.0000
  Fe  Fe166     1.0  0.29978  0.79700  0.97544  1.0000
  H   H2057     1.0  0.24801  0.50101  0.97316  1.0000
  C   C2598     1.0  0.23015  0.98837  0.93432  1.0000
  H   H2058     1.0  0.37008  0.50130  0.58920  1.0000
  H   H2059     1.0  0.29515  0.83483  0.53893  1.0000
  C   C2599     1.0  0.26173  0.79772  0.61750  1.0000
  H   H2060     1.0  0.31505  0.94803  0.94267  1.0000
  C   C2600     1.0  0.30170  0.70199  0.94144  1.0000
  H   H2061     1.0  0.29742  0.65593  0.89492  1.0000
  C   C2601     1.0  0.34079  0.91432  0.75926  1.0000
  H   H2062     1.0  0.20047  0.95238  0.78539  1.0000
  H   H2063     1.0  0.34630  0.72372  0.94307  1.0000
  C   C2602     1.0  0.25579  0.55606  0.49705  1.0000
  H   H2064     1.0  0.29730  0.73514  0.88874  1.0000
  H   H2065     1.0  0.29421  0.75742  0.85489  1.0000
  H   H2066     1.0  0.27344  0.75396  0.83006  1.0000
  H   H2067     1.0  0.25530  0.72806  0.84046  1.0000
  H   H2068     1.0  0.25766  0.70594  0.87515  1.0000
  H   H2069     1.0  0.30233  0.71172  0.85347  1.0000
  H   H2070     1.0  0.31732  0.69739  0.82690  1.0000
  H   H2071     1.0  0.19787  0.92115  0.64130  1.0000
  C   C2603     1.0  0.19885  0.61169  0.86232  1.0000
  H   H2072     1.0  0.20340  0.69030  0.54239  1.0000
  H   H2073     1.0  0.36368  0.49783  0.74201  1.0000
  S   S338      1.0  0.28459  0.97964  0.83622  1.0000
  P   P88       1.0  0.37942  0.73204  0.93865  1.0000
  C   C2604     1.0  0.20287  0.62732  0.86209  1.0000
  S   S339      1.0  0.19713  0.97740  0.67006  1.0000
  H   H2074     1.0  0.25845  0.50498  0.87258  1.0000
  H   H2075     1.0  0.34811  0.59812  0.78058  1.0000
  C   C2605     1.0  0.34764  0.96105  0.73820  1.0000
  H   H2076     1.0  0.25879  0.76298  0.60101  1.0000
  P   P89       1.0  0.27882  0.79386  0.56743  1.0000
  H   H2077     1.0  0.22318  0.70415  0.96753  1.0000
  H   H2078     1.0  0.25829  0.75269  0.52523  1.0000
  C   C2606     1.0  0.33547  0.90531  0.78726  1.0000
  H   H2079     1.0  0.24063  0.52454  0.85173  1.0000
  H   H2080     1.0  0.22145  0.49446  0.96931  1.0000
  C   C2607     1.0  0.22052  0.51653  0.79345  1.0000
  C   C2608     1.0  0.37419  0.89196  0.83318  1.0000
  C   C2609     1.0  0.28006  0.77764  0.55251  1.0000
  H   H2081     1.0  0.20197  0.52411  0.81605  1.0000
  C   C2610     1.0  0.35268  0.92899  0.69209  1.0000
  C   C2611     1.0  0.28620  0.72033  0.94604  1.0000
  H   H2082     1.0  0.22153  0.66021  0.96774  1.0000
  Fe  Fe167     1.0  0.31915  0.77668  0.95324  1.0000
  S   S340      1.0  0.21969  0.72942  0.51796  1.0000
  H   H2083     1.0  0.35980  0.68105  0.92189  1.0000
  H   H2084     1.0  0.25350  0.80997  0.57270  1.0000
  C   C2612     1.0  0.35247  0.96527  0.68738  1.0000
  C   C2613     1.0  0.18417  0.76142  0.74087  1.0000
  H   H2085     1.0  0.37407  0.77230  0.93007  1.0000
  C   C2614     1.0  0.18960  0.70391  0.74348  1.0000
  H   H2086     1.0  0.25922  0.67845  0.89355  1.0000
  H   H2087     1.0  0.26894  0.98245  0.75573  1.0000
  C   C2615     1.0  0.36566  0.70681  0.48460  1.0000
  H   H2088     1.0  0.24144  0.89030  0.64723  1.0000
  C   C2616     1.0  0.34673  0.97843  0.68563  1.0000
  C   C2617     1.0  0.38100  0.53592  0.78131  1.0000
  C   C2618     1.0  0.34846  0.75549  0.50883  1.0000
  H   H2089     1.0  0.23452  0.77303  0.67466  1.0000
  S   S341      1.0  0.18904  0.83214  0.61800  1.0000
  H   H2090     1.0  0.37755  0.52936  0.48262  1.0000
  H   H2091     1.0  0.36268  0.90734  0.64699  1.0000
  H   H2092     1.0  0.37602  0.82940  0.89558  1.0000
  H   H2093     1.0  0.33876  0.96797  0.91459  1.0000
  C   C2619     1.0  0.19429  0.61483  0.93708  1.0000
  C   C2620     1.0  0.34029  0.91177  0.65805  1.0000
  S   S342      1.0  0.22224  0.97113  0.72181  1.0000
  H   H2094     1.0  0.29110  0.73477  0.97365  1.0000
  H   H2095     1.0  0.29105  0.79924  0.61622  1.0000
  C   C2621     1.0  0.36579  0.83894  0.86292  1.0000
  S   S343      1.0  0.36661  0.80897  0.49617  1.0000
  C   C2622     1.0  0.32669  0.81857  0.57450  1.0000
  C   C2623     1.0  0.36465  0.68708  0.93576  1.0000
  C   C2624     1.0  0.30959  0.70730  0.96011  1.0000
  C   C2625     1.0  0.37017  0.59415  0.76390  1.0000
  H   H2096     1.0  0.33871  0.50689  0.80706  1.0000
  C   C2626     1.0  0.24302  0.77695  0.65440  1.0000
  H   H2097     1.0  0.31860  0.70219  0.96572  1.0000
  H   H2098     1.0  0.26145  0.55755  0.51364  1.0000
  C   C2627     1.0  0.27272  0.80721  0.54229  1.0000
  C   C2628     1.0  0.38131  0.50579  0.57418  1.0000
  C   C2629     1.0  0.34311  0.90872  0.80748  1.0000
  C   C2630     1.0  0.29112  0.69194  0.88961  1.0000
  C   C2631     1.0  0.37771  0.70259  0.97110  1.0000
  C   C2632     1.0  0.35606  0.92128  0.79969  1.0000
  H   H2099     1.0  0.36472  0.74499  0.52678  1.0000
  C   C2633     1.0  0.23108  0.88506  0.64198  1.0000
  C   C2634     1.0  0.37410  0.71111  0.94762  1.0000
  H   H2100     1.0  0.34182  0.75786  0.87400  1.0000
  C   C2635     1.0  0.30970  0.69148  0.84768  1.0000
  C   C2636     1.0  0.26796  0.75788  0.53247  1.0000
  C   C2637     1.0  0.22838  0.76034  0.51663  1.0000
  H   H2101     1.0  0.36336  0.89397  0.73745  1.0000
  C   C2638     1.0  0.31005  0.80962  0.54628  1.0000
  H   H2102     1.0  0.31392  0.49165  0.93590  1.0000
  S   S344      1.0  0.18425  0.79389  0.67932  1.0000
  C   C2639     1.0  0.38096  0.94443  0.70520  1.0000
  H   H2103     1.0  0.19493  0.83033  0.55548  1.0000
  S   S345      1.0  0.20307  0.63290  0.94211  1.0000
  H   H2104     1.0  0.33755  0.97757  0.75534  1.0000
  H   H2105     1.0  0.33888  0.90174  0.82921  1.0000
  H   H2106     1.0  0.21747  0.89819  0.66206  1.0000
  C   C2640     1.0  0.34641  0.49144  0.69007  1.0000
  C   C2641     1.0  0.20201  0.60292  0.93856  1.0000
  H   H2107     1.0  0.22864  0.50867  0.71189  1.0000
  C   C2642     1.0  0.37150  0.77642  0.94875  1.0000
  H   H2108     1.0  0.19218  0.49963  0.63375  1.0000
  C   C2643     1.0  0.28077  0.75172  0.53100  1.0000
  C   C2644     1.0  0.22124  0.74522  0.53314  1.0000
  C   C2645     1.0  0.24598  0.76640  0.63882  1.0000
  C   C2646     1.0  0.35301  0.95648  0.71368  1.0000
  S   S346      1.0  0.18390  0.69282  0.90356  1.0000
  H   H2109     1.0  0.26763  0.80991  0.60947  1.0000
  H   H2110     1.0  0.24397  0.53213  0.51778  1.0000
  C   C2647     1.0  0.25525  0.82307  0.53111  1.0000
  C   C2648     1.0  0.19259  0.89134  0.73386  1.0000
  H   H2111     1.0  0.21372  0.63223  0.86610  1.0000
  S   S347      1.0  0.37320  0.84127  0.53656  1.0000
  H   H2112     1.0  0.34302  0.71042  0.48985  1.0000
  P   P90       1.0  0.34697  0.74422  0.48355  1.0000
  C   C2649     1.0  0.37247  0.87733  0.78975  1.0000
  H   H2113     1.0  0.35273  0.73856  0.97484  1.0000
  C   C2650     1.0  0.32447  0.81719  0.54831  1.0000
  H   H2114     1.0  0.21511  0.52919  0.85307  1.0000
  C   C2651     1.0  0.29523  0.87421  0.55659  1.0000
  C   C2652     1.0  0.29994  0.86288  0.57409  1.0000
  P   P91       1.0  0.30659  0.86661  0.60415  1.0000
  C   C2653     1.0  0.30048  0.88303  0.61303  1.0000
  C   C2654     1.0  0.29785  0.84973  0.63379  1.0000
  C   C2655     1.0  0.28268  0.84126  0.63739  1.0000
  C   C2656     1.0  0.27555  0.82867  0.66099  1.0000
  C   C2657     1.0  0.28345  0.82442  0.68123  1.0000
  C   C2658     1.0  0.29858  0.83271  0.67772  1.0000
  C   C2659     1.0  0.30578  0.84526  0.65404  1.0000
  C   C2660     1.0  0.28607  0.88098  0.63164  1.0000
  C   C2661     1.0  0.28149  0.89373  0.63852  1.0000
  C   C2662     1.0  0.29125  0.90862  0.62700  1.0000
  C   C2663     1.0  0.30551  0.91082  0.60809  1.0000
  C   C2664     1.0  0.31007  0.89811  0.60093  1.0000
  C   C2665     1.0  0.32740  0.87096  0.59615  1.0000
  C   C2666     1.0  0.33606  0.86817  0.57198  1.0000
  C   C2667     1.0  0.35122  0.88221  0.60672  1.0000
  C   C2668     1.0  0.33513  0.87785  0.61365  1.0000
  H   H2115     1.0  0.29536  0.88536  0.56089  1.0000
  H   H2116     1.0  0.27615  0.84466  0.62246  1.0000
  H   H2117     1.0  0.26368  0.82257  0.66411  1.0000
  H   H2118     1.0  0.27771  0.81493  0.69990  1.0000
  H   H2119     1.0  0.30468  0.82974  0.69364  1.0000
  H   H2120     1.0  0.31742  0.85156  0.65205  1.0000
  H   H2121     1.0  0.27839  0.86957  0.64137  1.0000
  H   H2122     1.0  0.27054  0.89196  0.65356  1.0000
  H   H2123     1.0  0.28782  0.91842  0.63297  1.0000
  H   H2124     1.0  0.31307  0.92238  0.59913  1.0000
  H   H2125     1.0  0.32111  0.90008  0.58607  1.0000
  H   H2126     1.0  0.33055  0.86286  0.55805  1.0000
  H   H2127     1.0  0.35713  0.88760  0.62017  1.0000
  H   H2128     1.0  0.32870  0.87989  0.63266  1.0000
  H   H2129     1.0  0.33217  0.76806  0.49648  1.0000
  H   H2130     1.0  0.20656  0.60445  0.86669  1.0000
  C   C2669     1.0  0.18967  0.92993  0.60559  1.0000
  Fe  Fe168     1.0  0.19402  0.65423  0.93030  1.0000
  H   H2131     1.0  0.23071  0.52886  0.48015  1.0000
  C   C2670     1.0  0.36794  0.82690  0.88309  1.0000
  H   H2132     1.0  0.36040  0.80243  0.90439  1.0000
  H   H2133     1.0  0.30881  0.80855  0.52577  1.0000
  H   H2134     1.0  0.36539  0.70959  0.91091  1.0000
  H   H2135     1.0  0.33002  0.73534  0.91566  1.0000
  C   C2671     1.0  0.34197  0.97427  0.73631  1.0000
  C   C2672     1.0  0.36417  0.87728  0.83895  1.0000
  C   C2673     1.0  0.34907  0.75258  0.88549  1.0000
  H   H2136     1.0  0.21362  0.73873  0.88193  1.0000
  S   S348      1.0  0.18910  0.53234  0.95311  1.0000
  H   H2137     1.0  0.20161  0.57964  0.93458  1.0000
  H   H2138     1.0  0.23314  0.76253  0.49416  1.0000
  C   C2674     1.0  0.36820  0.67869  0.95929  1.0000
  C   C2675     1.0  0.18982  0.81927  0.55222  1.0000
  H   H2139     1.0  0.20147  0.70512  0.74441  1.0000
  H   H2140     1.0  0.23406  0.66014  0.91925  1.0000
  H   H2141     1.0  0.37220  0.88321  0.57691  1.0000
  H   H2142     1.0  0.19424  0.86620  0.62260  1.0000
  C   C2676     1.0  0.19411  0.68803  0.58672  1.0000
  H   H2143     1.0  0.20837  0.98860  0.96021  1.0000
  H   H2144     1.0  0.37078  0.83571  0.73939  1.0000
  H   H2145     1.0  0.36616  0.66619  0.96366  1.0000
  C   C2677     1.0  0.18583  0.90335  0.73835  1.0000
  H   H2146     1.0  0.29314  0.78428  0.48827  1.0000
  C   C2678     1.0  0.24499  0.49681  0.72542  1.0000
  S   S349      1.0  0.18867  0.53719  0.88633  1.0000
  Fe  Fe169     1.0  0.37217  0.83451  0.49495  1.0000
  C   C2679     1.0  0.32156  0.72146  0.51951  1.0000
  C   C2680     1.0  0.19452  0.51146  0.53340  1.0000
  C   C2681     1.0  0.32241  0.95402  0.95347  1.0000
  H   H2147     1.0  0.34798  0.58787  0.83072  1.0000
  H   H2148     1.0  0.37276  0.50242  0.53837  1.0000
  H   H2149     1.0  0.37124  0.94029  0.76606  1.0000
  H   H2150     1.0  0.37184  0.87220  0.77229  1.0000
  H   H2151     1.0  0.25481  0.50451  0.70907  1.0000
  C   C2682     1.0  0.36770  0.73975  0.91697  1.0000
  H   H2152     1.0  0.37691  0.62215  0.79222  1.0000
  C   C2683     1.0  0.37841  0.58734  0.95985  1.0000
  H   H2153     1.0  0.37478  0.89768  0.84996  1.0000
  C   C2684     1.0  0.27525  0.82087  0.49350  1.0000
  H   H2154     1.0  0.25887  0.83434  0.48706  1.0000
  C   C2685     1.0  0.35764  0.58813  0.81381  1.0000
  C   C2686     1.0  0.18552  0.89321  0.68922  1.0000
  H   H2155     1.0  0.37014  0.59838  0.74200  1.0000
  C   C2687     1.0  0.29412  0.72564  0.96460  1.0000
  H   H2156     1.0  0.35637  0.96184  0.66824  1.0000
  C   C2688     1.0  0.19231  0.88617  0.70952  1.0000
  H   H2157     1.0  0.38089  0.53502  0.89965  1.0000
  H   H2158     1.0  0.30248  0.50099  0.74759  1.0000
  C   C2689     1.0  0.32705  0.73321  0.49401  1.0000
  H   H2159     1.0  0.37246  0.54804  0.81085  1.0000
  H   H2160     1.0  0.37003  0.52747  0.78602  1.0000
  H   H2161     1.0  0.28391  0.71017  0.51901  1.0000
  H   H2162     1.0  0.36920  0.57750  0.84242  1.0000
  C   C2690     1.0  0.36502  0.75871  0.87727  1.0000
  C   C2691     1.0  0.19194  0.79417  0.54581  1.0000
  C   C2692     1.0  0.19470  0.69265  0.55797  1.0000
  C   C2693     1.0  0.29591  0.71663  0.51222  1.0000
  H   H2163     1.0  0.37015  0.76864  0.85914  1.0000
  P   P92       1.0  0.18597  0.88719  0.65695  1.0000
  H   H2164     1.0  0.37980  0.84681  0.58810  1.0000
  H   H2165     1.0  0.19427  0.94195  0.60487  1.0000
  C   C2694     1.0  0.20165  0.49927  0.53512  1.0000
  S   S350      1.0  0.18525  0.78819  0.61643  1.0000
  C   C2695     1.0  0.37597  0.98646  0.77315  1.0000
  C   C2696     1.0  0.26284  0.82693  0.50242  1.0000
  C   C2697     1.0  0.35509  0.71594  0.48615  1.0000
  C   C2698     1.0  0.21757  0.48899  0.74788  1.0000
  C   C2699     1.0  0.37473  0.68646  0.97689  1.0000
  H   H2166     1.0  0.20941  0.73690  0.97770  1.0000
  S   S351      1.0  0.42304  0.18767  0.23594  1.0000
  S   S352      1.0  0.41247  0.20779  0.35577  1.0000
  S   S353      1.0  0.41522  0.21853  0.27428  1.0000
  Fe  Fe170     1.0  0.50960  0.05746  0.26026  1.0000
  S   S354      1.0  0.51457  0.07252  0.21601  1.0000
  S   S355      1.0  0.50051  0.03073  0.27098  1.0000
  Fe  Fe171     1.0  0.52442  0.08585  0.28175  1.0000
  S   S356      1.0  0.53032  0.10212  0.23831  1.0000
  S   S357      1.0  0.52695  0.09486  0.32101  1.0000
  Fe  Fe172     1.0  0.50675  0.09035  0.23615  1.0000
  S   S358      1.0  0.49220  0.10638  0.22229  1.0000
  Fe  Fe173     1.0  0.53758  0.08276  0.22248  1.0000
  S   S359      1.0  0.55806  0.08543  0.18638  1.0000
  S   S360      1.0  0.50019  0.07482  0.28042  1.0000
  S   S361      1.0  0.53332  0.06698  0.26585  1.0000
  Fe  Fe174     1.0  0.47935  0.25332  0.45363  1.0000
  S   S362      1.0  0.56840  0.43265  0.37314  1.0000
  C   C2700     1.0  0.40037  0.16162  0.24175  1.0000
  S   S363      1.0  0.55805  0.14824  0.43107  1.0000
  H   H2167     1.0  0.51134  0.16955  0.42497  1.0000
  C   C2701     1.0  0.47638  0.46881  0.14460  1.0000
  C   C2702     1.0  0.56672  0.47620  0.33776  1.0000
  Fe  Fe175     1.0  0.56320  0.17382  0.42873  1.0000
  S   S364      1.0  0.54095  0.18139  0.44077  1.0000
  Fe  Fe176     1.0  0.50964  0.25708  0.41109  1.0000
  S   S365      1.0  0.50598  0.27732  0.38083  1.0000
  S   S366      1.0  0.53162  0.24922  0.39923  1.0000
  S   S367      1.0  0.38880  0.24634  0.24712  1.0000
  S   S368      1.0  0.47349  0.27325  0.42670  1.0000
  Fe  Fe177     1.0  0.48140  0.26311  0.39063  1.0000
  S   S369      1.0  0.47003  0.26149  0.35412  1.0000
  Fe  Fe178     1.0  0.49857  0.28593  0.41919  1.0000
  S   S370      1.0  0.50450  0.31175  0.41909  1.0000
  S   S371      1.0  0.48579  0.24250  0.41801  1.0000
  H   H2168     1.0  0.48374  0.46943  0.21059  1.0000
  Fe  Fe179     1.0  0.51738  0.42702  0.26776  1.0000
  S   S372      1.0  0.53063  0.43073  0.22287  1.0000
  S   S373      1.0  0.52083  0.41038  0.30505  1.0000
  Fe  Fe180     1.0  0.49586  0.44645  0.25055  1.0000
  S   S374      1.0  0.50739  0.45181  0.20432  1.0000
  C   C2703     1.0  0.46866  0.46831  0.25046  1.0000
  Fe  Fe181     1.0  0.50765  0.42676  0.21283  1.0000
  S   S375      1.0  0.50448  0.41351  0.17994  1.0000
  Fe  Fe182     1.0  0.52952  0.45548  0.21773  1.0000
  S   S376      1.0  0.54835  0.47595  0.18881  1.0000
  S   S377      1.0  0.49435  0.42093  0.25822  1.0000
  S   S378      1.0  0.51796  0.45214  0.26358  1.0000
  H   H2169     1.0  0.41172  0.29659  0.17927  1.0000
  Fe  Fe183     1.0  0.40840  0.12035  0.16790  1.0000
  S   S379      1.0  0.40637  0.09584  0.16519  1.0000
  C   C2704     1.0  0.54703  0.34403  0.43209  1.0000
  Fe  Fe184     1.0  0.42511  0.13397  0.10554  1.0000
  S   S380      1.0  0.42412  0.11057  0.09720  1.0000
  S   S381      1.0  0.43506  0.15758  0.07432  1.0000
  Fe  Fe185     1.0  0.39974  0.10337  0.12465  1.0000
  Fe  Fe186     1.0  0.43082  0.10490  0.13845  1.0000
  S   S382      1.0  0.44905  0.09170  0.14204  1.0000
  S   S383      1.0  0.40022  0.12736  0.12929  1.0000
  S   S384      1.0  0.43341  0.12883  0.14475  1.0000
  Fe  Fe187     1.0  0.43689  0.32098  0.15072  1.0000
  S   S385      1.0  0.42001  0.32845  0.18089  1.0000
  S   S386      1.0  0.44412  0.29876  0.16146  1.0000
  Fe  Fe188     1.0  0.44351  0.35024  0.10473  1.0000
  S   S387      1.0  0.42733  0.36041  0.13065  1.0000
  S   S388      1.0  0.45664  0.36352  0.06036  1.0000
  Fe  Fe189     1.0  0.43736  0.35154  0.16617  1.0000
  S   S389      1.0  0.44107  0.36443  0.19918  1.0000
  Fe  Fe190     1.0  0.41128  0.33666  0.14310  1.0000
  H   H2170     1.0  0.48234  0.13721  0.22425  1.0000
  S   S390      1.0  0.45503  0.34342  0.13910  1.0000
  S   S391      1.0  0.42665  0.32717  0.11403  1.0000
  H   H2171     1.0  0.39169  0.29048  0.25842  1.0000
  C   C2705     1.0  0.52783  0.23189  0.98406  1.0000
  C   C2706     1.0  0.50493  0.39899  0.02030  1.0000
  C   C2707     1.0  0.46780  0.35294  0.04349  1.0000
  C   C2708     1.0  0.47602  0.35919  0.01514  1.0000
  C   C2709     1.0  0.48512  0.35098  0.00137  1.0000
  C   C2710     1.0  0.48635  0.33664  0.01608  1.0000
  C   C2711     1.0  0.47806  0.33034  0.04449  1.0000
  C   C2712     1.0  0.46870  0.33842  0.05814  1.0000
  H   H2172     1.0  0.47547  0.37046  0.00388  1.0000
  H   H2173     1.0  0.42587  0.18757  0.43400  1.0000
  H   H2174     1.0  0.47891  0.31922  0.05598  1.0000
  H   H2175     1.0  0.46238  0.33351  0.08007  1.0000
  H   H2176     1.0  0.39168  0.31320  0.11602  1.0000
  C   C2713     1.0  0.45135  0.15902  0.04719  1.0000
  C   C2714     1.0  0.45878  0.14702  0.04794  1.0000
  C   C2715     1.0  0.47185  0.14848  0.02622  1.0000
  C   C2716     1.0  0.47749  0.16187  0.00355  1.0000
  C   C2717     1.0  0.47008  0.17389  0.00281  1.0000
  C   C2718     1.0  0.45712  0.17251  0.02471  1.0000
  H   H2177     1.0  0.45450  0.13663  0.06528  1.0000
  H   H2178     1.0  0.47747  0.13912  0.02683  1.0000
  H   H2179     1.0  0.40444  0.20891  0.13030  1.0000
  H   H2180     1.0  0.45141  0.18181  0.02400  1.0000
  S   S392      1.0  0.47496  0.45368  0.27074  1.0000
  H   H2181     1.0  0.44048  0.40159  0.18708  1.0000
  C   C2719     1.0  0.42090  0.46643  0.21836  1.0000
  H   H2182     1.0  0.48040  0.41647  0.36510  1.0000
  H   H2183     1.0  0.49316  0.19539  0.01529  1.0000
  H   H2184     1.0  0.56478  0.41829  0.03470  1.0000
  H   H2185     1.0  0.56754  0.36904  0.36111  1.0000
  H   H2186     1.0  0.45445  0.20775  0.35386  1.0000
  C   C2720     1.0  0.38264  0.48056  0.16825  1.0000
  H   H2187     1.0  0.55097  0.26184  0.01549  1.0000
  C   C2721     1.0  0.48678  0.39993  0.18563  1.0000
  C   C2722     1.0  0.47482  0.39714  0.20991  1.0000
  C   C2723     1.0  0.46087  0.38617  0.21389  1.0000
  C   C2724     1.0  0.45876  0.37800  0.19360  1.0000
  C   C2725     1.0  0.47070  0.38080  0.16933  1.0000
  C   C2726     1.0  0.48467  0.39172  0.16540  1.0000
  H   H2188     1.0  0.47626  0.40347  0.22554  1.0000
  H   H2189     1.0  0.45166  0.38406  0.23270  1.0000
  H   H2190     1.0  0.46921  0.37450  0.15366  1.0000
  H   H2191     1.0  0.49382  0.39382  0.14657  1.0000
  C   C2727     1.0  0.56277  0.03296  0.18403  1.0000
  H   H2192     1.0  0.50168  0.14406  0.41618  1.0000
  H   H2193     1.0  0.53439  0.36137  0.42683  1.0000
  H   H2194     1.0  0.40633  0.31792  0.24893  1.0000
  H   H2195     1.0  0.42771  0.14914  0.26541  1.0000
  H   H2196     1.0  0.42458  0.19885  0.16155  1.0000
  C   C2728     1.0  0.53848  0.20021  0.42814  1.0000
  C   C2729     1.0  0.55083  0.21260  0.41159  1.0000
  C   C2730     1.0  0.54848  0.22748  0.40272  1.0000
  C   C2731     1.0  0.53377  0.23011  0.41006  1.0000
  C   C2732     1.0  0.52133  0.21761  0.42589  1.0000
  C   C2733     1.0  0.52372  0.20280  0.43523  1.0000
  H   H2197     1.0  0.56224  0.21079  0.40596  1.0000
  H   H2198     1.0  0.55816  0.23705  0.39034  1.0000
  H   H2199     1.0  0.50992  0.21944  0.43127  1.0000
  H   H2200     1.0  0.51408  0.19335  0.44809  1.0000
  C   C2734     1.0  0.55496  0.42641  0.35464  1.0000
  C   C2735     1.0  0.54413  0.41205  0.36540  1.0000
  C   C2736     1.0  0.53354  0.40740  0.35024  1.0000
  C   C2737     1.0  0.53383  0.41695  0.32406  1.0000
  C   C2738     1.0  0.54457  0.43136  0.31338  1.0000
  C   C2739     1.0  0.55503  0.43610  0.32873  1.0000
  H   H2201     1.0  0.54390  0.40452  0.38540  1.0000
  H   H2202     1.0  0.52514  0.39631  0.35882  1.0000
  H   H2203     1.0  0.54478  0.43889  0.29337  1.0000
  H   H2204     1.0  0.56326  0.44728  0.32031  1.0000
  C   C2740     1.0  0.54666  0.32842  0.43285  1.0000
  C   C2741     1.0  0.53374  0.31834  0.42930  1.0000
  C   C2742     1.0  0.52092  0.32371  0.42501  1.0000
  C   C2743     1.0  0.52122  0.33927  0.42462  1.0000
  C   C2744     1.0  0.53416  0.34936  0.42804  1.0000
  H   H2205     1.0  0.39275  0.05285  0.98878  1.0000
  H   H2206     1.0  0.53378  0.30646  0.42964  1.0000
  H   H2207     1.0  0.51147  0.34362  0.42117  1.0000
  S   S393      1.0  0.39624  0.12500  0.20802  1.0000
  H   H2208     1.0  0.48123  0.14067  0.39066  1.0000
  C   C2745     1.0  0.48741  0.01744  0.25946  1.0000
  C   C2746     1.0  0.47854  0.02234  0.24131  1.0000
  C   C2747     1.0  0.46809  0.01136  0.23351  1.0000
  C   C2748     1.0  0.57539  0.40207  0.11452  1.0000
  H   H2209     1.0  0.39030  0.27612  0.21375  1.0000
  C   C2749     1.0  0.48580  0.00136  0.26913  1.0000
  H   H2210     1.0  0.47954  0.03460  0.23360  1.0000
  H   H2211     1.0  0.46119  0.01539  0.21982  1.0000
  C   C2750     1.0  0.43082  0.45726  0.21114  1.0000
  H   H2212     1.0  0.49252  0.99734  0.28319  1.0000
  C   C2751     1.0  0.54070  0.10946  0.32845  1.0000
  C   C2752     1.0  0.53686  0.11363  0.35412  1.0000
  C   C2753     1.0  0.54745  0.12467  0.36149  1.0000
  C   C2754     1.0  0.56224  0.13154  0.34360  1.0000
  C   C2755     1.0  0.56596  0.12766  0.31765  1.0000
  C   C2756     1.0  0.55533  0.11674  0.31011  1.0000
  H   H2213     1.0  0.52558  0.10826  0.36845  1.0000
  H   H2214     1.0  0.54421  0.12779  0.38112  1.0000
  C   C2757     1.0  0.43808  0.19218  0.43129  1.0000
  H   H2215     1.0  0.55855  0.11376  0.29030  1.0000
  C   C2758     1.0  0.48015  0.10168  0.20042  1.0000
  C   C2759     1.0  0.48226  0.09099  0.18462  1.0000
  C   C2760     1.0  0.47270  0.08801  0.16666  1.0000
  C   C2761     1.0  0.46090  0.09557  0.16467  1.0000
  C   C2762     1.0  0.45878  0.10617  0.18060  1.0000
  C   C2763     1.0  0.46841  0.10925  0.19830  1.0000
  H   H2216     1.0  0.49129  0.08508  0.18609  1.0000
  H   H2217     1.0  0.47437  0.07975  0.15443  1.0000
  H   H2218     1.0  0.44971  0.11196  0.17928  1.0000
  H   H2219     1.0  0.46662  0.11736  0.21067  1.0000
  C   C2764     1.0  0.49391  0.21314  0.36212  1.0000
  H   H2220     1.0  0.50078  0.19156  0.40822  1.0000
  C   C2765     1.0  0.57917  0.98943  0.09757  1.0000
  H   H2221     1.0  0.38353  0.45331  0.09857  1.0000
  Fe  Fe191     1.0  0.57087  0.41553  0.41099  1.0000
  S   S394      1.0  0.56403  0.35641  0.43518  1.0000
  Fe  Fe192     1.0  0.40604  0.19611  0.26437  1.0000
  C   C2766     1.0  0.40175  0.27431  0.20919  1.0000
  C   C2767     1.0  0.42835  0.22296  0.35499  1.0000
  C   C2768     1.0  0.43657  0.23439  0.33009  1.0000
  C   C2769     1.0  0.44933  0.24594  0.33020  1.0000
  C   C2770     1.0  0.45409  0.24631  0.35511  1.0000
  C   C2771     1.0  0.44594  0.23483  0.37999  1.0000
  C   C2772     1.0  0.43311  0.22331  0.37990  1.0000
  H   H2222     1.0  0.43311  0.23435  0.31073  1.0000
  H   H2223     1.0  0.45551  0.25465  0.31079  1.0000
  H   H2224     1.0  0.44937  0.23493  0.39940  1.0000
  H   H2225     1.0  0.42674  0.21468  0.39934  1.0000
  C   C2773     1.0  0.41529  0.17056  0.22753  1.0000
  C   C2774     1.0  0.42436  0.16562  0.20682  1.0000
  C   C2775     1.0  0.41859  0.15168  0.20050  1.0000
  C   C2776     1.0  0.40374  0.14262  0.21501  1.0000
  H   H2226     1.0  0.43587  0.17257  0.19569  1.0000
  H   H2227     1.0  0.42565  0.14787  0.18464  1.0000
  C   C2777     1.0  0.41922  0.25818  0.21727  1.0000
  C   C2778     1.0  0.43143  0.26990  0.19798  1.0000
  C   C2779     1.0  0.42879  0.28389  0.18461  1.0000
  C   C2780     1.0  0.41390  0.28598  0.18994  1.0000
  H   H2228     1.0  0.42130  0.24747  0.22779  1.0000
  H   H2229     1.0  0.44292  0.26820  0.19362  1.0000
  H   H2230     1.0  0.55469  0.13392  0.16473  1.0000
  C   C2781     1.0  0.49364  0.10924  0.03323  1.0000
  C   C2782     1.0  0.47793  0.10227  0.04498  1.0000
  C   C2783     1.0  0.47012  0.10576  0.06889  1.0000
  C   C2784     1.0  0.47792  0.11635  0.08089  1.0000
  C   C2785     1.0  0.49362  0.12367  0.06887  1.0000
  C   C2786     1.0  0.50152  0.11977  0.04530  1.0000
  P   P93       1.0  0.50368  0.13727  0.08458  1.0000
  C   C2787     1.0  0.48980  0.14646  0.10075  1.0000
  C   C2788     1.0  0.51173  0.12711  0.11079  1.0000
  C   C2789     1.0  0.51556  0.13379  0.13210  1.0000
  C   C2790     1.0  0.52114  0.12567  0.15309  1.0000
  C   C2791     1.0  0.52321  0.11096  0.15271  1.0000
  C   C2792     1.0  0.51960  0.10430  0.13145  1.0000
  C   C2793     1.0  0.51384  0.11230  0.11060  1.0000
  C   C2794     1.0  0.48585  0.15878  0.08420  1.0000
  C   C2795     1.0  0.47441  0.16523  0.09632  1.0000
  C   C2796     1.0  0.46679  0.15944  0.12502  1.0000
  C   C2797     1.0  0.47055  0.14709  0.14157  1.0000
  C   C2798     1.0  0.48189  0.14053  0.12947  1.0000
  C   C2799     1.0  0.51858  0.15218  0.05736  1.0000
  C   C2800     1.0  0.51633  0.15733  0.03036  1.0000
  C   C2801     1.0  0.38534  0.05893  0.07722  1.0000
  H   H2231     1.0  0.38634  0.99720  0.12201  1.0000
  C   C2802     1.0  0.54348  0.17106  0.04224  1.0000
  C   C2803     1.0  0.53229  0.15914  0.06312  1.0000
  H   H2232     1.0  0.49969  0.10649  0.01473  1.0000
  H   H2233     1.0  0.47178  0.09411  0.03571  1.0000
  H   H2234     1.0  0.45797  0.10021  0.07836  1.0000
  H   H2235     1.0  0.47159  0.11874  0.09956  1.0000
  H   H2236     1.0  0.51371  0.12496  0.03609  1.0000
  H   H2237     1.0  0.51384  0.14509  0.13294  1.0000
  H   H2238     1.0  0.52340  0.13052  0.17026  1.0000
  H   H2239     1.0  0.52725  0.10456  0.16932  1.0000
  H   H2240     1.0  0.52082  0.09271  0.13169  1.0000
  H   H2241     1.0  0.51073  0.10670  0.09484  1.0000
  H   H2242     1.0  0.49112  0.16310  0.06172  1.0000
  H   H2243     1.0  0.47105  0.17431  0.08311  1.0000
  H   H2244     1.0  0.45760  0.16412  0.13420  1.0000
  H   H2245     1.0  0.46430  0.14222  0.16360  1.0000
  H   H2246     1.0  0.48407  0.13048  0.14237  1.0000
  H   H2247     1.0  0.50576  0.15237  0.02545  1.0000
  C   C2804     1.0  0.57064  0.44808  0.14312  1.0000
  H   H2248     1.0  0.54291  0.10434  0.41405  1.0000
  H   H2249     1.0  0.45224  0.46632  0.16031  1.0000
  H   H2250     1.0  0.53437  0.15548  0.08369  1.0000
  C   C2805     1.0  0.44635  0.31411  0.34985  1.0000
  C   C2806     1.0  0.44375  0.29960  0.36877  1.0000
  C   C2807     1.0  0.44369  0.28647  0.35862  1.0000
  C   C2808     1.0  0.44640  0.28784  0.32958  1.0000
  C   C2809     1.0  0.44965  0.30244  0.31033  1.0000
  C   C2810     1.0  0.44912  0.31551  0.32074  1.0000
  P   P94       1.0  0.45245  0.30401  0.27296  1.0000
  C   C2811     1.0  0.46249  0.29029  0.26221  1.0000
  C   C2812     1.0  0.43333  0.29995  0.26768  1.0000
  C   C2813     1.0  0.42482  0.28449  0.27368  1.0000
  C   C2814     1.0  0.40981  0.28115  0.27061  1.0000
  C   C2815     1.0  0.50419  0.07640  0.39111  1.0000
  C   C2816     1.0  0.41147  0.30858  0.25596  1.0000
  C   C2817     1.0  0.42641  0.31198  0.25948  1.0000
  C   C2818     1.0  0.46042  0.28511  0.23844  1.0000
  C   C2819     1.0  0.46838  0.27468  0.22970  1.0000
  C   C2820     1.0  0.47854  0.26945  0.24449  1.0000
  C   C2821     1.0  0.48091  0.27483  0.26780  1.0000
  C   C2822     1.0  0.47304  0.28534  0.27647  1.0000
  C   C2823     1.0  0.46452  0.32265  0.25148  1.0000
  C   C2824     1.0  0.47663  0.33045  0.26057  1.0000
  C   C2825     1.0  0.48605  0.34486  0.24389  1.0000
  C   C2826     1.0  0.48354  0.35152  0.21793  1.0000
  C   C2827     1.0  0.47200  0.34347  0.20817  1.0000
  C   C2828     1.0  0.46265  0.32901  0.22466  1.0000
  H   H2251     1.0  0.44612  0.32424  0.35779  1.0000
  H   H2252     1.0  0.44171  0.29847  0.39131  1.0000
  H   H2253     1.0  0.44164  0.27517  0.37322  1.0000
  H   H2254     1.0  0.44602  0.27746  0.32226  1.0000
  H   H2255     1.0  0.45074  0.32675  0.30642  1.0000
  H   H2256     1.0  0.42973  0.27499  0.28084  1.0000
  H   H2257     1.0  0.56585  0.00602  0.10271  1.0000
  C   C2829     1.0  0.51575  0.44063  0.35343  1.0000
  H   H2258     1.0  0.40201  0.16503  0.16332  1.0000
  H   H2259     1.0  0.43248  0.32400  0.25573  1.0000
  H   H2260     1.0  0.45268  0.28916  0.22656  1.0000
  H   H2261     1.0  0.46666  0.27072  0.21140  1.0000
  H   H2262     1.0  0.48460  0.26126  0.23790  1.0000
  H   H2263     1.0  0.48866  0.27070  0.27950  1.0000
  H   H2264     1.0  0.47507  0.28939  0.29453  1.0000
  H   H2265     1.0  0.47885  0.32538  0.28046  1.0000
  H   H2266     1.0  0.49530  0.35087  0.25106  1.0000
  H   H2267     1.0  0.49056  0.36287  0.20529  1.0000
  H   H2268     1.0  0.47017  0.34850  0.18789  1.0000
  H   H2269     1.0  0.45394  0.32287  0.21642  1.0000
  H   H2270     1.0  0.54141  0.47082  0.12173  1.0000
  C   C2830     1.0  0.53439  0.45808  0.45901  1.0000
  C   C2831     1.0  0.51774  0.43716  0.38082  1.0000
  C   C2832     1.0  0.48324  0.43502  0.45170  1.0000
  H   H2271     1.0  0.50099  0.43559  0.32640  1.0000
  C   C2833     1.0  0.42324  0.34209  0.98977  1.0000
  C   C2834     1.0  0.48552  0.15184  0.39427  1.0000
  C   C2835     1.0  0.39446  0.38581  0.08357  1.0000
  C   C2836     1.0  0.39585  0.37049  0.08789  1.0000
  C   C2837     1.0  0.40958  0.36732  0.07557  1.0000
  C   C2838     1.0  0.42208  0.37943  0.05875  1.0000
  C   C2839     1.0  0.42090  0.39473  0.05445  1.0000
  C   C2840     1.0  0.40717  0.39794  0.06677  1.0000
  C   C2841     1.0  0.50616  0.42625  0.40297  1.0000
  H   H2272     1.0  0.51032  0.44767  0.46723  1.0000
  H   H2273     1.0  0.44545  0.13205  0.21438  1.0000
  H   H2274     1.0  0.49866  0.10825  0.30658  1.0000
  C   C2842     1.0  0.42391  0.15871  0.30100  1.0000
  C   C2843     1.0  0.39992  0.33856  0.03865  1.0000
  S   S395      1.0  0.50375  0.26658  0.44883  1.0000
  C   C2844     1.0  0.51579  0.39892  0.47492  1.0000
  H   H2275     1.0  0.40839  0.31971  0.05783  1.0000
  H   H2276     1.0  0.45218  0.46992  0.28650  1.0000
  C   C2845     1.0  0.58018  0.41181  0.19848  1.0000
  H   H2277     1.0  0.45463  0.38971  0.10940  1.0000
  H   H2278     1.0  0.41060  0.35547  0.07948  1.0000
  H   H2279     1.0  0.43271  0.37695  0.04925  1.0000
  H   H2280     1.0  0.43069  0.40410  0.04160  1.0000
  H   H2281     1.0  0.55767  0.42908  0.25322  1.0000
  C   C2846     1.0  0.42596  0.44485  0.19988  1.0000
  H   H2282     1.0  0.47436  0.18425  0.98540  1.0000
  C   C2847     1.0  0.47017  0.43691  0.16848  1.0000
  C   C2848     1.0  0.48520  0.44543  0.15405  1.0000
  H   H2283     1.0  0.40651  0.09275  0.24815  1.0000
  C   C2849     1.0  0.53913  0.43564  0.43022  1.0000
  C   C2850     1.0  0.52176  0.44722  0.45714  1.0000
  Fe  Fe193     1.0  0.40174  0.20614  0.31868  1.0000
  H   H2284     1.0  0.48268  0.14892  0.28168  1.0000
  H   H2285     1.0  0.46003  0.42166  0.27377  1.0000
  H   H2286     1.0  0.57719  0.14006  0.18421  1.0000
  C   C2851     1.0  0.57865  0.05549  0.12110  1.0000
  H   H2287     1.0  0.51125  0.05299  0.47140  1.0000
  C   C2852     1.0  0.56680  0.48153  0.19435  1.0000
  H   H2288     1.0  0.56270  0.46353  0.23261  1.0000
  C   C2853     1.0  0.41069  0.44116  0.19769  1.0000
  C   C2854     1.0  0.45877  0.20652  0.44603  1.0000
  H   H2289     1.0  0.38444  0.44547  0.05383  1.0000
  Fe  Fe194     1.0  0.56952  0.38176  0.43754  1.0000
  H   H2290     1.0  0.39914  0.26773  0.09468  1.0000
  H   H2291     1.0  0.45706  0.10419  0.27953  1.0000
  C   C2855     1.0  0.50096  0.21912  0.99010  1.0000
  C   C2856     1.0  0.42330  0.40313  0.13300  1.0000
  C   C2857     1.0  0.56759  0.10477  0.05744  1.0000
  C   C2858     1.0  0.56816  0.13236  0.12524  1.0000
  H   H2292     1.0  0.49362  0.33120  0.15229  1.0000
  H   H2293     1.0  0.50507  0.39490  0.41494  1.0000
  C   C2859     1.0  0.55171  0.44670  0.43166  1.0000
  H   H2294     1.0  0.50895  0.35388  0.16298  1.0000
  C   C2860     1.0  0.56628  0.09731  0.46958  1.0000
  C   C2861     1.0  0.43499  0.40636  0.17130  1.0000
  H   H2295     1.0  0.42484  0.47620  0.22647  1.0000
  H   H2296     1.0  0.41431  0.16282  0.29568  1.0000
  H   H2297     1.0  0.39888  0.07670  0.09114  1.0000
  C   C2862     1.0  0.38383  0.20847  0.16006  1.0000
  S   S396      1.0  0.38539  0.20280  0.25305  1.0000
  C   C2863     1.0  0.51780  0.07301  0.39572  1.0000
  C   C2864     1.0  0.52275  0.07583  0.41920  1.0000
  C   C2865     1.0  0.51427  0.08243  0.43794  1.0000
  C   C2866     1.0  0.50043  0.08551  0.43350  1.0000
  H   H2298     1.0  0.54982  0.18523  0.99923  1.0000
  C   C2867     1.0  0.43006  0.39724  0.15411  1.0000
  C   C2868     1.0  0.51319  0.10185  0.47800  1.0000
  C   C2869     1.0  0.51497  0.12937  0.47240  1.0000
  H   H2299     1.0  0.52836  0.44301  0.38434  1.0000
  H   H2300     1.0  0.52770  0.01576  0.17637  1.0000
  H   H2301     1.0  0.53310  0.22622  0.34128  1.0000
  C   C2870     1.0  0.55905  0.25511  0.01008  1.0000
  H   H2302     1.0  0.55654  0.32413  0.43589  1.0000
  H   H2303     1.0  0.39329  0.16541  0.25768  1.0000
  C   C2871     1.0  0.56523  0.10855  0.42194  1.0000
  H   H2304     1.0  0.42011  0.38761  0.27404  1.0000
  H   H2305     1.0  0.39417  0.35798  0.01435  1.0000
  H   H2306     1.0  0.42267  0.16732  0.33805  1.0000
  P   P95       1.0  0.50799  0.42210  0.43894  1.0000
  C   C2872     1.0  0.56615  0.13505  0.15205  1.0000
  H   H2307     1.0  0.55914  0.46627  0.44762  1.0000
  H   H2308     1.0  0.48169  0.20928  0.42130  1.0000
  H   H2309     1.0  0.48823  0.44316  0.43103  1.0000
  S   S397      1.0  0.55224  0.39593  0.44211  1.0000
  H   H2310     1.0  0.53332  0.07309  0.42243  1.0000
  H   H2311     1.0  0.54114  0.42697  0.41907  1.0000
  H   H2312     1.0  0.47836  0.22815  0.36395  1.0000
  C   C2873     1.0  0.39964  0.21369  0.14710  1.0000
  H   H2313     1.0  0.39831  0.47022  0.22064  1.0000
  C   C2874     1.0  0.46633  0.99526  0.24345  1.0000
  C   C2875     1.0  0.55845  0.24775  0.98824  1.0000
  C   C2876     1.0  0.40438  0.26044  0.22290  1.0000
  C   C2877     1.0  0.40320  0.29317  0.26139  1.0000
  H   H2314     1.0  0.38310  0.14067  0.24662  1.0000
  H   H2315     1.0  0.40661  0.40988  0.06311  1.0000
  C   C2878     1.0  0.39439  0.16186  0.15044  1.0000
  C   C2879     1.0  0.49261  0.41889  0.39716  1.0000
  H   H2316     1.0  0.48490  0.08512  0.40643  1.0000
  C   C2880     1.0  0.48684  0.37471  0.38160  1.0000
  C   C2881     1.0  0.48013  0.36269  0.40630  1.0000
  C   C2882     1.0  0.48263  0.34798  0.40742  1.0000
  C   C2883     1.0  0.49172  0.34527  0.38383  1.0000
  C   C2884     1.0  0.49814  0.35715  0.35870  1.0000
  C   C2885     1.0  0.49592  0.37199  0.35799  1.0000
  P   P96       1.0  0.51133  0.35413  0.32947  1.0000
  C   C2886     1.0  0.52981  0.35868  0.33726  1.0000
  C   C2887     1.0  0.50636  0.33454  0.32601  1.0000
  C   C2888     1.0  0.51786  0.32832  0.31297  1.0000
  C   C2889     1.0  0.51429  0.31295  0.31132  1.0000
  C   C2890     1.0  0.49920  0.30375  0.32231  1.0000
  C   C2891     1.0  0.48761  0.31000  0.33441  1.0000
  C   C2892     1.0  0.49109  0.32541  0.33590  1.0000
  C   C2893     1.0  0.53827  0.37419  0.33080  1.0000
  C   C2894     1.0  0.55191  0.37791  0.33909  1.0000
  C   C2895     1.0  0.55723  0.36617  0.35383  1.0000
  C   C2896     1.0  0.54893  0.35072  0.36018  1.0000
  C   C2897     1.0  0.53512  0.34698  0.35246  1.0000
  C   C2898     1.0  0.51117  0.36662  0.29639  1.0000
  C   C2899     1.0  0.49734  0.36981  0.29207  1.0000
  C   C2900     1.0  0.49724  0.37972  0.26665  1.0000
  C   C2901     1.0  0.51090  0.38635  0.24531  1.0000
  C   C2902     1.0  0.52464  0.38296  0.24917  1.0000
  C   C2903     1.0  0.52476  0.37299  0.27450  1.0000
  H   H2317     1.0  0.48526  0.38623  0.38074  1.0000
  H   H2318     1.0  0.47323  0.36481  0.42471  1.0000
  H   H2319     1.0  0.47785  0.33869  0.42674  1.0000
  H   H2320     1.0  0.49404  0.33399  0.38547  1.0000
  H   H2321     1.0  0.50141  0.38155  0.33938  1.0000
  H   H2322     1.0  0.52965  0.33524  0.30468  1.0000
  H   H2323     1.0  0.49649  0.29168  0.32192  1.0000
  H   H2324     1.0  0.47600  0.30271  0.34328  1.0000
  H   H2325     1.0  0.48193  0.33002  0.34536  1.0000
  H   H2326     1.0  0.53408  0.38345  0.32007  1.0000
  H   H2327     1.0  0.51266  0.20196  0.35524  1.0000
  C   C2904     1.0  0.46953  0.20455  0.42374  1.0000
  H   H2328     1.0  0.55286  0.34166  0.37226  1.0000
  H   H2329     1.0  0.52839  0.33502  0.35929  1.0000
  H   H2330     1.0  0.48667  0.36480  0.30845  1.0000
  H   H2331     1.0  0.48663  0.38242  0.26352  1.0000
  H   H2332     1.0  0.51085  0.39420  0.22583  1.0000
  H   H2333     1.0  0.53522  0.38825  0.23265  1.0000
  H   H2334     1.0  0.53549  0.37045  0.27710  1.0000
  H   H2335     1.0  0.52329  0.30805  0.30213  1.0000
  S   S398      1.0  0.58170  0.18087  0.38741  1.0000
  H   H2336     1.0  0.48706  0.18237  0.32649  1.0000
  H   H2337     1.0  0.44468  0.15783  0.34997  1.0000
  C   C2905     1.0  0.51090  0.40298  0.45016  1.0000
  H   H2338     1.0  0.56150  0.13250  0.04477  1.0000
  C   C2906     1.0  0.39464  0.14762  0.23558  1.0000
  H   H2339     1.0  0.55043  0.42976  0.16752  1.0000
  C   C2907     1.0  0.48835  0.46140  0.14238  1.0000
  H   H2340     1.0  0.55815  0.12931  0.11727  1.0000
  C   C2908     1.0  0.49698  0.15371  0.40879  1.0000
  H   H2341     1.0  0.56550  0.04497  0.21657  1.0000
  H   H2342     1.0  0.43154  0.38558  0.15733  1.0000
  C   C2909     1.0  0.40594  0.46306  0.21508  1.0000
  C   C2910     1.0  0.52406  0.43595  0.44256  1.0000
  C   C2911     1.0  0.46460  0.19691  0.40438  1.0000
  C   C2912     1.0  0.47974  0.16442  0.38413  1.0000
  H   H2343     1.0  0.49907  0.25232  0.34781  1.0000
  H   H2344     1.0  0.51831  0.19475  0.02558  1.0000
  C   C2913     1.0  0.56392  0.42422  0.23793  1.0000
  C   C2914     1.0  0.54169  0.09347  0.45754  1.0000
  C   C2915     1.0  0.50274  0.20563  0.00696  1.0000
  H   H2345     1.0  0.45854  0.14438  0.31955  1.0000
  H   H2346     1.0  0.54349  0.42443  0.11504  1.0000
  H   H2347     1.0  0.45710  0.33235  0.99311  1.0000
  H   H2348     1.0  0.49131  0.35588  0.97950  1.0000
  P   P97       1.0  0.43889  0.43307  0.19069  1.0000
  C   C2916     1.0  0.51280  0.38655  0.98348  1.0000
  S   S399      1.0  0.38615  0.33591  0.14727  1.0000
  H   H2349     1.0  0.55403  0.17640  0.04682  1.0000
  H   H2350     1.0  0.42453  0.11283  0.20747  1.0000
  C   C2917     1.0  0.42134  0.33037  0.01442  1.0000
  C   C2918     1.0  0.51698  0.20524  0.01255  1.0000
  C   C2919     1.0  0.42167  0.41830  0.12882  1.0000
  C   C2920     1.0  0.42659  0.42746  0.14607  1.0000
  H   H2351     1.0  0.50802  0.36866  0.43222  1.0000
  C   C2921     1.0  0.47738  0.18720  0.32415  1.0000
  H   H2352     1.0  0.39445  0.16453  0.08165  1.0000
  H   H2353     1.0  0.43860  0.28913  0.10738  1.0000
  H   H2354     1.0  0.44694  0.16316  0.46563  1.0000
  C   C2922     1.0  0.38745  0.07107  0.09044  1.0000
  H   H2355     1.0  0.56329  0.44657  0.42151  1.0000
  C   C2923     1.0  0.54846  0.08185  0.08821  1.0000
  C   C2924     1.0  0.55218  0.08594  0.11180  1.0000
  H   H2356     1.0  0.45488  0.19267  0.27835  1.0000
  Fe  Fe195     1.0  0.57643  0.14779  0.45449  1.0000
  C   C2925     1.0  0.57885  0.13860  0.16300  1.0000
  C   C2926     1.0  0.57075  0.15526  0.01669  1.0000
  C   C2927     1.0  0.45324  0.20068  0.31608  1.0000
  C   C2928     1.0  0.57075  0.10941  0.08110  1.0000
  C   C2929     1.0  0.40174  0.35026  0.01429  1.0000
  H   H2357     1.0  0.43473  0.20255  0.46632  1.0000
  C   C2930     1.0  0.55756  0.03868  0.20722  1.0000
  C   C2931     1.0  0.47483  0.47392  0.22120  1.0000
  H   H2358     1.0  0.42873  0.32254  0.01513  1.0000
  H   H2359     1.0  0.55369  0.08779  0.04269  1.0000
  H   H2360     1.0  0.53970  0.07132  0.09104  1.0000
  H   H2361     1.0  0.54648  0.07856  0.13298  1.0000
  H   H2362     1.0  0.52559  0.17309  0.98881  1.0000
  H   H2363     1.0  0.39522  0.05527  0.06769  1.0000
  C   C2932     1.0  0.52079  0.11745  0.46437  1.0000
  H   H2364     1.0  0.41182  0.17197  0.11091  1.0000
  C   C2933     1.0  0.39006  0.16164  0.10444  1.0000
  H   H2365     1.0  0.57555  0.07090  0.08486  1.0000
  H   H2366     1.0  0.50058  0.07445  0.37255  1.0000
  H   H2367     1.0  0.43575  0.26452  0.14175  1.0000
  H   H2368     1.0  0.40264  0.26345  0.14338  1.0000
  H   H2369     1.0  0.44472  0.18383  0.39488  1.0000
  C   C2934     1.0  0.44304  0.20059  0.44949  1.0000
  H   H2370     1.0  0.46432  0.44537  0.46121  1.0000
  C   C2935     1.0  0.57616  0.09568  0.18779  1.0000
  H   H2371     1.0  0.53260  0.46661  0.47061  1.0000
  C   C2936     1.0  0.44882  0.19023  0.40892  1.0000
  C   C2937     1.0  0.45171  0.48582  0.24823  1.0000
  H   H2372     1.0  0.41657  0.42295  0.11228  1.0000
  C   C2938     1.0  0.50944  0.21278  0.35432  1.0000
  H   H2373     1.0  0.40937  0.09168  0.29676  1.0000
  C   C2939     1.0  0.51738  0.24079  0.34360  1.0000
  C   C2940     1.0  0.49077  0.42225  0.36965  1.0000
  H   H2374     1.0  0.40333  0.26919  0.27515  1.0000
  C   C2941     1.0  0.54423  0.44943  0.14543  1.0000
  Fe  Fe196     1.0  0.57703  0.15505  0.39111  1.0000
  C   C2942     1.0  0.39988  0.16589  0.12099  1.0000
  C   C2943     1.0  0.56574  0.99385  0.10728  1.0000
  H   H2375     1.0  0.52475  0.44896  0.33634  1.0000
  H   H2376     1.0  0.56754  0.10373  0.22387  1.0000
  C   C2944     1.0  0.45906  0.20140  0.33962  1.0000
  H   H2377     1.0  0.43029  0.11082  0.30440  1.0000
  C   C2945     1.0  0.50196  0.24127  0.34962  1.0000
  H   H2378     1.0  0.44391  0.20598  0.31299  1.0000
  H   H2379     1.0  0.56140  0.15436  0.00645  1.0000
  C   C2946     1.0  0.56271  0.48452  0.31473  1.0000
  C   C2947     1.0  0.42863  0.16121  0.32483  1.0000
  C   C2948     1.0  0.50985  0.37702  0.44445  1.0000
  H   H2380     1.0  0.46630  0.18493  0.18879  1.0000
  C   C2949     1.0  0.48558  0.17901  0.38811  1.0000
  H   H2381     1.0  0.48349  0.41051  0.41392  1.0000
  H   H2382     1.0  0.44229  0.45991  0.21432  1.0000
  C   C2950     1.0  0.49545  0.08255  0.41009  1.0000
  H   H2383     1.0  0.47666  0.18116  0.28494  1.0000
  H   H2384     1.0  0.50189  0.13656  0.29897  1.0000
  C   C2951     1.0  0.38323  0.43687  0.07329  1.0000
  C   C2952     1.0  0.52531  0.26552  0.99420  1.0000
  C   C2953     1.0  0.57495  0.41072  0.13454  1.0000
  Fe  Fe197     1.0  0.39321  0.22388  0.26774  1.0000
  H   H2385     1.0  0.38910  0.44765  0.20277  1.0000
  H   H2386     1.0  0.48921  0.17938  0.16062  1.0000
  C   C2954     1.0  0.45098  0.42647  0.23738  1.0000
  C   C2955     1.0  0.43282  0.42136  0.16807  1.0000
  H   H2387     1.0  0.40629  0.43113  0.19070  1.0000
  C   C2956     1.0  0.50241  0.16805  0.41377  1.0000
  H   H2388     1.0  0.55813  0.38994  0.33480  1.0000
  S   S400      1.0  0.58015  0.17267  0.45572  1.0000
  H   H2389     1.0  0.41945  0.39595  0.11981  1.0000
  H   H2390     1.0  0.57378  0.11173  0.03625  1.0000
  H   H2391     1.0  0.46798  0.42456  0.17770  1.0000
  H   H2392     1.0  0.45140  0.16692  0.23431  1.0000
  H   H2393     1.0  0.49448  0.43967  0.15245  1.0000
  C   C2957     1.0  0.44029  0.40346  0.27661  1.0000
  H   H2394     1.0  0.52464  0.06847  0.38065  1.0000
  C   C2958     1.0  0.56642  0.40956  0.24665  1.0000
  H   H2395     1.0  0.56067  0.39182  0.99163  1.0000
  C   C2959     1.0  0.45130  0.41753  0.26353  1.0000
  H   H2396     1.0  0.42544  0.43926  0.14236  1.0000
  C   C2960     1.0  0.46129  0.46031  0.15888  1.0000
  C   C2961     1.0  0.43970  0.42127  0.22392  1.0000
  C   C2962     1.0  0.54116  0.17602  0.01540  1.0000
  H   H2397     1.0  0.39075  0.47376  0.16353  1.0000
  C   C2963     1.0  0.54176  0.03623  0.21891  1.0000
  C   C2964     1.0  0.53104  0.02800  0.20777  1.0000
  C   C2965     1.0  0.53608  0.02215  0.18490  1.0000
  C   C2966     1.0  0.55187  0.02459  0.17309  1.0000
  H   H2398     1.0  0.56205  0.40307  0.26871  1.0000
  H   H2399     1.0  0.53129  0.12049  0.44770  1.0000
  C   C2967     1.0  0.45814  0.44433  0.17144  1.0000
  C   C2968     1.0  0.42830  0.40743  0.23774  1.0000
  C   C2969     1.0  0.51996  0.27869  0.99588  1.0000
  C   C2970     1.0  0.49654  0.18057  0.40393  1.0000
  C   C2971     1.0  0.47082  0.19419  0.34440  1.0000
  C   C2972     1.0  0.40079  0.45036  0.20494  1.0000
  H   H2400     1.0  0.53774  0.04070  0.23672  1.0000
  H   H2401     1.0  0.51881  0.02617  0.21700  1.0000
  H   H2402     1.0  0.48539  0.33454  0.10768  1.0000
  C   C2973     1.0  0.40974  0.32867  0.03876  1.0000
  H   H2403     1.0  0.49709  0.15545  0.17875  1.0000
  H   H2404     1.0  0.41911  0.40352  0.22833  1.0000
  H   H2405     1.0  0.54050  0.21758  0.00523  1.0000
  C   C2974     1.0  0.58138  0.47348  0.33435  1.0000
  H   H2406     1.0  0.47079  0.16273  0.37315  1.0000
  C   C2975     1.0  0.49033  0.42335  0.46126  1.0000
  C   C2976     1.0  0.54932  0.10217  0.42968  1.0000
  H   H2407     1.0  0.39434  0.02813  0.01770  1.0000
  C   C2977     1.0  0.40906  0.22487  0.15593  1.0000
  C   C2978     1.0  0.40228  0.23133  0.17679  1.0000
  P   P98       1.0  0.42935  0.23213  0.13855  1.0000
  C   C2979     1.0  0.43602  0.21754  0.12359  1.0000
  C   C2980     1.0  0.43122  0.25022  0.11327  1.0000
  C   C2981     1.0  0.42854  0.25036  0.08661  1.0000
  C   C2982     1.0  0.43011  0.26445  0.06712  1.0000
  C   C2983     1.0  0.43392  0.27843  0.07443  1.0000
  C   C2984     1.0  0.43588  0.27833  0.10141  1.0000
  C   C2985     1.0  0.43442  0.26429  0.12082  1.0000
  C   C2986     1.0  0.44585  0.22140  0.09625  1.0000
  C   C2987     1.0  0.45031  0.20977  0.08475  1.0000
  C   C2988     1.0  0.44531  0.19430  0.10070  1.0000
  C   C2989     1.0  0.43621  0.19047  0.12845  1.0000
  C   C2990     1.0  0.43165  0.20204  0.13995  1.0000
  C   C2991     1.0  0.44082  0.23513  0.16314  1.0000
  C   C2992     1.0  0.45539  0.24572  0.15366  1.0000
  C   C2993     1.0  0.46467  0.24754  0.17229  1.0000
  C   C2994     1.0  0.45968  0.23844  0.20025  1.0000
  C   C2995     1.0  0.44541  0.22757  0.20955  1.0000
  C   C2996     1.0  0.43593  0.22598  0.19118  1.0000
  H   H2408     1.0  0.44063  0.39657  0.29683  1.0000
  P   P99       1.0  0.47860  0.19551  0.37447  1.0000
  S   S401      1.0  0.58036  0.42449  0.44430  1.0000
  H   H2409     1.0  0.49351  0.09029  0.44790  1.0000
  H   H2410     1.0  0.40922  0.24027  0.18333  1.0000
  H   H2411     1.0  0.42530  0.23962  0.08082  1.0000
  H   H2412     1.0  0.42841  0.26453  0.04631  1.0000
  H   H2413     1.0  0.43528  0.28937  0.05931  1.0000
  C   C2997     1.0  0.57094  0.47350  0.21749  1.0000
  H   H2414     1.0  0.52027  0.25498  0.01111  1.0000
  H   H2415     1.0  0.45011  0.23333  0.08375  1.0000
  H   H2416     1.0  0.45759  0.21270  0.06339  1.0000
  H   H2417     1.0  0.44846  0.18525  0.09154  1.0000
  S   S402      1.0  0.49810  0.32634  0.99958  1.0000
  C   C2998     1.0  0.38416  0.01435  0.99299  1.0000
  H   H2418     1.0  0.45964  0.25255  0.13185  1.0000
  H   H2419     1.0  0.47580  0.25588  0.16492  1.0000
  H   H2420     1.0  0.46692  0.23964  0.21465  1.0000
  H   H2421     1.0  0.44177  0.22015  0.23093  1.0000
  H   H2422     1.0  0.42496  0.21739  0.19878  1.0000
  C   C2999     1.0  0.52112  0.22656  0.34574  1.0000
  H   H2423     1.0  0.40781  0.98913  0.19062  1.0000
  C   C3000     1.0  0.52953  0.21826  0.00100  1.0000
  C   C3001     1.0  0.51710  0.37787  0.02970  1.0000
  C   C3002     1.0  0.51025  0.38895  0.03916  1.0000
  S   S403      1.0  0.57661  0.14464  0.35283  1.0000
  P   P100      1.0  0.50942  0.39102  0.07454  1.0000
  C   C3003     1.0  0.50483  0.37199  0.09895  1.0000
  C   C3004     1.0  0.52771  0.40289  0.07514  1.0000
  C   C3005     1.0  0.54084  0.40606  0.05250  1.0000
  C   C3006     1.0  0.55473  0.41583  0.05238  1.0000
  C   C3007     1.0  0.55565  0.42255  0.07479  1.0000
  C   C3008     1.0  0.54277  0.41926  0.09763  1.0000
  C   C3009     1.0  0.52888  0.40946  0.09788  1.0000
  C   C3010     1.0  0.49598  0.35908  0.09332  1.0000
  C   C3011     1.0  0.49221  0.34441  0.11227  1.0000
  C   C3012     1.0  0.49684  0.34254  0.13739  1.0000
  C   C3013     1.0  0.50544  0.35532  0.14341  1.0000
  C   C3014     1.0  0.50946  0.36999  0.12428  1.0000
  C   C3015     1.0  0.49377  0.39962  0.08522  1.0000
  C   C3016     1.0  0.47850  0.39056  0.09345  1.0000
  C   C3017     1.0  0.46633  0.39689  0.10278  1.0000
  C   C3018     1.0  0.46930  0.41232  0.10401  1.0000
  C   C3019     1.0  0.48441  0.42157  0.09508  1.0000
  C   C3020     1.0  0.49659  0.41534  0.08530  1.0000
  C   C3021     1.0  0.50234  0.43311  0.34780  1.0000
  S   S404      1.0  0.39346  0.18314  0.30931  1.0000
  H   H2424     1.0  0.49984  0.40778  0.02692  1.0000
  H   H2425     1.0  0.52160  0.37020  0.04363  1.0000
  H   H2426     1.0  0.54048  0.40118  0.03467  1.0000
  H   H2427     1.0  0.38635  0.36094  0.10109  1.0000
  C   C3022     1.0  0.45948  0.19325  0.29653  1.0000
  H   H2428     1.0  0.47615  0.09228  0.29683  1.0000
  H   H2429     1.0  0.51899  0.40730  0.11561  1.0000
  H   H2430     1.0  0.49180  0.36031  0.07445  1.0000
  C   C3023     1.0  0.55474  0.44130  0.15334  1.0000
  C   C3024     1.0  0.54954  0.46432  0.12705  1.0000
  C   C3025     1.0  0.47166  0.18666  0.30040  1.0000
  H   H2431     1.0  0.51601  0.37968  0.12955  1.0000
  H   H2432     1.0  0.47592  0.37854  0.09291  1.0000
  H   H2433     1.0  0.45948  0.43749  0.22794  1.0000
  H   H2434     1.0  0.53196  0.44431  0.15405  1.0000
  H   H2435     1.0  0.48670  0.43356  0.09591  1.0000
  H   H2436     1.0  0.50815  0.42282  0.07801  1.0000
  C   C3026     1.0  0.44107  0.15591  0.33143  1.0000
  C   C3027     1.0  0.44902  0.14841  0.31389  1.0000
  C   C3028     1.0  0.44450  0.14611  0.28960  1.0000
  C   C3029     1.0  0.43167  0.15106  0.28368  1.0000
  P   P101      1.0  0.45459  0.13677  0.26598  1.0000
  C   C3030     1.0  0.43964  0.12267  0.25994  1.0000
  C   C3031     1.0  0.46574  0.15066  0.23304  1.0000
  C   C3032     1.0  0.47875  0.14766  0.21698  1.0000
  C   C3033     1.0  0.48721  0.15802  0.19107  1.0000
  C   C3034     1.0  0.48275  0.17146  0.18089  1.0000
  C   C3035     1.0  0.46985  0.17456  0.19670  1.0000
  C   C3036     1.0  0.46138  0.16424  0.22269  1.0000
  C   C3037     1.0  0.42919  0.11133  0.28311  1.0000
  C   C3038     1.0  0.41733  0.10050  0.27890  1.0000
  C   C3039     1.0  0.41574  0.10104  0.25158  1.0000
  C   C3040     1.0  0.42597  0.11239  0.22853  1.0000
  C   C3041     1.0  0.43782  0.12327  0.23261  1.0000
  C   C3042     1.0  0.46784  0.12742  0.28095  1.0000
  C   C3043     1.0  0.46628  0.11141  0.28494  1.0000
  C   C3044     1.0  0.47722  0.10455  0.29461  1.0000
  C   C3045     1.0  0.48996  0.11358  0.29991  1.0000
  C   C3046     1.0  0.49176  0.12955  0.29557  1.0000
  C   C3047     1.0  0.48083  0.13647  0.28593  1.0000
  H   H2437     1.0  0.56628  0.10222  0.12689  1.0000
  C   C3048     1.0  0.55631  0.09116  0.06101  1.0000
  C   C3049     1.0  0.42874  0.39845  0.26379  1.0000
  H   H2438     1.0  0.43253  0.17849  0.14092  1.0000
  H   H2439     1.0  0.46260  0.21290  0.46039  1.0000
  C   C3050     1.0  0.56537  0.47095  0.11610  1.0000
  H   H2440     1.0  0.55559  0.01999  0.15535  1.0000
  C   C3051     1.0  0.51817  0.37656  0.00209  1.0000
  H   H2441     1.0  0.45989  0.41711  0.11183  1.0000
  H   H2442     1.0  0.56636  0.43031  0.07445  1.0000
  C   C3052     1.0  0.49025  0.22752  0.35887  1.0000
  H   H2443     1.0  0.50008  0.46805  0.13189  1.0000
  C   C3053     1.0  0.56932  0.43259  0.20947  1.0000
  C   C3054     1.0  0.57590  0.46281  0.12383  1.0000
  H   H2444     1.0  0.57724  0.13299  0.30336  1.0000
  H   H2445     1.0  0.52644  0.25142  0.33777  1.0000
  C   C3055     1.0  0.50820  0.39198  0.43471  1.0000
  H   H2446     1.0  0.52112  0.14138  0.46212  1.0000
  H   H2447     1.0  0.51080  0.27829  0.01376  1.0000
  C   C3056     1.0  0.54936  0.45788  0.44612  1.0000
  H   H2448     1.0  0.55832  0.47139  0.35807  1.0000
  C   C3057     1.0  0.45703  0.47424  0.26389  1.0000
  H   H2449     1.0  0.56640  0.05111  0.13052  1.0000
  C   C3058     1.0  0.56338  0.09956  0.10826  1.0000
  C   C3059     1.0  0.46972  0.43636  0.46881  1.0000
  C   C3060     1.0  0.58027  0.23786  0.99691  1.0000
  C   C3061     1.0  0.52759  0.16913  0.00947  1.0000
  C   C3062     1.0  0.51426  0.37294  0.46957  1.0000
  H   H2450     1.0  0.47883  0.48121  0.13571  1.0000
  C   C3063     1.0  0.38944  0.26612  0.11243  1.0000
  H   H2451     1.0  0.46956  0.31076  0.99378  1.0000
  C   C3064     1.0  0.57030  0.25396  0.02501  1.0000
  H   H2452     1.0  0.56948  0.48252  0.10196  1.0000
  C   C3065     1.0  0.38854  0.04224  0.98321  1.0000
  H   H2453     1.0  0.38932  0.37285  0.14243  1.0000
  C   C3066     1.0  0.57950  0.98909  0.18161  1.0000
  C   C3067     1.0  0.41334  0.35204  0.98998  1.0000
  C   C3068     1.0  0.57097  0.14276  0.03821  1.0000
  H   H2454     1.0  0.51587  0.36144  0.47673  1.0000
  H   H2455     1.0  0.56727  0.44396  0.20308  1.0000
  H   H2456     1.0  0.57084  0.25980  0.04163  1.0000
  C   C3069     1.0  0.50619  0.39776  0.99256  1.0000
  S   S405      1.0  0.57964  0.38816  0.47231  1.0000
  H   H2457     1.0  0.52308  0.36771  0.99515  1.0000
  P   P102      1.0  0.52092  0.08647  0.46785  1.0000
  C   C3070     1.0  0.57767  0.10374  0.20833  1.0000
  H   H2458     1.0  0.49004  0.21934  0.98507  1.0000
  H   H2459     1.0  0.57092  0.11562  0.40057  1.0000
  C   C3071     1.0  0.57371  0.10616  0.44193  1.0000
  C   C3072     1.0  0.57713  0.42627  0.18942  1.0000
  H   H2460     1.0  0.56841  0.00383  0.20213  1.0000
  H   H2461     1.0  0.38465  0.00347  0.00609  1.0000
  C   C3073     1.0  0.39143  0.26370  0.13981  1.0000
  C   C3074     1.0  0.55032  0.09110  0.47748  1.0000
  C   C3075     1.0  0.38964  0.02823  0.99949  1.0000
  C   C3076     1.0  0.38644  0.22625  0.18940  1.0000
  H   H2462     1.0  0.44065  0.37171  0.98288  1.0000
  H   H2463     1.0  0.39093  0.33722  0.05749  1.0000
  H   H2464     1.0  0.56629  0.40618  0.15454  1.0000
  H   H2465     1.0  0.56732  0.39085  0.11929  1.0000
  C   C3077     1.0  0.47542  0.99037  0.26117  1.0000
  C   C3078     1.0  0.56904  0.23898  0.98202  1.0000
  H   H2466     1.0  0.57875  0.08916  0.32716  1.0000
  C   C3079     1.0  0.57469  0.40342  0.22698  1.0000
  H   H2467     1.0  0.52448  0.24146  0.47152  1.0000
  H   H2468     1.0  0.47262  0.15765  0.45685  1.0000
  H   H2469     1.0  0.57691  0.39218  0.23385  1.0000
  C   C3080     1.0  0.57716  0.00346  0.18426  1.0000
  C   C3081     1.0  0.46942  0.48539  0.20554  1.0000
  Fe  Fe198     1.0  0.56325  0.40348  0.47498  1.0000
  H   H2470     1.0  0.49660  0.23401  0.47432  1.0000
  H   H2471     1.0  0.55125  0.48636  0.31719  1.0000
  C   C3082     1.0  0.46921  0.16322  0.47332  1.0000
  C   C3083     1.0  0.58092  0.24537  0.01838  1.0000
  C   C3084     1.0  0.45472  0.16629  0.47829  1.0000
  C   C3085     1.0  0.38276  0.44131  0.09844  1.0000
  H   H2472     1.0  0.45709  0.19545  0.84696  1.0000
  S   S406      1.0  0.39888  0.24068  0.55639  1.0000
  C   C3086     1.0  0.47979  0.37712  0.92988  1.0000
  S   S407      1.0  0.39785  0.21959  0.63428  1.0000
  Fe  Fe199     1.0  0.50513  0.03375  0.63643  1.0000
  S   S408      1.0  0.49069  0.05093  0.63314  1.0000
  S   S409      1.0  0.50140  0.01093  0.62291  1.0000
  Fe  Fe200     1.0  0.52763  0.05410  0.66135  1.0000
  S   S410      1.0  0.51450  0.07241  0.66023  1.0000
  S   S411      1.0  0.54937  0.05469  0.67733  1.0000
  Fe  Fe201     1.0  0.49335  0.05252  0.67607  1.0000
  S   S412      1.0  0.47297  0.05112  0.71145  1.0000
  Fe  Fe202     1.0  0.51311  0.06947  0.61727  1.0000
  S   S413      1.0  0.51461  0.09039  0.58200  1.0000
  S   S414      1.0  0.50644  0.03416  0.68074  1.0000
  S   S415      1.0  0.52761  0.05233  0.61701  1.0000
  Fe  Fe203     1.0  0.54269  0.46123  0.66211  1.0000
  Fe  Fe204     1.0  0.51229  0.43665  0.67474  1.0000
  S   S416      1.0  0.50378  0.45064  0.64144  1.0000
  S   S417      1.0  0.49935  0.41451  0.70834  1.0000
  Fe  Fe205     1.0  0.52818  0.45562  0.61459  1.0000
  S   S418      1.0  0.53436  0.45711  0.56761  1.0000
  C   C3087     1.0  0.43765  0.48454  0.64264  1.0000
  S   S419      1.0  0.53593  0.44001  0.64683  1.0000
  S   S420      1.0  0.51982  0.45650  0.69273  1.0000
  C   C3088     1.0  0.51723  0.38390  0.48478  1.0000
  C   C3089     1.0  0.52191  0.15765  0.51643  1.0000
  S   S421      1.0  0.54937  0.40129  0.51951  1.0000
  H   H2473     1.0  0.50290  0.03210  0.56026  1.0000
  P   P103      1.0  0.48808  0.18050  0.53148  1.0000
  H   H2474     1.0  0.41041  0.13859  0.72086  1.0000
  H   H2475     1.0  0.42998  0.42841  0.69079  1.0000
  H   H2476     1.0  0.41125  0.15126  0.67119  1.0000
  S   S422      1.0  0.46506  0.23606  0.49498  1.0000
  Fe  Fe206     1.0  0.41126  0.12711  0.77941  1.0000
  S   S423      1.0  0.40810  0.11247  0.82332  1.0000
  S   S424      1.0  0.39836  0.14560  0.77348  1.0000
  Fe  Fe207     1.0  0.43454  0.11160  0.75327  1.0000
  S   S425      1.0  0.43342  0.09591  0.79515  1.0000
  S   S426      1.0  0.44973  0.11206  0.71124  1.0000
  Fe  Fe208     1.0  0.40773  0.09267  0.80299  1.0000
  Fe  Fe209     1.0  0.43395  0.11722  0.81140  1.0000
  S   S427      1.0  0.44836  0.12185  0.84227  1.0000
  S   S428      1.0  0.40891  0.10702  0.75998  1.0000
  S   S429      1.0  0.43707  0.13316  0.76873  1.0000
  Fe  Fe210     1.0  0.40527  0.32501  0.77443  1.0000
  S   S430      1.0  0.41322  0.30320  0.78548  1.0000
  C   C3090     1.0  0.47502  0.17475  0.51074  1.0000
  Fe  Fe211     1.0  0.43481  0.34181  0.72865  1.0000
  S   S431      1.0  0.44505  0.32145  0.73638  1.0000
  S   S432      1.0  0.44626  0.36338  0.69267  1.0000
  Fe  Fe212     1.0  0.42162  0.30692  0.73822  1.0000
  S   S433      1.0  0.42233  0.29043  0.70940  1.0000
  Fe  Fe213     1.0  0.43584  0.31961  0.78258  1.0000
  S   S434      1.0  0.44860  0.31354  0.81631  1.0000
  S   S435      1.0  0.41198  0.32763  0.72758  1.0000
  S   S436      1.0  0.42733  0.34106  0.77460  1.0000
  Fe  Fe214     1.0  0.49769  0.19318  0.87698  1.0000
  S   S437      1.0  0.51260  0.17972  0.89648  1.0000
  S   S438      1.0  0.48682  0.18842  0.84153  1.0000
  Fe  Fe215     1.0  0.50236  0.21717  0.91132  1.0000
  S   S439      1.0  0.51738  0.20529  0.93395  1.0000
  S   S440      1.0  0.49419  0.23762  0.92255  1.0000
  Fe  Fe216     1.0  0.52857  0.20284  0.89147  1.0000
  S   S441      1.0  0.55433  0.20710  0.87345  1.0000
  Fe  Fe217     1.0  0.50028  0.18321  0.93751  1.0000
  S   S442      1.0  0.51473  0.21629  0.86833  1.0000
  S   S443      1.0  0.48416  0.19503  0.91848  1.0000
  Fe  Fe218     1.0  0.50551  0.34986  0.89486  1.0000
  S   S444      1.0  0.52995  0.35095  0.87392  1.0000
  S   S445      1.0  0.48965  0.35867  0.86923  1.0000
  Fe  Fe219     1.0  0.50943  0.33630  0.95290  1.0000
  S   S446      1.0  0.53398  0.33574  0.93621  1.0000
  Fe  Fe220     1.0  0.53674  0.35984  0.90971  1.0000
  S   S447      1.0  0.55809  0.38023  0.89994  1.0000
  Fe  Fe221     1.0  0.52518  0.32686  0.90225  1.0000
  S   S448      1.0  0.53295  0.30831  0.88305  1.0000
  S   S449      1.0  0.51259  0.36083  0.92820  1.0000
  S   S450      1.0  0.50040  0.32541  0.92125  1.0000
  C   C3091     1.0  0.56633  0.38993  0.92298  1.0000
  H   H2477     1.0  0.41107  0.48331  0.71449  1.0000
  H   H2478     1.0  0.45616  0.03631  0.67295  1.0000
  Fe  Fe222     1.0  0.51304  0.47093  0.65746  1.0000
  C   C3092     1.0  0.54568  0.12106  0.51361  1.0000
  H   H2479     1.0  0.40666  0.08442  0.94018  1.0000
  C   C3093     1.0  0.56707  0.20817  0.89562  1.0000
  C   C3094     1.0  0.56179  0.20716  0.92439  1.0000
  C   C3095     1.0  0.44118  0.48607  0.52171  1.0000
  H   H2480     1.0  0.54969  0.20569  0.93352  1.0000
  C   C3096     1.0  0.44719  0.45578  0.72352  1.0000
  C   C3097     1.0  0.50536  0.25713  0.91164  1.0000
  C   C3098     1.0  0.49987  0.26812  0.92395  1.0000
  C   C3099     1.0  0.50828  0.28377  0.91568  1.0000
  C   C3100     1.0  0.52229  0.28860  0.89493  1.0000
  C   C3101     1.0  0.52783  0.27759  0.88274  1.0000
  C   C3102     1.0  0.51938  0.26194  0.89095  1.0000
  H   H2481     1.0  0.39997  0.99551  0.75153  1.0000
  H   H2482     1.0  0.50391  0.29209  0.92531  1.0000
  H   H2483     1.0  0.53866  0.28121  0.86669  1.0000
  H   H2484     1.0  0.52360  0.25365  0.88101  1.0000
  C   C3103     1.0  0.45896  0.32642  0.83199  1.0000
  C   C3104     1.0  0.46125  0.34251  0.82320  1.0000
  C   C3105     1.0  0.47060  0.35228  0.83488  1.0000
  C   C3106     1.0  0.47770  0.34606  0.85544  1.0000
  C   C3107     1.0  0.47496  0.32997  0.86485  1.0000
  C   C3108     1.0  0.46551  0.32023  0.85341  1.0000
  H   H2485     1.0  0.45616  0.34746  0.80694  1.0000
  H   H2486     1.0  0.47255  0.36471  0.82760  1.0000
  H   H2487     1.0  0.48012  0.32500  0.88096  1.0000
  H   H2488     1.0  0.46341  0.30782  0.86110  1.0000
  H   H2489     1.0  0.48903  0.26451  0.93996  1.0000
  C   C3109     1.0  0.45801  0.14066  0.84277  1.0000
  C   C3110     1.0  0.45883  0.15392  0.82189  1.0000
  C   C3111     1.0  0.46741  0.16854  0.82215  1.0000
  C   C3112     1.0  0.47509  0.17006  0.84340  1.0000
  C   C3113     1.0  0.47393  0.15687  0.86467  1.0000
  C   C3114     1.0  0.46545  0.14226  0.86429  1.0000
  H   H2490     1.0  0.45309  0.15287  0.80531  1.0000
  H   H2491     1.0  0.46823  0.17869  0.80562  1.0000
  H   H2492     1.0  0.47974  0.15789  0.88120  1.0000
  H   H2493     1.0  0.46462  0.13217  0.88089  1.0000
  H   H2494     1.0  0.38424  0.46599  0.70192  1.0000
  H   H2495     1.0  0.46279  0.47321  0.75326  1.0000
  C   C3115     1.0  0.44398  0.03046  0.67942  1.0000
  C   C3116     1.0  0.41835  0.46595  0.78120  1.0000
  H   H2496     1.0  0.57159  0.03610  0.66331  1.0000
  C   C3117     1.0  0.54008  0.44196  0.55474  1.0000
  C   C3118     1.0  0.53898  0.42764  0.57299  1.0000
  C   C3119     1.0  0.54201  0.41531  0.56189  1.0000
  C   C3120     1.0  0.54662  0.41733  0.53251  1.0000
  C   C3121     1.0  0.54837  0.43182  0.51429  1.0000
  C   C3122     1.0  0.54499  0.44405  0.52539  1.0000
  H   H2497     1.0  0.53520  0.42589  0.59561  1.0000
  H   H2498     1.0  0.54061  0.40411  0.57611  1.0000
  H   H2499     1.0  0.55197  0.43346  0.49168  1.0000
  H   H2500     1.0  0.54601  0.45514  0.51120  1.0000
  C   C3123     1.0  0.48460  0.40050  0.70352  1.0000
  C   C3124     1.0  0.47771  0.38680  0.72520  1.0000
  C   C3125     1.0  0.46592  0.37532  0.72213  1.0000
  C   C3126     1.0  0.46092  0.37755  0.69735  1.0000
  C   C3127     1.0  0.46779  0.39128  0.67569  1.0000
  C   C3128     1.0  0.47956  0.40278  0.67882  1.0000
  H   H2501     1.0  0.48144  0.38512  0.74452  1.0000
  H   H2502     1.0  0.46067  0.36478  0.73893  1.0000
  H   H2503     1.0  0.46395  0.39304  0.65648  1.0000
  H   H2504     1.0  0.48464  0.41343  0.66230  1.0000
  H   H2505     1.0  0.47393  0.99772  0.69421  1.0000
  H   H2506     1.0  0.38466  0.18106  0.70074  1.0000
  C   C3129     1.0  0.55668  0.36500  0.80418  1.0000
  H   H2507     1.0  0.39205  0.08480  0.68859  1.0000
  C   C3130     1.0  0.47936  0.16745  0.48941  1.0000
  C   C3131     1.0  0.56275  0.12014  0.82361  1.0000
  H   H2508     1.0  0.46833  0.00969  0.63287  1.0000
  C   C3132     1.0  0.53484  0.99804  0.64215  1.0000
  S   S451      1.0  0.39075  0.06912  0.82446  1.0000
  C   C3133     1.0  0.53218  0.10079  0.55707  1.0000
  C   C3134     1.0  0.53194  0.11218  0.53357  1.0000
  C   C3135     1.0  0.41624  0.07118  0.87138  1.0000
  C   C3136     1.0  0.56005  0.10697  0.54030  1.0000
  C   C3137     1.0  0.54625  0.09804  0.56018  1.0000
  H   H2509     1.0  0.52104  0.11415  0.53083  1.0000
  H   H2510     1.0  0.57093  0.10489  0.54298  1.0000
  H   H2511     1.0  0.54649  0.08906  0.57791  1.0000
  C   C3138     1.0  0.46637  0.06803  0.71041  1.0000
  C   C3139     1.0  0.45436  0.06813  0.73271  1.0000
  C   C3140     1.0  0.44921  0.08157  0.73304  1.0000
  C   C3141     1.0  0.45590  0.09499  0.71086  1.0000
  C   C3142     1.0  0.46764  0.09481  0.68813  1.0000
  C   C3143     1.0  0.47295  0.08137  0.68798  1.0000
  H   H2512     1.0  0.44911  0.05782  0.74998  1.0000
  H   H2513     1.0  0.43992  0.08145  0.75031  1.0000
  H   H2514     1.0  0.47274  0.10510  0.67073  1.0000
  H   H2515     1.0  0.48209  0.08131  0.67052  1.0000
  C   C3144     1.0  0.55906  0.06981  0.68977  1.0000
  C   C3145     1.0  0.55379  0.08308  0.69105  1.0000
  C   C3146     1.0  0.56195  0.09487  0.70061  1.0000
  C   C3147     1.0  0.49701  0.15554  0.56122  1.0000
  H   H2516     1.0  0.54345  0.08428  0.68457  1.0000
  H   H2517     1.0  0.55775  0.10506  0.70136  1.0000
  C   C3148     1.0  0.58099  0.00609  0.77735  1.0000
  C   C3149     1.0  0.41712  0.23912  0.53911  1.0000
  C   C3150     1.0  0.42589  0.25049  0.51437  1.0000
  C   C3151     1.0  0.44651  0.23734  0.51119  1.0000
  C   C3152     1.0  0.43763  0.22583  0.53568  1.0000
  C   C3153     1.0  0.42301  0.22674  0.54968  1.0000
  H   H2518     1.0  0.44212  0.21623  0.54399  1.0000
  H   H2519     1.0  0.41625  0.21785  0.56857  1.0000
  H   H2520     1.0  0.41509  0.30062  0.92599  1.0000
  H   H2521     1.0  0.54534  0.12984  0.49563  1.0000
  C   C3154     1.0  0.39742  0.15294  0.73867  1.0000
  C   C3155     1.0  0.40476  0.14780  0.71646  1.0000
  H   H2522     1.0  0.45428  0.28686  0.71320  1.0000
  H   H2523     1.0  0.40946  0.26765  0.90160  1.0000
  H   H2524     1.0  0.55610  0.35648  0.82338  1.0000
  C   C3156     1.0  0.40115  0.25576  0.67985  1.0000
  C   C3157     1.0  0.41173  0.26840  0.68310  1.0000
  C   C3158     1.0  0.40863  0.27417  0.70704  1.0000
  C   C3159     1.0  0.39488  0.26696  0.72802  1.0000
  H   H2525     1.0  0.47006  0.23926  0.86531  1.0000
  H   H2526     1.0  0.40366  0.25162  0.66113  1.0000
  H   H2527     1.0  0.42233  0.27385  0.66673  1.0000
  H   H2528     1.0  0.40672  0.33557  0.95146  1.0000
  H   H2529     1.0  0.46866  0.21134  0.87528  1.0000
  H   H2530     1.0  0.55816  0.00850  0.64152  1.0000
  H   H2531     1.0  0.57183  0.24848  0.85656  1.0000
  H   H2532     1.0  0.55076  0.18696  0.82228  1.0000
  C   C3160     1.0  0.46325  0.38638  0.96300  1.0000
  C   C3161     1.0  0.45783  0.20778  0.84213  1.0000
  H   H2533     1.0  0.43779  0.08841  0.86086  1.0000
  C   C3162     1.0  0.43171  0.47762  0.69403  1.0000
  C   C3163     1.0  0.50142  0.12580  0.49392  1.0000
  C   C3164     1.0  0.40920  0.30411  0.90999  1.0000
  H   H2534     1.0  0.42830  0.43621  0.74915  1.0000
  H   H2535     1.0  0.39609  0.33859  0.90994  1.0000
  C   C3165     1.0  0.52198  0.40416  0.75543  1.0000
  C   C3166     1.0  0.45138  0.37307  0.96773  1.0000
  C   C3167     1.0  0.56419  0.14120  0.84656  1.0000
  C   C3168     1.0  0.55244  0.24992  0.93241  1.0000
  C   C3169     1.0  0.44870  0.48662  0.73431  1.0000
  C   C3170     1.0  0.45338  0.23059  0.81361  1.0000
  H   H2536     1.0  0.39237  0.27116  0.74666  1.0000
  C   C3171     1.0  0.38580  0.30839  0.89728  1.0000
  H   H2537     1.0  0.46770  0.29530  0.95898  1.0000
  C   C3172     1.0  0.44015  0.44000  0.73682  1.0000
  H   H2538     1.0  0.51722  0.42626  0.75597  1.0000
  C   C3173     1.0  0.44468  0.26390  0.78048  1.0000
  H   H2539     1.0  0.56877  0.23316  0.96535  1.0000
  C   C3174     1.0  0.45469  0.16899  0.60624  1.0000
  C   C3175     1.0  0.45361  0.36171  0.95332  1.0000
  C   C3176     1.0  0.57740  0.17465  0.82203  1.0000
  C   C3177     1.0  0.53072  0.14898  0.84801  1.0000
  H   H2540     1.0  0.38535  0.07581  0.76806  1.0000
  S   S452      1.0  0.38379  0.32959  0.79918  1.0000
  C   C3178     1.0  0.38852  0.43348  0.69443  1.0000
  C   C3179     1.0  0.38734  0.12345  0.65159  1.0000
  H   H2541     1.0  0.46517  0.40657  0.52625  1.0000
  H   H2542     1.0  0.52589  0.18927  0.81295  1.0000
  C   C3180     1.0  0.55070  0.24241  0.88922  1.0000
  H   H2543     1.0  0.44469  0.15950  0.61772  1.0000
  H   H2544     1.0  0.50684  0.14042  0.84904  1.0000
  C   C3181     1.0  0.51258  0.16793  0.51331  1.0000
  C   C3182     1.0  0.46053  0.48450  0.74752  1.0000
  H   H2545     1.0  0.54482  0.08484  0.49930  1.0000
  C   C3183     1.0  0.50012  0.16710  0.53579  1.0000
  C   C3184     1.0  0.56640  0.24924  0.87741  1.0000
  H   H2546     1.0  0.40720  0.44992  0.73067  1.0000
  C   C3185     1.0  0.57251  0.06847  0.69848  1.0000
  C   C3186     1.0  0.54917  0.41737  0.82750  1.0000
  C   C3187     1.0  0.55433  0.40389  0.82903  1.0000
  C   C3188     1.0  0.56902  0.40392  0.83275  1.0000
  C   C3189     1.0  0.57860  0.41740  0.83479  1.0000
  C   C3190     1.0  0.57354  0.43101  0.83322  1.0000
  C   C3191     1.0  0.55864  0.43083  0.82997  1.0000
  S   S453      1.0  0.57727  0.12952  0.49233  1.0000
  C   C3192     1.0  0.38441  0.25416  0.72496  1.0000
  H   H2547     1.0  0.44584  0.98938  0.63208  1.0000
  C   C3193     1.0  0.54632  0.38009  0.69975  1.0000
  S   S454      1.0  0.56510  0.46602  0.67485  1.0000
  C   C3194     1.0  0.44056  0.24963  0.50046  1.0000
  H   H2548     1.0  0.45275  0.42717  0.50893  1.0000
  C   C3195     1.0  0.49299  0.21080  0.49950  1.0000
  C   C3196     1.0  0.38974  0.16458  0.73294  1.0000
  H   H2549     1.0  0.52129  0.38100  0.50358  1.0000
  C   C3197     1.0  0.50635  0.14521  0.56420  1.0000
  C   C3198     1.0  0.58065  0.08025  0.70816  1.0000
  H   H2550     1.0  0.53768  0.41725  0.82507  1.0000
  H   H2551     1.0  0.54683  0.39330  0.82811  1.0000
  H   H2552     1.0  0.57272  0.39327  0.83537  1.0000
  C   C3199     1.0  0.38899  0.01396  0.75714  1.0000
  C   C3200     1.0  0.39817  0.06927  0.91566  1.0000
  H   H2553     1.0  0.46843  0.47220  0.69797  1.0000
  H   H2554     1.0  0.52083  0.19634  0.52345  1.0000
  C   C3201     1.0  0.39223  0.44968  0.79875  1.0000
  H   H2555     1.0  0.53630  0.15877  0.89650  1.0000
  C   C3202     1.0  0.38375  0.11757  0.68111  1.0000
  H   H2556     1.0  0.48879  0.40396  0.49634  1.0000
  C   C3203     1.0  0.38901  0.04628  0.71237  1.0000
  C   C3204     1.0  0.57977  0.00949  0.80355  1.0000
  C   C3205     1.0  0.58031  0.40151  0.91170  1.0000
  H   H2557     1.0  0.53450  0.00692  0.62422  1.0000
  H   H2558     1.0  0.42575  0.44966  0.65570  1.0000
  H   H2559     1.0  0.54280  0.39625  0.63415  1.0000
  C   C3206     1.0  0.41728  0.30906  0.88150  1.0000
  H   H2560     1.0  0.49953  0.41665  0.80426  1.0000
  H   H2561     1.0  0.40521  0.13152  0.61257  1.0000
  H   H2562     1.0  0.50416  0.16604  0.82527  1.0000
  C   C3207     1.0  0.42687  0.08289  0.87635  1.0000
  H   H2563     1.0  0.41887  0.06768  0.85197  1.0000
  C   C3208     1.0  0.54151  0.17658  0.82741  1.0000
  C   C3209     1.0  0.40967  0.31339  0.86084  1.0000
  C   C3210     1.0  0.53268  0.38168  0.71629  1.0000
  C   C3211     1.0  0.51462  0.35638  0.76347  1.0000
  C   C3212     1.0  0.49897  0.35511  0.76473  1.0000
  C   C3213     1.0  0.48879  0.34056  0.77015  1.0000
  C   C3214     1.0  0.49405  0.32715  0.77494  1.0000
  C   C3215     1.0  0.50965  0.32831  0.77330  1.0000
  C   C3216     1.0  0.52240  0.38777  0.70281  1.0000
  C   C3217     1.0  0.52610  0.39313  0.67334  1.0000
  H   H2564     1.0  0.45272  0.30109  0.92382  1.0000
  H   H2565     1.0  0.41742  0.00552  0.66099  1.0000
  C   C3218     1.0  0.40251  0.12673  0.63526  1.0000
  H   H2566     1.0  0.49461  0.36536  0.76136  1.0000
  H   H2567     1.0  0.47673  0.33964  0.77094  1.0000
  H   H2568     1.0  0.48597  0.31590  0.77996  1.0000
  H   H2569     1.0  0.51153  0.38847  0.71514  1.0000
  H   H2570     1.0  0.51820  0.39820  0.66330  1.0000
  C   C3219     1.0  0.39323  0.44607  0.77278  1.0000
  C   C3220     1.0  0.54372  0.24282  0.91652  1.0000
  H   H2571     1.0  0.42794  0.47357  0.78497  1.0000
  C   C3221     1.0  0.50415  0.27483  0.83093  1.0000
  C   C3222     1.0  0.50417  0.28918  0.83660  1.0000
  C   C3223     1.0  0.49110  0.29487  0.83726  1.0000
  C   C3224     1.0  0.47786  0.28606  0.83294  1.0000
  C   C3225     1.0  0.47755  0.27138  0.82825  1.0000
  C   C3226     1.0  0.49099  0.26606  0.82629  1.0000
  P   P104      1.0  0.46025  0.26018  0.82290  1.0000
  C   C3227     1.0  0.54997  0.38535  0.67019  1.0000
  C   C3228     1.0  0.45882  0.26780  0.78734  1.0000
  C   C3229     1.0  0.57803  0.47854  0.77278  1.0000
  H   H2572     1.0  0.57608  0.47841  0.75219  1.0000
  C   C3230     1.0  0.46321  0.42611  0.49566  1.0000
  C   C3231     1.0  0.46985  0.28516  0.74011  1.0000
  C   C3232     1.0  0.47146  0.27838  0.76682  1.0000
  H   H2573     1.0  0.51525  0.17667  0.49339  1.0000
  H   H2574     1.0  0.53314  0.35592  0.80487  1.0000
  C   C3233     1.0  0.49972  0.19987  0.51304  1.0000
  H   H2575     1.0  0.57613  0.15458  0.51706  1.0000
  H   H2576     1.0  0.38769  0.30000  0.94016  1.0000
  C   C3234     1.0  0.45972  0.23972  0.82984  1.0000
  P   P105      1.0  0.43825  0.34474  0.95795  1.0000
  H   H2577     1.0  0.49057  0.16514  0.48485  1.0000
  H   H2578     1.0  0.44748  0.20769  0.80733  1.0000
  C   C3235     1.0  0.49361  0.11032  0.50723  1.0000
  C   C3236     1.0  0.48368  0.41308  0.48828  1.0000
  H   H2579     1.0  0.51429  0.27040  0.83059  1.0000
  H   H2580     1.0  0.51430  0.29587  0.84063  1.0000
  H   H2581     1.0  0.49122  0.30608  0.84141  1.0000
  H   H2582     1.0  0.46786  0.29067  0.83330  1.0000
  H   H2583     1.0  0.49134  0.25507  0.82159  1.0000
  H   H2584     1.0  0.39632  0.32499  0.67415  1.0000
  C   C3237     1.0  0.39356  0.30377  0.91789  1.0000
  C   C3238     1.0  0.45321  0.30763  0.93949  1.0000
  H   H2585     1.0  0.47951  0.29358  0.72455  1.0000
  H   H2586     1.0  0.48246  0.28167  0.77152  1.0000
  C   C3239     1.0  0.57546  0.09359  0.70916  1.0000
  C   C3240     1.0  0.46395  0.16847  0.58066  1.0000
  H   H2587     1.0  0.43922  0.17627  0.50286  1.0000
  H   H2588     1.0  0.40012  0.04547  0.78464  1.0000
  H   H2589     1.0  0.54038  0.15242  0.60752  1.0000
  C   C3241     1.0  0.41937  0.46251  0.75494  1.0000
  C   C3242     1.0  0.46167  0.30437  0.95923  1.0000
  S   S455      1.0  0.49406  0.16342  0.97695  1.0000
  C   C3243     1.0  0.45243  0.21470  0.81979  1.0000
  H   H2590     1.0  0.44906  0.23556  0.79626  1.0000
  C   C3244     1.0  0.54638  0.13741  0.74203  1.0000
  C   C3245     1.0  0.55505  0.12646  0.74364  1.0000
  C   C3246     1.0  0.54793  0.11098  0.75810  1.0000
  C   C3247     1.0  0.53212  0.10641  0.77097  1.0000
  C   C3248     1.0  0.52324  0.11730  0.76924  1.0000
  C   C3249     1.0  0.53055  0.13289  0.75485  1.0000
  P   P106      1.0  0.50289  0.11140  0.78692  1.0000
  C   C3250     1.0  0.49366  0.09315  0.78156  1.0000
  C   C3251     1.0  0.50024  0.10962  0.82442  1.0000
  C   C3252     1.0  0.48614  0.11035  0.84082  1.0000
  C   C3253     1.0  0.48383  0.10871  0.86987  1.0000
  C   C3254     1.0  0.49566  0.10661  0.88279  1.0000
  C   C3255     1.0  0.50980  0.10604  0.86663  1.0000
  C   C3256     1.0  0.51209  0.10750  0.83757  1.0000
  C   C3257     1.0  0.47916  0.08452  0.79926  1.0000
  C   C3258     1.0  0.47180  0.07059  0.79488  1.0000
  C   C3259     1.0  0.47880  0.06518  0.77277  1.0000
  C   C3260     1.0  0.49300  0.07386  0.75457  1.0000
  C   C3261     1.0  0.50039  0.08781  0.75883  1.0000
  C   C3262     1.0  0.49358  0.12591  0.77318  1.0000
  C   C3263     1.0  0.48498  0.12375  0.75348  1.0000
  C   C3264     1.0  0.47767  0.13501  0.74339  1.0000
  C   C3265     1.0  0.47896  0.14850  0.75269  1.0000
  C   C3266     1.0  0.48768  0.15081  0.77197  1.0000
  C   C3267     1.0  0.49487  0.13953  0.78235  1.0000
  H   H2591     1.0  0.55197  0.14942  0.73091  1.0000
  C   C3268     1.0  0.54711  0.16482  0.92801  1.0000
  C   C3269     1.0  0.52636  0.29244  0.97441  1.0000
  H   H2592     1.0  0.52684  0.09437  0.78232  1.0000
  H   H2593     1.0  0.52414  0.14163  0.75340  1.0000
  H   H2594     1.0  0.47685  0.11217  0.83122  1.0000
  H   H2595     1.0  0.47281  0.10908  0.88233  1.0000
  H   H2596     1.0  0.49384  0.10543  0.90531  1.0000
  H   H2597     1.0  0.51897  0.10440  0.87666  1.0000
  H   H2598     1.0  0.52312  0.10696  0.82565  1.0000
  H   H2599     1.0  0.47337  0.08857  0.81623  1.0000
  H   H2600     1.0  0.46055  0.06409  0.80840  1.0000
  H   H2601     1.0  0.47308  0.05442  0.76924  1.0000
  H   H2602     1.0  0.49814  0.06980  0.73692  1.0000
  H   H2603     1.0  0.51127  0.09435  0.74418  1.0000
  H   H2604     1.0  0.48362  0.11333  0.74615  1.0000
  H   H2605     1.0  0.47074  0.13310  0.72879  1.0000
  H   H2606     1.0  0.47296  0.15702  0.74538  1.0000
  H   H2607     1.0  0.48857  0.16119  0.77942  1.0000
  H   H2608     1.0  0.50133  0.14139  0.79768  1.0000
  C   C3270     1.0  0.44315  0.27064  0.75375  1.0000
  C   C3271     1.0  0.46517  0.23262  0.85225  1.0000
  C   C3272     1.0  0.50188  0.22576  0.48497  1.0000
  S   S456      1.0  0.39912  0.17602  0.64738  1.0000
  C   C3273     1.0  0.39812  0.16708  0.68265  1.0000
  C   C3274     1.0  0.39114  0.42206  0.71525  1.0000
  C   C3275     1.0  0.50624  0.04240  0.54260  1.0000
  H   H2609     1.0  0.41466  0.36125  0.97131  1.0000
  C   C3276     1.0  0.52430  0.21927  0.49755  1.0000
  H   H2610     1.0  0.43157  0.09684  0.90474  1.0000
  C   C3277     1.0  0.49939  0.09838  0.49919  1.0000
  H   H2611     1.0  0.49315  0.08646  0.50976  1.0000
  C   C3278     1.0  0.43789  0.02038  0.66469  1.0000
  C   C3279     1.0  0.56621  0.39461  0.96928  1.0000
  H   H2612     1.0  0.44535  0.01840  0.64673  1.0000
  H   H2613     1.0  0.39322  0.11052  0.71647  1.0000
  H   H2614     1.0  0.50995  0.05817  0.56848  1.0000
  C   C3280     1.0  0.39401  0.31294  0.86863  1.0000
  C   C3281     1.0  0.38505  0.31686  0.68198  1.0000
  C   C3282     1.0  0.53816  0.29302  0.95127  1.0000
  H   H2615     1.0  0.55361  0.13972  0.81194  1.0000
  C   C3283     1.0  0.57505  0.16754  0.88981  1.0000
  H   H2616     1.0  0.57372  0.44337  0.95672  1.0000
  C   C3284     1.0  0.46807  0.36369  0.93496  1.0000
  C   C3285     1.0  0.43625  0.27364  0.83969  1.0000
  C   C3286     1.0  0.56496  0.00700  0.72288  1.0000
  H   H2617     1.0  0.56734  0.12996  0.73376  1.0000
  C   C3287     1.0  0.43026  0.34731  0.92751  1.0000
  C   C3288     1.0  0.41441  0.34148  0.93079  1.0000
  C   C3289     1.0  0.40832  0.34297  0.90722  1.0000
  C   C3290     1.0  0.41803  0.34978  0.88008  1.0000
  C   C3291     1.0  0.43383  0.35528  0.87652  1.0000
  C   C3292     1.0  0.43994  0.35410  0.90007  1.0000
  C   C3293     1.0  0.53993  0.39202  0.65701  1.0000
  C   C3294     1.0  0.51501  0.06914  0.49700  1.0000
  H   H2618     1.0  0.52625  0.13859  0.54450  1.0000
  C   C3295     1.0  0.45567  0.28137  0.73365  1.0000
  C   C3296     1.0  0.44688  0.32852  0.95899  1.0000
  C   C3297     1.0  0.46429  0.21674  0.85820  1.0000
  H   H2619     1.0  0.47029  0.35489  0.92430  1.0000
  H   H2620     1.0  0.49468  0.48859  0.61774  1.0000
  H   H2621     1.0  0.44445  0.02351  0.79627  1.0000
  H   H2622     1.0  0.38838  0.31617  0.85214  1.0000
  H   H2623     1.0  0.55235  0.28052  0.93088  1.0000
  C   C3298     1.0  0.50662  0.04105  0.51517  1.0000
  H   H2624     1.0  0.41337  0.35059  0.86175  1.0000
  H   H2625     1.0  0.44142  0.36031  0.85543  1.0000
  H   H2626     1.0  0.45227  0.35817  0.89654  1.0000
  C   C3299     1.0  0.55980  0.11853  0.51698  1.0000
  C   C3300     1.0  0.51883  0.14634  0.54189  1.0000
  C   C3301     1.0  0.51023  0.05706  0.54727  1.0000
  C   C3302     1.0  0.46051  0.17805  0.51519  1.0000
  H   H2627     1.0  0.43957  0.32205  0.92350  1.0000
  C   C3303     1.0  0.40910  0.08073  0.92094  1.0000
  C   C3304     1.0  0.47676  0.18088  0.56547  1.0000
  C   C3305     1.0  0.50887  0.38313  0.79735  1.0000
  H   H2628     1.0  0.39388  0.05527  0.88673  1.0000
  C   C3306     1.0  0.45810  0.18189  0.61682  1.0000
  C   C3307     1.0  0.47084  0.19425  0.60195  1.0000
  C   C3308     1.0  0.48017  0.19377  0.57639  1.0000
  H   H2629     1.0  0.57720  0.13973  0.87821  1.0000
  C   C3309     1.0  0.54337  0.16202  0.83998  1.0000
  H   H2630     1.0  0.48751  0.15446  0.57891  1.0000
  C   C3310     1.0  0.53704  0.26596  0.97081  1.0000
  C   C3311     1.0  0.58075  0.18995  0.82431  1.0000
  H   H2631     1.0  0.45200  0.47496  0.66630  1.0000
  C   C3312     1.0  0.54811  0.99891  0.65193  1.0000
  H   H2632     1.0  0.55230  0.02343  0.70894  1.0000
  H   H2633     1.0  0.41985  0.11627  0.68765  1.0000
  H   H2634     1.0  0.45074  0.18236  0.63640  1.0000
  H   H2635     1.0  0.47332  0.20434  0.61000  1.0000
  H   H2636     1.0  0.48983  0.20360  0.56505  1.0000
  C   C3313     1.0  0.52741  0.17797  0.82206  1.0000
  C   C3314     1.0  0.55805  0.38734  0.75534  1.0000
  H   H2637     1.0  0.41244  0.04948  0.82260  1.0000
  H   H2638     1.0  0.38275  0.33753  0.86110  1.0000
  C   C3315     1.0  0.50347  0.40883  0.55406  1.0000
  C   C3316     1.0  0.50329  0.41832  0.57257  1.0000
  C   C3317     1.0  0.50099  0.41187  0.60148  1.0000
  C   C3318     1.0  0.49885  0.39590  0.61198  1.0000
  C   C3319     1.0  0.49913  0.38627  0.59350  1.0000
  C   C3320     1.0  0.50124  0.39284  0.56447  1.0000
  P   P107      1.0  0.49584  0.36553  0.60693  1.0000
  C   C3321     1.0  0.50243  0.36130  0.63873  1.0000
  C   C3322     1.0  0.47546  0.35619  0.61734  1.0000
  C   C3323     1.0  0.47019  0.34072  0.63382  1.0000
  C   C3324     1.0  0.45440  0.33374  0.64430  1.0000
  C   C3325     1.0  0.44376  0.34215  0.63845  1.0000
  C   C3326     1.0  0.44889  0.35750  0.62193  1.0000
  C   C3327     1.0  0.46468  0.36454  0.61140  1.0000
  C   C3328     1.0  0.51664  0.35765  0.63819  1.0000
  C   C3329     1.0  0.52103  0.35350  0.66335  1.0000
  C   C3330     1.0  0.51130  0.35299  0.68916  1.0000
  C   C3331     1.0  0.49726  0.35681  0.68985  1.0000
  C   C3332     1.0  0.49283  0.36094  0.66479  1.0000
  C   C3333     1.0  0.50621  0.35827  0.57986  1.0000
  C   C3334     1.0  0.52156  0.36606  0.56540  1.0000
  C   C3335     1.0  0.52969  0.36066  0.54433  1.0000
  C   C3336     1.0  0.52250  0.34761  0.53711  1.0000
  C   C3337     1.0  0.50718  0.33988  0.55111  1.0000
  C   C3338     1.0  0.49904  0.34516  0.57242  1.0000
  H   H2639     1.0  0.50573  0.41396  0.53158  1.0000
  H   H2640     1.0  0.50546  0.43078  0.56445  1.0000
  H   H2641     1.0  0.50126  0.41936  0.61560  1.0000
  H   H2642     1.0  0.49708  0.39119  0.63444  1.0000
  H   H2643     1.0  0.50141  0.38568  0.54977  1.0000
  H   H2644     1.0  0.47830  0.33418  0.63921  1.0000
  H   H2645     1.0  0.45037  0.32192  0.65762  1.0000
  H   H2646     1.0  0.43155  0.33686  0.64737  1.0000
  H   H2647     1.0  0.44061  0.36412  0.61816  1.0000
  H   H2648     1.0  0.46838  0.37657  0.59943  1.0000
  H   H2649     1.0  0.52432  0.35780  0.61859  1.0000
  H   H2650     1.0  0.53198  0.35067  0.66283  1.0000
  H   H2651     1.0  0.51470  0.34974  0.70859  1.0000
  H   H2652     1.0  0.48972  0.35657  0.70976  1.0000
  H   H2653     1.0  0.48179  0.36368  0.66586  1.0000
  H   H2654     1.0  0.52728  0.37640  0.57026  1.0000
  H   H2655     1.0  0.54153  0.36679  0.53322  1.0000
  H   H2656     1.0  0.52881  0.34356  0.52052  1.0000
  H   H2657     1.0  0.50161  0.32980  0.54536  1.0000
  H   H2658     1.0  0.48718  0.33902  0.58275  1.0000
  C   C3339     1.0  0.55944  0.13415  0.82629  1.0000
  C   C3340     1.0  0.42688  0.25507  0.89529  1.0000
  H   H2659     1.0  0.49072  0.37870  0.91494  1.0000
  H   H2660     1.0  0.58019  0.45759  0.62333  1.0000
  H   H2661     1.0  0.50205  0.40550  0.97812  1.0000
  S   S457      1.0  0.53667  0.47723  0.62790  1.0000
  C   C3341     1.0  0.40522  0.15496  0.68844  1.0000
  H   H2662     1.0  0.52974  0.40867  0.73445  1.0000
  C   C3342     1.0  0.51665  0.15041  0.84252  1.0000
  C   C3343     1.0  0.42934  0.03686  0.81179  1.0000
  H   H2663     1.0  0.44311  0.41670  0.74490  1.0000
  H   H2664     1.0  0.43471  0.25594  0.79605  1.0000
  H   H2665     1.0  0.55858  0.39642  0.73701  1.0000
  H   H2666     1.0  0.51373  0.38552  0.96206  1.0000
  H   H2667     1.0  0.38363  0.16822  0.75017  1.0000
  C   C3344     1.0  0.56621  0.08866  0.61642  1.0000
  C   C3345     1.0  0.55929  0.10061  0.62051  1.0000
  C   C3346     1.0  0.56834  0.11582  0.61488  1.0000
  H   H2668     1.0  0.46151  0.39498  0.97444  1.0000
  P   P108      1.0  0.55969  0.13140  0.62075  1.0000
  C   C3347     1.0  0.55869  0.14338  0.58775  1.0000
  C   C3348     1.0  0.54031  0.12369  0.64328  1.0000
  C   C3349     1.0  0.53691  0.12427  0.67166  1.0000
  C   C3350     1.0  0.52177  0.11867  0.68856  1.0000
  C   C3351     1.0  0.50999  0.11218  0.67749  1.0000
  C   C3352     1.0  0.51330  0.11151  0.64932  1.0000
  C   C3353     1.0  0.52838  0.11731  0.63221  1.0000
  C   C3354     1.0  0.54823  0.15274  0.58790  1.0000
  H   H2669     1.0  0.44729  0.25854  0.48161  1.0000
  C   C3355     1.0  0.55808  0.16347  0.53723  1.0000
  C   C3356     1.0  0.56838  0.15410  0.53688  1.0000
  C   C3357     1.0  0.56865  0.14401  0.56195  1.0000
  C   C3358     1.0  0.57124  0.14311  0.63768  1.0000
  H   H2670     1.0  0.38347  0.43843  0.76949  1.0000
  H   H2671     1.0  0.48660  0.39876  0.94018  1.0000
  H   H2672     1.0  0.49707  0.13503  0.50047  1.0000
  C   C3359     1.0  0.38559  0.05989  0.69958  1.0000
  C   C3360     1.0  0.57891  0.13621  0.65647  1.0000
  C   C3361     1.0  0.57508  0.25687  0.89263  1.0000
  C   C3362     1.0  0.57603  0.12024  0.86065  1.0000
  H   H2673     1.0  0.55916  0.07691  0.62122  1.0000
  H   H2674     1.0  0.54691  0.09777  0.62837  1.0000
  H   H2675     1.0  0.55937  0.11492  0.80758  1.0000
  H   H2676     1.0  0.54586  0.12898  0.68088  1.0000
  H   H2677     1.0  0.51919  0.11930  0.71029  1.0000
  H   H2678     1.0  0.49833  0.10756  0.69082  1.0000
  H   H2679     1.0  0.50424  0.10624  0.64078  1.0000
  H   H2680     1.0  0.53076  0.11654  0.61046  1.0000
  C   C3363     1.0  0.57538  0.44476  0.93416  1.0000
  C   C3364     1.0  0.41842  0.48315  0.69467  1.0000
  H   H2681     1.0  0.57660  0.13673  0.56088  1.0000
  H   H2682     1.0  0.57585  0.00019  0.84846  1.0000
  H   H2683     1.0  0.43472  0.03867  0.82858  1.0000
  C   C3365     1.0  0.41909  0.26617  0.88672  1.0000
  H   H2684     1.0  0.43544  0.47383  0.52960  1.0000
  H   H2685     1.0  0.57811  0.12388  0.66097  1.0000
  C   C3366     1.0  0.44596  0.16006  0.69949  1.0000
  C   C3367     1.0  0.46163  0.16103  0.69024  1.0000
  C   C3368     1.0  0.47242  0.17530  0.68382  1.0000
  C   C3369     1.0  0.46750  0.18858  0.68668  1.0000
  C   C3370     1.0  0.45176  0.18762  0.69647  1.0000
  C   C3371     1.0  0.44101  0.17332  0.70239  1.0000
  P   P109      1.0  0.44547  0.20509  0.69696  1.0000
  C   C3372     1.0  0.45688  0.21737  0.71304  1.0000
  C   C3373     1.0  0.44669  0.21387  0.66048  1.0000
  C   C3374     1.0  0.45916  0.22631  0.64404  1.0000
  C   C3375     1.0  0.46015  0.23263  0.61550  1.0000
  C   C3376     1.0  0.44888  0.22641  0.60311  1.0000
  C   C3377     1.0  0.43668  0.21376  0.61917  1.0000
  C   C3378     1.0  0.43559  0.20748  0.64772  1.0000
  C   C3379     1.0  0.45679  0.23306  0.70862  1.0000
  C   C3380     1.0  0.46470  0.24240  0.72260  1.0000
  C   C3381     1.0  0.47253  0.23609  0.74147  1.0000
  C   C3382     1.0  0.47236  0.22038  0.74654  1.0000
  C   C3383     1.0  0.46448  0.21101  0.73255  1.0000
  C   C3384     1.0  0.42615  0.20151  0.71863  1.0000
  C   C3385     1.0  0.42149  0.19094  0.74550  1.0000
  C   C3386     1.0  0.40706  0.18919  0.76349  1.0000
  C   C3387     1.0  0.39722  0.19804  0.75489  1.0000
  C   C3388     1.0  0.40181  0.20864  0.72825  1.0000
  C   C3389     1.0  0.41625  0.21047  0.71025  1.0000
  H   H2686     1.0  0.43764  0.14899  0.70430  1.0000
  H   H2687     1.0  0.46534  0.15070  0.68790  1.0000
  H   H2688     1.0  0.48457  0.17607  0.67636  1.0000
  H   H2689     1.0  0.47594  0.19963  0.68098  1.0000
  H   H2690     1.0  0.42881  0.17246  0.70891  1.0000
  H   H2691     1.0  0.46816  0.23110  0.65310  1.0000
  H   H2692     1.0  0.46965  0.24237  0.60287  1.0000
  H   H2693     1.0  0.44961  0.23141  0.58105  1.0000
  H   H2694     1.0  0.42796  0.20883  0.60956  1.0000
  H   H2695     1.0  0.42604  0.19763  0.65982  1.0000
  H   H2696     1.0  0.45036  0.23801  0.69473  1.0000
  H   H2697     1.0  0.46458  0.25450  0.71907  1.0000
  H   H2698     1.0  0.47853  0.24330  0.75251  1.0000
  H   H2699     1.0  0.47813  0.21540  0.76171  1.0000
  H   H2700     1.0  0.46404  0.19877  0.73750  1.0000
  H   H2701     1.0  0.42896  0.18402  0.75261  1.0000
  H   H2702     1.0  0.40336  0.18066  0.78386  1.0000
  H   H2703     1.0  0.51862  0.40738  0.48655  1.0000
  H   H2704     1.0  0.39416  0.21548  0.72152  1.0000
  H   H2705     1.0  0.41966  0.21903  0.69000  1.0000
  C   C3390     1.0  0.44851  0.42885  0.73457  1.0000
  C   C3391     1.0  0.46395  0.43336  0.71924  1.0000
  C   C3392     1.0  0.47103  0.44900  0.70608  1.0000
  C   C3393     1.0  0.51755  0.22997  0.48368  1.0000
  C   C3394     1.0  0.40602  0.42015  0.71380  1.0000
  P   P110      1.0  0.43679  0.47052  0.72659  1.0000
  H   H2706     1.0  0.50652  0.37115  0.80926  1.0000
  H   H2707     1.0  0.42138  0.26007  0.50606  1.0000
  H   H2708     1.0  0.57504  0.26322  0.93148  1.0000
  C   C3395     1.0  0.42380  0.27546  0.85892  1.0000
  C   C3396     1.0  0.51502  0.41426  0.76775  1.0000
  C   C3397     1.0  0.51539  0.20433  0.51255  1.0000
  C   C3398     1.0  0.57103  0.11318  0.84081  1.0000
  H   H2709     1.0  0.48087  0.20793  0.50009  1.0000
  C   C3399     1.0  0.46268  0.46012  0.70806  1.0000
  C   C3400     1.0  0.57089  0.38786  0.76646  1.0000
  H   H2710     1.0  0.47050  0.42477  0.71777  1.0000
  H   H2711     1.0  0.48308  0.45256  0.69459  1.0000
  H   H2712     1.0  0.44524  0.24463  0.88331  1.0000
  H   H2713     1.0  0.41794  0.28421  0.85214  1.0000
  P   P111      1.0  0.56146  0.16017  0.84765  1.0000
  C   C3401     1.0  0.56811  0.25734  0.91994  1.0000
  H   H2714     1.0  0.55611  0.42565  0.93910  1.0000
  H   H2715     1.0  0.56061  0.38433  0.65746  1.0000
  H   H2716     1.0  0.42597  0.12666  0.63561  1.0000
  C   C3402     1.0  0.50203  0.39330  0.80972  1.0000
  Fe  Fe223     1.0  0.38664  0.22327  0.59835  1.0000
  P   P112      1.0  0.52780  0.37534  0.75448  1.0000
  C   C3403     1.0  0.46990  0.99884  0.62896  1.0000
  H   H2717     1.0  0.40794  0.41107  0.72953  1.0000
  H   H2718     1.0  0.53649  0.22253  0.49630  1.0000
  C   C3404     1.0  0.54457  0.37534  0.76807  1.0000
  C   C3405     1.0  0.51460  0.07034  0.52461  1.0000
  C   C3406     1.0  0.57248  0.15911  0.63262  1.0000
  C   C3407     1.0  0.41421  0.12405  0.64821  1.0000
  C   C3408     1.0  0.40118  0.44373  0.67344  1.0000
  H   H2719     1.0  0.53207  0.34356  0.76512  1.0000
  H   H2720     1.0  0.42943  0.30944  0.87532  1.0000
  C   C3409     1.0  0.54376  0.36457  0.79332  1.0000
  C   C3410     1.0  0.56117  0.16321  0.88233  1.0000
  H   H2721     1.0  0.46399  0.48234  0.51375  1.0000
  H   H2722     1.0  0.54400  0.23650  0.87737  1.0000
  H   H2723     1.0  0.50396  0.13633  0.58386  1.0000
  C   C3411     1.0  0.56800  0.43609  0.89517  1.0000
  C   C3412     1.0  0.57665  0.99756  0.82819  1.0000
  C   C3413     1.0  0.40667  0.45259  0.75085  1.0000
  C   C3414     1.0  0.40478  0.45961  0.80295  1.0000
  C   C3415     1.0  0.57063  0.48345  0.68435  1.0000
  C   C3416     1.0  0.58022  0.40615  0.95800  1.0000
  H   H2724     1.0  0.55427  0.44102  0.82973  1.0000
  C   C3417     1.0  0.38737  0.24860  0.70072  1.0000
  C   C3418     1.0  0.38936  0.99841  0.75977  1.0000
  H   H2725     1.0  0.57355  0.19320  0.84086  1.0000
  C   C3419     1.0  0.57347  0.02647  0.67792  1.0000
  H   H2726     1.0  0.56669  0.16478  0.61838  1.0000
  P   P113      1.0  0.54389  0.24886  0.96892  1.0000
  C   C3420     1.0  0.51506  0.16488  0.82930  1.0000
  H   H2727     1.0  0.51187  0.24249  0.96543  1.0000
  C   C3421     1.0  0.57842  0.00191  0.71641  1.0000
  H   H2728     1.0  0.57668  0.05825  0.69771  1.0000
  H   H2729     1.0  0.57398  0.10256  0.83820  1.0000
  C   C3422     1.0  0.47741  0.38846  0.94392  1.0000
  C   C3423     1.0  0.54800  0.16279  0.56275  1.0000
  C   C3424     1.0  0.44403  0.26236  0.84792  1.0000
  C   C3425     1.0  0.44136  0.47848  0.66774  1.0000
  H   H2730     1.0  0.53154  0.23753  0.92512  1.0000
  C   C3426     1.0  0.51868  0.38843  0.76992  1.0000
  P   P114      1.0  0.40622  0.02948  0.74044  1.0000
  C   C3427     1.0  0.40151  0.04701  0.72461  1.0000
  C   C3428     1.0  0.41546  0.03240  0.76811  1.0000
  H   H2731     1.0  0.58127  0.39712  0.75654  1.0000
  H   H2732     1.0  0.56048  0.42783  0.88818  1.0000
  C   C3429     1.0  0.56542  0.43481  0.92420  1.0000
  C   C3430     1.0  0.43477  0.02829  0.79367  1.0000
  C   C3431     1.0  0.42776  0.02591  0.77207  1.0000
  C   C3432     1.0  0.41084  0.06155  0.72299  1.0000
  C   C3433     1.0  0.40741  0.07515  0.71017  1.0000
  C   C3434     1.0  0.39475  0.07431  0.69853  1.0000
  C   C3435     1.0  0.41862  0.02551  0.71129  1.0000
  C   C3436     1.0  0.43436  0.03316  0.70240  1.0000
  H   H2733     1.0  0.39427  0.29691  0.68910  1.0000
  H   H2734     1.0  0.54867  0.37763  0.96101  1.0000
  H   H2735     1.0  0.42331  0.24791  0.91690  1.0000
  C   C3437     1.0  0.41250  0.01577  0.69583  1.0000
  C   C3438     1.0  0.40987  0.04071  0.78677  1.0000
  C   C3439     1.0  0.45037  0.17366  0.49927  1.0000
  H   H2736     1.0  0.45705  0.18422  0.53069  1.0000
  C   C3440     1.0  0.41075  0.11816  0.67752  1.0000
  H   H2737     1.0  0.43203  0.01909  0.75849  1.0000
  H   H2738     1.0  0.42082  0.06241  0.73151  1.0000
  H   H2739     1.0  0.41465  0.08631  0.70925  1.0000
  C   C3441     1.0  0.50500  0.40884  0.79484  1.0000
  H   H2740     1.0  0.43926  0.04131  0.71308  1.0000
  C   C3442     1.0  0.41684  0.04299  0.80841  1.0000
  C   C3443     1.0  0.43932  0.25318  0.87603  1.0000
  H   H2741     1.0  0.46100  0.15849  0.57251  1.0000
  H   H2742     1.0  0.51374  0.31789  0.77692  1.0000
  H   H2743     1.0  0.49439  0.38909  0.83086  1.0000
  H   H2744     1.0  0.55415  0.37482  0.70958  1.0000
  H   H2745     1.0  0.43212  0.26783  0.74875  1.0000
  C   C3444     1.0  0.42215  0.01310  0.67280  1.0000
  H   H2746     1.0  0.40027  0.01040  0.70125  1.0000
  H   H2747     1.0  0.49760  0.98918  0.69547  1.0000
  H   H2748     1.0  0.53163  0.13776  0.85897  1.0000
  C   C3445     1.0  0.58059  0.44741  0.87585  1.0000
  C   C3446     1.0  0.51997  0.34288  0.76707  1.0000
  C   C3447     1.0  0.57027  0.37656  0.79065  1.0000
  H   H2749     1.0  0.48318  0.10752  0.52411  1.0000
  C   C3448     1.0  0.44578  0.31960  0.93940  1.0000
  H   H2750     1.0  0.41594  0.31710  0.83869  1.0000
  Fe  Fe224     1.0  0.38615  0.19450  0.64105  1.0000
  C   C3449     1.0  0.39021  0.17176  0.70497  1.0000
  C   C3450     1.0  0.47020  0.41450  0.50540  1.0000
  H   H2751     1.0  0.55472  0.10250  0.75927  1.0000
  C   C3451     1.0  0.48474  0.99650  0.62371  1.0000
  C   C3452     1.0  0.42333  0.08763  0.90114  1.0000
  C   C3453     1.0  0.55933  0.38654  0.95195  1.0000
  C   C3454     1.0  0.41605  0.44184  0.67214  1.0000
  C   C3455     1.0  0.40201  0.06427  0.89107  1.0000
  H   H2752     1.0  0.51770  0.08158  0.52863  1.0000
  H   H2753     1.0  0.38596  0.19653  0.76869  1.0000
  H   H2754     1.0  0.57281  0.09583  0.48526  1.0000
  C   C3456     1.0  0.54342  0.27982  0.94932  1.0000
  C   C3457     1.0  0.56099  0.16913  0.93522  1.0000
  H   H2755     1.0  0.44545  0.48572  0.62241  1.0000
  H   H2756     1.0  0.40397  0.46246  0.82306  1.0000
  H   H2757     1.0  0.53994  0.17000  0.56296  1.0000
  H   H2758     1.0  0.56097  0.17189  0.95521  1.0000
  H   H2759     1.0  0.55787  0.17118  0.51765  1.0000
  H   H2760     1.0  0.43987  0.28125  0.81848  1.0000
  C   C3458     1.0  0.57270  0.13422  0.86346  1.0000
  H   H2761     1.0  0.54307  0.30367  0.93453  1.0000
  C   C3459     1.0  0.54718  0.16182  0.90172  1.0000
  C   C3460     1.0  0.57224  0.20817  0.94134  1.0000
  H   H2762     1.0  0.56809  0.20744  0.96350  1.0000
  C   C3461     1.0  0.57494  0.17045  0.91617  1.0000
  H   H2763     1.0  0.50353  0.02966  0.51159  1.0000
  C   C3462     1.0  0.41845  0.42994  0.69207  1.0000
  C   C3463     1.0  0.39559  0.11495  0.69388  1.0000
  H   H2764     1.0  0.55642  0.00159  0.74288  1.0000
  C   C3464     1.0  0.56256  0.01930  0.70375  1.0000
  H   H2765     1.0  0.53162  0.15853  0.49907  1.0000
  C   C3465     1.0  0.51100  0.05435  0.49242  1.0000
  H   H2766     1.0  0.57768  0.43760  0.66641  1.0000
  H   H2767     1.0  0.39968  0.45330  0.65822  1.0000
  H   H2768     1.0  0.53629  0.16416  0.94245  1.0000
  H   H2769     1.0  0.57656  0.42948  0.54070  1.0000
  C   C3466     1.0  0.57979  0.46519  0.79018  1.0000
  C   C3467     1.0  0.38391  0.30101  0.69055  1.0000
  H   H2770     1.0  0.57938  0.45492  0.78253  1.0000
  H   H2771     1.0  0.58020  0.37693  0.79934  1.0000
  C   C3468     1.0  0.57904  0.99066  0.77563  1.0000
  H   H2772     1.0  0.52214  0.30263  0.97562  1.0000
  C   C3469     1.0  0.45563  0.32532  0.97844  1.0000
  S   S458      1.0  0.50064  0.48786  0.67297  1.0000
  C   C3470     1.0  0.51342  0.23221  0.97880  1.0000
  C   C3471     1.0  0.46279  0.31314  0.97879  1.0000
  C   C3472     1.0  0.58132  0.16804  0.64600  1.0000
  H   H2773     1.0  0.58152  0.02143  0.80469  1.0000
  H   H2774     1.0  0.44657  0.87165  0.05354  1.0000
  H   H2775     1.0  0.40128  0.58997  0.26243  1.0000
  Fe  Fe225     1.0  0.56997  0.75639  0.26188  1.0000
  S   S459      1.0  0.55084  0.76621  0.28055  1.0000
  S   S460      1.0  0.56731  0.73402  0.24750  1.0000
  Fe  Fe226     1.0  0.56785  0.78945  0.26032  1.0000
  S   S461      1.0  0.56302  0.81230  0.24270  1.0000
  Fe  Fe227     1.0  0.56202  0.76624  0.31642  1.0000
  S   S462      1.0  0.54964  0.75794  0.36279  1.0000
  C   C3473     1.0  0.53447  0.86587  0.00131  1.0000
  H   H2776     1.0  0.45638  0.84904  0.07119  1.0000
  Fe  Fe228     1.0  0.44427  0.95564  0.23770  1.0000
  S   S463      1.0  0.43889  0.94972  0.19860  1.0000
  C   C3474     1.0  0.56818  0.69621  0.17348  1.0000
  Fe  Fe229     1.0  0.43636  0.92102  0.26837  1.0000
  S   S464      1.0  0.43101  0.91274  0.23134  1.0000
  S   S465      1.0  0.43708  0.90337  0.30732  1.0000
  Fe  Fe230     1.0  0.45190  0.93168  0.20595  1.0000
  S   S466      1.0  0.46748  0.92949  0.16688  1.0000
  Fe  Fe231     1.0  0.41815  0.93119  0.22647  1.0000
  S   S467      1.0  0.39583  0.92820  0.21174  1.0000
  S   S468      1.0  0.45866  0.93847  0.24304  1.0000
  S   S469      1.0  0.42205  0.93850  0.26557  1.0000
  Fe  Fe232     1.0  0.43492  0.51843  0.21679  1.0000
  S   S470      1.0  0.42690  0.53271  0.18305  1.0000
  Fe  Fe233     1.0  0.41720  0.53020  0.26274  1.0000
  S   S471      1.0  0.40785  0.54506  0.23221  1.0000
  S   S472      1.0  0.41059  0.52862  0.30977  1.0000
  Fe  Fe234     1.0  0.40361  0.52452  0.21379  1.0000
  H   H2777     1.0  0.50344  0.83573  0.98845  1.0000
  Fe  Fe235     1.0  0.43203  0.55175  0.20442  1.0000
  S   S473      1.0  0.44365  0.57618  0.17695  1.0000
  S   S474      1.0  0.41119  0.50901  0.24651  1.0000
  S   S475      1.0  0.44173  0.53814  0.23597  1.0000
  S   S476      1.0  0.40288  0.59568  0.42869  1.0000
  C   C3475     1.0  0.40549  0.83786  0.00006  1.0000
  S   S477      1.0  0.39144  0.84129  0.45515  1.0000
  S   S478      1.0  0.40374  0.80509  0.43949  1.0000
  C   C3476     1.0  0.52168  0.88615  0.98920  1.0000
  S   S479      1.0  0.47806  0.75332  0.39666  1.0000
  Fe  Fe236     1.0  0.53018  0.84833  0.12382  1.0000
  S   S480      1.0  0.53650  0.86216  0.07831  1.0000
  S   S481      1.0  0.53600  0.82528  0.13591  1.0000
  Fe  Fe237     1.0  0.51266  0.87040  0.14423  1.0000
  S   S482      1.0  0.51751  0.88578  0.10037  1.0000
  S   S483      1.0  0.49978  0.87452  0.18448  1.0000
  Fe  Fe238     1.0  0.51188  0.86367  0.08714  1.0000
  S   S484      1.0  0.49699  0.86287  0.05589  1.0000
  Fe  Fe239     1.0  0.54155  0.88301  0.09561  1.0000
  S   S485      1.0  0.56161  0.90395  0.07239  1.0000
  S   S486      1.0  0.50516  0.84849  0.13155  1.0000
  S   S487      1.0  0.53714  0.86899  0.14035  1.0000
  Fe  Fe240     1.0  0.49859  0.66979  0.12993  1.0000
  S   S488      1.0  0.50950  0.64985  0.13156  1.0000
  S   S489      1.0  0.48216  0.67583  0.10349  1.0000
  Fe  Fe241     1.0  0.51533  0.68230  0.17177  1.0000
  S   S490      1.0  0.52702  0.66277  0.17730  1.0000
  S   S491      1.0  0.51712  0.70333  0.19021  1.0000
  Fe  Fe242     1.0  0.53137  0.66683  0.13005  1.0000
  S   S492      1.0  0.55343  0.66820  0.09803  1.0000
  Fe  Fe243     1.0  0.50409  0.64745  0.17830  1.0000
  S   S493      1.0  0.49283  0.62417  0.21003  1.0000
  S   S494      1.0  0.52086  0.68710  0.12447  1.0000
  S   S495      1.0  0.49202  0.66659  0.17688  1.0000
  C   C3477     1.0  0.47826  0.85331  0.44217  1.0000
  S   S496      1.0  0.46103  0.79933  0.03979  1.0000
  H   H2778     1.0  0.40588  0.61258  0.30586  1.0000
  S   S497      1.0  0.43146  0.77409  0.01012  1.0000
  S   S498      1.0  0.39341  0.78797  0.00695  1.0000
  H   H2779     1.0  0.39775  0.49542  0.18519  1.0000
  H   H2780     1.0  0.41939  0.83989  0.20008  1.0000
  Fe  Fe244     1.0  0.43987  0.64241  0.00151  1.0000
  S   S499      1.0  0.45015  0.63230  0.03661  1.0000
  S   S500      1.0  0.41477  0.64182  0.00952  1.0000
  C   C3478     1.0  0.54646  0.72223  0.10474  1.0000
  H   H2781     1.0  0.48170  0.95558  0.18814  1.0000
  H   H2782     1.0  0.57463  0.63747  0.99414  1.0000
  H   H2783     1.0  0.41660  0.63083  0.45992  1.0000
  H   H2784     1.0  0.51802  0.98402  0.21066  1.0000
  C   C3479     1.0  0.47377  0.66352  0.08470  1.0000
  C   C3480     1.0  0.47219  0.64751  0.09221  1.0000
  C   C3481     1.0  0.46478  0.63805  0.07752  1.0000
  C   C3482     1.0  0.45913  0.64452  0.05495  1.0000
  C   C3483     1.0  0.46088  0.66054  0.04724  1.0000
  C   C3484     1.0  0.46799  0.66994  0.06228  1.0000
  H   H2785     1.0  0.47643  0.64239  0.10963  1.0000
  H   H2786     1.0  0.46337  0.62567  0.08377  1.0000
  H   H2787     1.0  0.45659  0.66569  0.02992  1.0000
  H   H2788     1.0  0.46906  0.68230  0.05646  1.0000
  C   C3485     1.0  0.57129  0.66970  0.10678  1.0000
  H   H2789     1.0  0.38329  0.70838  0.98448  1.0000
  H   H2790     1.0  0.42330  0.95915  0.14203  1.0000
  H   H2791     1.0  0.39828  0.95350  0.13010  1.0000
  H   H2792     1.0  0.56215  0.66731  0.15099  1.0000
  C   C3486     1.0  0.57237  0.66876  0.13450  1.0000
  C   C3487     1.0  0.40739  0.78831  0.45922  1.0000
  C   C3488     1.0  0.47176  0.81716  0.04249  1.0000
  C   C3489     1.0  0.47927  0.81701  0.06430  1.0000
  C   C3490     1.0  0.48739  0.83090  0.06810  1.0000
  C   C3491     1.0  0.48801  0.84514  0.05018  1.0000
  C   C3492     1.0  0.48071  0.84532  0.02802  1.0000
  C   C3493     1.0  0.47259  0.83139  0.02418  1.0000
  H   H2793     1.0  0.47871  0.80605  0.07851  1.0000
  H   H2794     1.0  0.49297  0.83058  0.08519  1.0000
  H   H2795     1.0  0.48114  0.85629  0.01403  1.0000
  H   H2796     1.0  0.46676  0.83164  0.00745  1.0000
  C   C3494     1.0  0.57171  0.91594  0.08982  1.0000
  C   C3495     1.0  0.56855  0.91257  0.11932  1.0000
  H   H2797     1.0  0.55942  0.90261  0.13209  1.0000
  H   H2798     1.0  0.47426  0.97811  0.26916  1.0000
  C   C3496     1.0  0.40679  0.66463  0.43933  1.0000
  C   C3497     1.0  0.42379  0.77027  0.46246  1.0000
  C   C3498     1.0  0.49120  0.64863  0.98852  1.0000
  C   C3499     1.0  0.40918  0.54546  0.32124  1.0000
  C   C3500     1.0  0.41323  0.56009  0.30202  1.0000
  C   C3501     1.0  0.40645  0.57190  0.34077  1.0000
  C   C3502     1.0  0.40238  0.55730  0.36002  1.0000
  C   C3503     1.0  0.40394  0.54417  0.35030  1.0000
  C   C3504     1.0  0.41803  0.55793  0.00849  1.0000
  C   C3505     1.0  0.38879  0.74044  0.98411  1.0000
  C   C3506     1.0  0.45731  0.58927  0.18659  1.0000
  C   C3507     1.0  0.46435  0.60402  0.16798  1.0000
  C   C3508     1.0  0.47521  0.61480  0.17499  1.0000
  C   C3509     1.0  0.47916  0.61089  0.20067  1.0000
  C   C3510     1.0  0.47201  0.59618  0.21935  1.0000
  C   C3511     1.0  0.46109  0.58541  0.21241  1.0000
  H   H2799     1.0  0.46133  0.60718  0.14812  1.0000
  H   H2800     1.0  0.48038  0.62619  0.16067  1.0000
  H   H2801     1.0  0.47499  0.59303  0.23919  1.0000
  H   H2802     1.0  0.45569  0.57410  0.22696  1.0000
  C   C3512     1.0  0.49869  0.97066  0.20076  1.0000
  C   C3513     1.0  0.42204  0.88095  0.45004  1.0000
  C   C3514     1.0  0.39176  0.87445  0.37094  1.0000
  C   C3515     1.0  0.39161  0.88474  0.34590  1.0000
  C   C3516     1.0  0.40546  0.89385  0.32654  1.0000
  C   C3517     1.0  0.41955  0.89265  0.33199  1.0000
  C   C3518     1.0  0.41973  0.88247  0.35718  1.0000
  C   C3519     1.0  0.40587  0.87344  0.37673  1.0000
  H   H2803     1.0  0.38266  0.98359  0.17926  1.0000
  H   H2804     1.0  0.40531  0.90189  0.30744  1.0000
  H   H2805     1.0  0.43061  0.88164  0.36162  1.0000
  H   H2806     1.0  0.40611  0.86562  0.39605  1.0000
  C   C3520     1.0  0.47685  0.91460  0.17213  1.0000
  C   C3521     1.0  0.47790  0.90753  0.19908  1.0000
  C   C3522     1.0  0.48541  0.89554  0.20256  1.0000
  C   C3523     1.0  0.49150  0.89035  0.17932  1.0000
  C   C3524     1.0  0.49054  0.89759  0.15245  1.0000
  C   C3525     1.0  0.48336  0.90977  0.14881  1.0000
  H   H2807     1.0  0.47304  0.91139  0.21713  1.0000
  H   H2808     1.0  0.48638  0.89020  0.22326  1.0000
  H   H2809     1.0  0.49498  0.89363  0.13448  1.0000
  H   H2810     1.0  0.48261  0.91525  0.12792  1.0000
  H   H2811     1.0  0.56070  0.84013  0.20760  1.0000
  S   S501      1.0  0.40507  0.58877  0.35195  1.0000
  C   C3526     1.0  0.42739  0.66862  0.46325  1.0000
  C   C3527     1.0  0.52984  0.75710  0.37191  1.0000
  C   C3528     1.0  0.52120  0.75012  0.39991  1.0000
  C   C3529     1.0  0.50532  0.74897  0.40767  1.0000
  C   C3530     1.0  0.49799  0.75481  0.38745  1.0000
  C   C3531     1.0  0.50666  0.76198  0.35950  1.0000
  C   C3532     1.0  0.52255  0.76311  0.35173  1.0000
  H   H2812     1.0  0.52678  0.74557  0.41568  1.0000
  H   H2813     1.0  0.49881  0.74371  0.42937  1.0000
  H   H2814     1.0  0.50105  0.76665  0.34388  1.0000
  H   H2815     1.0  0.52917  0.76872  0.33022  1.0000
  C   C3533     1.0  0.55303  0.72577  0.23189  1.0000
  C   C3534     1.0  0.55174  0.71048  0.22972  1.0000
  C   C3535     1.0  0.54071  0.70343  0.21730  1.0000
  C   C3536     1.0  0.53111  0.71173  0.20621  1.0000
  C   C3537     1.0  0.53226  0.72698  0.20867  1.0000
  C   C3538     1.0  0.54311  0.73396  0.22155  1.0000
  H   H2816     1.0  0.55926  0.70399  0.23785  1.0000
  H   H2817     1.0  0.53955  0.69155  0.21639  1.0000
  H   H2818     1.0  0.52483  0.73352  0.20029  1.0000
  H   H2819     1.0  0.54394  0.74574  0.22306  1.0000
  C   C3539     1.0  0.55617  0.81554  0.21223  1.0000
  C   C3540     1.0  0.55042  0.80341  0.20118  1.0000
  C   C3541     1.0  0.54441  0.80651  0.17748  1.0000
  C   C3542     1.0  0.54414  0.82171  0.16484  1.0000
  C   C3543     1.0  0.55021  0.83381  0.17562  1.0000
  C   C3544     1.0  0.55610  0.83071  0.19933  1.0000
  H   H2820     1.0  0.55042  0.79166  0.21107  1.0000
  H   H2821     1.0  0.53979  0.79712  0.16910  1.0000
  H   H2822     1.0  0.55036  0.84557  0.16573  1.0000
  H   H2823     1.0  0.39552  0.63772  0.23247  1.0000
  C   C3545     1.0  0.51318  0.94481  0.08506  1.0000
  C   C3546     1.0  0.51928  0.93328  0.07610  1.0000
  C   C3547     1.0  0.53004  0.92762  0.08856  1.0000
  C   C3548     1.0  0.53433  0.93309  0.11056  1.0000
  C   C3549     1.0  0.52794  0.94437  0.12024  1.0000
  C   C3550     1.0  0.51774  0.95059  0.10663  1.0000
  P   P115      1.0  0.53445  0.95200  0.14740  1.0000
  C   C3551     1.0  0.53751  0.93623  0.17232  1.0000
  C   C3552     1.0  0.55203  0.96678  0.12891  1.0000
  C   C3553     1.0  0.56550  0.96246  0.11858  1.0000
  S   S502      1.0  0.46247  0.74995  0.47750  1.0000
  C   C3554     1.0  0.55215  0.98257  0.12257  1.0000
  C   C3555     1.0  0.52938  0.80729  0.30193  1.0000
  C   C3556     1.0  0.57434  0.71380  0.09414  1.0000
  C   C3557     1.0  0.55052  0.93816  0.18318  1.0000
  C   C3558     1.0  0.55260  0.92578  0.20262  1.0000
  C   C3559     1.0  0.54164  0.91149  0.21161  1.0000
  C   C3560     1.0  0.52861  0.90952  0.20106  1.0000
  C   C3561     1.0  0.52650  0.92186  0.18160  1.0000
  C   C3562     1.0  0.52040  0.95928  0.16823  1.0000
  C   C3563     1.0  0.50459  0.95371  0.17107  1.0000
  C   C3564     1.0  0.49385  0.95963  0.18675  1.0000
  C   C3565     1.0  0.55089  0.62880  0.14138  1.0000
  C   C3566     1.0  0.44958  0.84348  0.27736  1.0000
  C   C3567     1.0  0.42712  0.65281  0.46667  1.0000
  H   H2824     1.0  0.50495  0.94933  0.07522  1.0000
  H   H2825     1.0  0.51582  0.92884  0.05932  1.0000
  H   H2826     1.0  0.53517  0.91902  0.08109  1.0000
  H   H2827     1.0  0.54276  0.92857  0.11978  1.0000
  H   H2828     1.0  0.51324  0.95984  0.11266  1.0000
  H   H2829     1.0  0.56556  0.95035  0.12229  1.0000
  C   C3568     1.0  0.46710  0.85870  0.45808  1.0000
  H   H2830     1.0  0.39628  0.85861  0.07652  1.0000
  H   H2831     1.0  0.49553  0.80725  0.00135  1.0000
  S   S503      1.0  0.45252  0.98198  0.23327  1.0000
  H   H2832     1.0  0.55909  0.94916  0.17665  1.0000
  H   H2833     1.0  0.56280  0.92728  0.21055  1.0000
  H   H2834     1.0  0.54326  0.90193  0.22671  1.0000
  H   H2835     1.0  0.52012  0.89843  0.20782  1.0000
  H   H2836     1.0  0.51629  0.92017  0.17371  1.0000
  H   H2837     1.0  0.50046  0.94475  0.16131  1.0000
  H   H2838     1.0  0.44144  0.53481  0.40587  1.0000
  C   C3569     1.0  0.57757  0.49446  0.17491  1.0000
  C   C3570     1.0  0.43421  0.53686  0.42402  1.0000
  C   C3571     1.0  0.43793  0.59273  0.09378  1.0000
  C   C3572     1.0  0.43488  0.57707  0.10774  1.0000
  C   C3573     1.0  0.42275  0.57057  0.13205  1.0000
  C   C3574     1.0  0.41399  0.57984  0.14302  1.0000
  C   C3575     1.0  0.41696  0.59565  0.12919  1.0000
  C   C3576     1.0  0.42899  0.60197  0.10434  1.0000
  P   P116      1.0  0.40592  0.60769  0.14429  1.0000
  H   H2839     1.0  0.42814  0.97707  0.17196  1.0000
  C   C3577     1.0  0.40473  0.60316  0.18173  1.0000
  C   C3578     1.0  0.42495  0.86871  0.46852  1.0000
  C   C3579     1.0  0.41445  0.96464  0.14961  1.0000
  H   H2840     1.0  0.39894  0.66935  0.42872  1.0000
  C   C3580     1.0  0.41584  0.59447  0.22047  1.0000
  C   C3581     1.0  0.41713  0.59932  0.19146  1.0000
  H   H2841     1.0  0.39659  0.74775  0.01811  1.0000
  Fe  Fe245     1.0  0.46559  0.73895  0.44123  1.0000
  Fe  Fe246     1.0  0.41866  0.78973  0.98904  1.0000
  C   C3582     1.0  0.41548  0.62795  0.12758  1.0000
  C   C3583     1.0  0.41593  0.63444  0.09921  1.0000
  C   C3584     1.0  0.42344  0.65000  0.08604  1.0000
  C   C3585     1.0  0.43069  0.65920  0.10093  1.0000
  C   C3586     1.0  0.43050  0.65284  0.12898  1.0000
  C   C3587     1.0  0.42290  0.63727  0.14235  1.0000
  H   H2842     1.0  0.44744  0.59794  0.07513  1.0000
  H   H2843     1.0  0.44216  0.57003  0.10036  1.0000
  H   H2844     1.0  0.42077  0.55858  0.14347  1.0000
  H   H2845     1.0  0.40551  0.57478  0.16312  1.0000
  H   H2846     1.0  0.43199  0.61411  0.09336  1.0000
  H   H2847     1.0  0.46667  0.87060  0.45089  1.0000
  C   C3588     1.0  0.38635  0.82294  0.05810  1.0000
  C   C3589     1.0  0.46360  0.61002  0.98310  1.0000
  H   H2848     1.0  0.42531  0.59095  0.22770  1.0000
  H   H2849     1.0  0.42772  0.59976  0.17660  1.0000
  C   C3590     1.0  0.38423  0.87499  0.06077  1.0000
  C   C3591     1.0  0.39723  0.52813  0.12914  1.0000
  C   C3592     1.0  0.56833  0.61363  0.12572  1.0000
  H   H2850     1.0  0.41077  0.62739  0.08700  1.0000
  H   H2851     1.0  0.42406  0.65485  0.06396  1.0000
  H   H2852     1.0  0.43685  0.67117  0.09044  1.0000
  H   H2853     1.0  0.43654  0.65999  0.14005  1.0000
  H   H2854     1.0  0.42305  0.63255  0.16396  1.0000
  H   H2855     1.0  0.41557  0.52381  0.98989  1.0000
  P   P117      1.0  0.40064  0.84021  0.03554  1.0000
  H   H2856     1.0  0.41725  0.85732  0.47360  1.0000
  H   H2857     1.0  0.46015  0.86489  0.33256  1.0000
  C   C3593     1.0  0.44232  0.86486  0.29350  1.0000
  H   H2858     1.0  0.53546  0.72511  0.10934  1.0000
  C   C3594     1.0  0.38864  0.83554  0.13484  1.0000
  H   H2859     1.0  0.39754  0.89585  0.22166  1.0000
  C   C3595     1.0  0.38870  0.96843  0.15320  1.0000
  H   H2860     1.0  0.55674  0.67324  0.20013  1.0000
  C   C3596     1.0  0.56585  0.62747  0.13153  1.0000
  C   C3597     1.0  0.42597  0.73034  0.98243  1.0000
  C   C3598     1.0  0.41668  0.64295  0.45683  1.0000
  C   C3599     1.0  0.55042  0.62663  0.01253  1.0000
  C   C3600     1.0  0.39713  0.57755  0.08673  1.0000
  H   H2861     1.0  0.54248  0.71362  0.06933  1.0000
  S   S504      1.0  0.44058  0.68035  0.47706  1.0000
  C   C3601     1.0  0.44399  0.89864  0.45555  1.0000
  C   C3602     1.0  0.39158  0.86306  0.05924  1.0000
  H   H2862     1.0  0.41862  0.81867  0.05659  1.0000
  C   C3603     1.0  0.42058  0.78377  0.44808  1.0000
  H   H2863     1.0  0.39068  0.57152  0.10820  1.0000
  C   C3604     1.0  0.38554  0.86209  0.01462  1.0000
  C   C3605     1.0  0.42009  0.84547  0.98167  1.0000
  C   C3606     1.0  0.41277  0.53448  0.99260  1.0000
  C   C3607     1.0  0.38444  0.51529  0.09947  1.0000
  H   H2864     1.0  0.57554  0.80012  0.44271  1.0000
  C   C3608     1.0  0.40025  0.96148  0.14293  1.0000
  C   C3609     1.0  0.44378  0.84955  0.29969  1.0000
  C   C3610     1.0  0.50163  0.81358  0.97969  1.0000
  H   H2865     1.0  0.55308  0.72936  0.13960  1.0000
  H   H2866     1.0  0.45679  0.87527  0.22202  1.0000
  C   C3611     1.0  0.47913  0.83799  0.45096  1.0000
  H   H2867     1.0  0.46116  0.57564  0.03208  1.0000
  C   C3612     1.0  0.45325  0.86812  0.24365  1.0000
  C   C3613     1.0  0.55557  0.60099  0.13085  1.0000
  H   H2868     1.0  0.56211  0.88504  0.01964  1.0000
  C   C3614     1.0  0.54061  0.60236  0.14081  1.0000
  H   H2869     1.0  0.40676  0.71098  0.00664  1.0000
  H   H2870     1.0  0.53273  0.88362  0.02330  1.0000
  H   H2871     1.0  0.52434  0.86863  0.20980  1.0000
  H   H2872     1.0  0.52458  0.83875  0.20649  1.0000
  C   C3615     1.0  0.52516  0.96998  0.18320  1.0000
  H   H2873     1.0  0.48342  0.64656  0.00913  1.0000
  H   H2874     1.0  0.52106  0.86056  0.30560  1.0000
  H   H2875     1.0  0.53698  0.80021  0.29570  1.0000
  C   C3616     1.0  0.40955  0.81719  0.33253  1.0000
  C   C3617     1.0  0.41719  0.97469  0.16660  1.0000
  C   C3618     1.0  0.56415  0.71117  0.07739  1.0000
  H   H2876     1.0  0.54905  0.63958  0.14543  1.0000
  H   H2877     1.0  0.55703  0.58997  0.12769  1.0000
  C   C3619     1.0  0.38659  0.60293  0.13971  1.0000
  C   C3620     1.0  0.42660  0.53396  0.47476  1.0000
  H   H2878     1.0  0.38345  0.87978  0.07891  1.0000
  H   H2879     1.0  0.54058  0.86016  0.01490  1.0000
  Fe  Fe247     1.0  0.38638  0.61088  0.43170  1.0000
  P   P118      1.0  0.42951  0.57050  0.02411  1.0000
  C   C3621     1.0  0.41652  0.57912  0.04429  1.0000
  C   C3622     1.0  0.43855  0.55937  0.04726  1.0000
  C   C3623     1.0  0.43006  0.54504  0.06612  1.0000
  C   C3624     1.0  0.43684  0.53668  0.08469  1.0000
  C   C3625     1.0  0.45220  0.54241  0.08434  1.0000
  C   C3626     1.0  0.46087  0.55642  0.06514  1.0000
  C   C3627     1.0  0.45412  0.56486  0.04665  1.0000
  C   C3628     1.0  0.41388  0.59323  0.03134  1.0000
  C   C3629     1.0  0.40292  0.59933  0.04595  1.0000
  H   H2880     1.0  0.38583  0.62672  0.12321  1.0000
  H   H2881     1.0  0.57254  0.97852  0.19710  1.0000
  C   C3630     1.0  0.40802  0.57133  0.07216  1.0000
  C   C3631     1.0  0.44406  0.58559  0.99680  1.0000
  H   H2882     1.0  0.49075  0.85839  0.25021  1.0000
  C   C3632     1.0  0.40566  0.56213  0.99905  1.0000
  C   C3633     1.0  0.41559  0.54227  0.47059  1.0000
  H   H2883     1.0  0.51800  0.89618  0.99340  1.0000
  C   C3634     1.0  0.45183  0.59861  0.00365  1.0000
  S   S505      1.0  0.44061  0.72616  0.45070  1.0000
  H   H2884     1.0  0.42273  0.86800  0.03769  1.0000
  H   H2885     1.0  0.57996  0.75418  0.10492  1.0000
  H   H2886     1.0  0.57024  0.49633  0.27022  1.0000
  H   H2887     1.0  0.40562  0.52889  0.14155  1.0000
  H   H2888     1.0  0.41816  0.54035  0.06658  1.0000
  H   H2889     1.0  0.43023  0.52575  0.09950  1.0000
  H   H2890     1.0  0.45737  0.53598  0.09898  1.0000
  C   C3635     1.0  0.56209  0.86607  0.23185  1.0000
  C   C3636     1.0  0.46889  0.82805  0.47578  1.0000
  H   H2891     1.0  0.41992  0.59936  0.00963  1.0000
  H   H2892     1.0  0.40065  0.60996  0.03549  1.0000
  C   C3637     1.0  0.38663  0.49282  0.18060  1.0000
  C   C3638     1.0  0.39584  0.51690  0.11412  1.0000
  H   H2893     1.0  0.40968  0.56047  0.08282  1.0000
  H   H2894     1.0  0.42843  0.79080  0.42828  1.0000
  H   H2895     1.0  0.38214  0.82607  0.23626  1.0000
  C   C3639     1.0  0.48944  0.82721  0.25413  1.0000
  C   C3640     1.0  0.39241  0.85660  0.03601  1.0000
  H   H2896     1.0  0.44879  0.59999  0.02489  1.0000
  C   C3641     1.0  0.42564  0.63004  0.35909  1.0000
  C   C3642     1.0  0.41507  0.63800  0.35105  1.0000
  C   C3643     1.0  0.41698  0.64511  0.32250  1.0000
  C   C3644     1.0  0.42940  0.64415  0.30194  1.0000
  C   C3645     1.0  0.43995  0.63594  0.30981  1.0000
  C   C3646     1.0  0.43807  0.62907  0.33863  1.0000
  P   P119      1.0  0.45623  0.63482  0.28357  1.0000
  C   C3647     1.0  0.45999  0.61594  0.29302  1.0000
  C   C3648     1.0  0.45231  0.63767  0.24910  1.0000
  C   C3649     1.0  0.44868  0.62508  0.23752  1.0000
  C   C3650     1.0  0.44725  0.62764  0.20975  1.0000
  C   C3651     1.0  0.44951  0.64269  0.19327  1.0000
  C   C3652     1.0  0.45261  0.65523  0.20489  1.0000
  C   C3653     1.0  0.45400  0.65275  0.23270  1.0000
  C   C3654     1.0  0.47495  0.61412  0.28468  1.0000
  C   C3655     1.0  0.47771  0.59941  0.29098  1.0000
  C   C3656     1.0  0.46557  0.58640  0.30550  1.0000
  C   C3657     1.0  0.45064  0.58809  0.31377  1.0000
  C   C3658     1.0  0.44782  0.60277  0.30740  1.0000
  C   C3659     1.0  0.47313  0.64980  0.28094  1.0000
  C   C3660     1.0  0.47442  0.65650  0.30344  1.0000
  C   C3661     1.0  0.48731  0.66849  0.30062  1.0000
  C   C3662     1.0  0.49891  0.67396  0.27527  1.0000
  C   C3663     1.0  0.49781  0.66720  0.25299  1.0000
  C   C3664     1.0  0.48508  0.65507  0.25589  1.0000
  H   H2897     1.0  0.42413  0.62457  0.38127  1.0000
  H   H2898     1.0  0.40544  0.63865  0.36708  1.0000
  H   H2899     1.0  0.40879  0.65131  0.31633  1.0000
  H   H2900     1.0  0.43062  0.64972  0.28001  1.0000
  H   H2901     1.0  0.44615  0.62285  0.34535  1.0000
  H   H2902     1.0  0.44762  0.61334  0.24926  1.0000
  H   H2903     1.0  0.44518  0.61797  0.20052  1.0000
  H   H2904     1.0  0.44942  0.64468  0.17119  1.0000
  H   H2905     1.0  0.45470  0.66694  0.19183  1.0000
  H   H2906     1.0  0.45705  0.66266  0.24097  1.0000
  H   H2907     1.0  0.48447  0.62392  0.27263  1.0000
  H   H2908     1.0  0.48924  0.59810  0.28381  1.0000
  H   H2909     1.0  0.46768  0.57497  0.30990  1.0000
  H   H2910     1.0  0.44120  0.57797  0.32481  1.0000
  H   H2911     1.0  0.43610  0.60376  0.31342  1.0000
  H   H2912     1.0  0.46550  0.65258  0.32310  1.0000
  H   H2913     1.0  0.48824  0.67371  0.31792  1.0000
  H   H2914     1.0  0.50874  0.68348  0.27274  1.0000
  H   H2915     1.0  0.50682  0.67144  0.23334  1.0000
  H   H2916     1.0  0.48457  0.64981  0.23849  1.0000
  H   H2917     1.0  0.42188  0.73857  0.99274  1.0000
  P   P120      1.0  0.43616  0.83732  0.33544  1.0000
  C   C3665     1.0  0.44473  0.82120  0.34268  1.0000
  C   C3666     1.0  0.43621  0.80731  0.36288  1.0000
  C   C3667     1.0  0.44286  0.79486  0.36871  1.0000
  C   C3668     1.0  0.45817  0.79630  0.35507  1.0000
  C   C3669     1.0  0.46688  0.81025  0.33569  1.0000
  C   C3670     1.0  0.46028  0.82276  0.32980  1.0000
  C   C3671     1.0  0.44002  0.84785  0.36101  1.0000
  C   C3672     1.0  0.44609  0.86371  0.40142  1.0000
  C   C3673     1.0  0.43378  0.85053  0.40901  1.0000
  C   C3674     1.0  0.43077  0.84261  0.38892  1.0000
  H   H2918     1.0  0.39811  0.55613  0.38237  1.0000
  H   H2919     1.0  0.55986  0.69594  0.16093  1.0000
  H   H2920     1.0  0.42449  0.80613  0.37455  1.0000
  H   H2921     1.0  0.43622  0.78413  0.38419  1.0000
  H   H2922     1.0  0.46334  0.78667  0.35996  1.0000
  H   H2923     1.0  0.47879  0.81132  0.32551  1.0000
  H   H2924     1.0  0.46733  0.83367  0.31548  1.0000
  H   H2925     1.0  0.44821  0.87004  0.41683  1.0000
  H   H2926     1.0  0.42646  0.84645  0.43040  1.0000
  H   H2927     1.0  0.42118  0.83242  0.39519  1.0000
  C   C3675     1.0  0.46978  0.69448  0.27376  1.0000
  C   C3676     1.0  0.47771  0.70042  0.24522  1.0000
  C   C3677     1.0  0.48965  0.71393  0.23666  1.0000
  C   C3678     1.0  0.49396  0.72133  0.25661  1.0000
  C   C3679     1.0  0.48620  0.71536  0.28539  1.0000
  C   C3680     1.0  0.47398  0.70192  0.29383  1.0000
  P   P121      1.0  0.49207  0.72520  0.31069  1.0000
  C   C3681     1.0  0.50987  0.72171  0.31725  1.0000
  C   C3682     1.0  0.49457  0.74565  0.29534  1.0000
  C   C3683     1.0  0.50852  0.75643  0.29190  1.0000
  C   C3684     1.0  0.51077  0.77206  0.27818  1.0000
  C   C3685     1.0  0.49909  0.77706  0.26777  1.0000
  C   C3686     1.0  0.48515  0.76640  0.27105  1.0000
  C   C3687     1.0  0.48292  0.75074  0.28466  1.0000
  C   C3688     1.0  0.51433  0.72527  0.34084  1.0000
  C   C3689     1.0  0.52838  0.72334  0.34568  1.0000
  C   C3690     1.0  0.53803  0.71774  0.32718  1.0000
  C   C3691     1.0  0.53353  0.71384  0.30404  1.0000
  C   C3692     1.0  0.51956  0.71593  0.29888  1.0000
  C   C3693     1.0  0.47782  0.71814  0.34439  1.0000
  C   C3694     1.0  0.47635  0.70330  0.36158  1.0000
  C   C3695     1.0  0.46544  0.69762  0.38779  1.0000
  C   C3696     1.0  0.45602  0.70675  0.39714  1.0000
  C   C3697     1.0  0.45757  0.72160  0.38039  1.0000
  C   C3698     1.0  0.46849  0.72734  0.35421  1.0000
  H   H2928     1.0  0.46050  0.68401  0.28038  1.0000
  H   H2929     1.0  0.47474  0.69455  0.22964  1.0000
  H   H2930     1.0  0.49574  0.71857  0.21449  1.0000
  H   H2931     1.0  0.50345  0.73167  0.24954  1.0000
  H   H2932     1.0  0.46763  0.69711  0.31574  1.0000
  H   H2933     1.0  0.51777  0.75281  0.29954  1.0000
  H   H2934     1.0  0.52166  0.78026  0.27528  1.0000
  H   H2935     1.0  0.50096  0.78915  0.25686  1.0000
  H   H2936     1.0  0.47617  0.77024  0.26268  1.0000
  H   H2937     1.0  0.47218  0.74256  0.28660  1.0000
  H   H2938     1.0  0.50710  0.72987  0.35520  1.0000
  H   H2939     1.0  0.53192  0.72649  0.36351  1.0000
  H   H2940     1.0  0.54909  0.71660  0.33055  1.0000
  H   H2941     1.0  0.54107  0.70955  0.28971  1.0000
  H   H2942     1.0  0.51660  0.71323  0.28034  1.0000
  H   H2943     1.0  0.48371  0.69616  0.35475  1.0000
  H   H2944     1.0  0.46436  0.68622  0.40116  1.0000
  H   H2945     1.0  0.44772  0.70239  0.41764  1.0000
  H   H2946     1.0  0.45065  0.72890  0.38807  1.0000
  H   H2947     1.0  0.46983  0.73909  0.34226  1.0000
  H   H2948     1.0  0.54913  0.88613  0.18025  1.0000
  H   H2949     1.0  0.43160  0.54100  0.01058  1.0000
  H   H2950     1.0  0.57543  0.76299  0.40300  1.0000
  H   H2951     1.0  0.49026  0.97513  0.21306  1.0000
  C   C3699     1.0  0.39126  0.60281  0.20145  1.0000
  H   H2952     1.0  0.41813  0.88574  0.20836  1.0000
  C   C3700     1.0  0.52755  0.81938  0.28154  1.0000
  C   C3701     1.0  0.41569  0.83075  0.33975  1.0000
  H   H2953     1.0  0.55213  0.61517  0.01951  1.0000
  H   H2954     1.0  0.48708  0.88683  0.30801  1.0000
  H   H2955     1.0  0.41377  0.62613  0.25484  1.0000
  H   H2956     1.0  0.41038  0.85033  0.35377  1.0000
  S   S506      1.0  0.47251  0.71863  0.46451  1.0000
  H   H2957     1.0  0.47813  0.87628  0.27099  1.0000
  H   H2958     1.0  0.39623  0.91039  0.13064  1.0000
  C   C3702     1.0  0.55037  0.71567  0.08231  1.0000
  H   H2959     1.0  0.39218  0.49453  0.33782  1.0000
  C   C3703     1.0  0.53432  0.85674  0.24075  1.0000
  C   C3704     1.0  0.51434  0.97571  0.19924  1.0000
  C   C3705     1.0  0.40638  0.64878  0.44305  1.0000
  C   C3706     1.0  0.44570  0.84736  0.06472  1.0000
  C   C3707     1.0  0.49255  0.61698  0.09513  1.0000
  C   C3708     1.0  0.48304  0.60490  0.08885  1.0000
  C   C3709     1.0  0.48289  0.60558  0.06074  1.0000
  C   C3710     1.0  0.49216  0.61838  0.03895  1.0000
  C   C3711     1.0  0.50147  0.63077  0.04520  1.0000
  C   C3712     1.0  0.50174  0.62984  0.07343  1.0000
  P   P122      1.0  0.51421  0.64693  0.01712  1.0000
  C   C3713     1.0  0.53326  0.64370  0.00919  1.0000
  H   H2960     1.0  0.41492  0.83074  0.25199  1.0000
  H   H2961     1.0  0.38358  0.50631  0.08848  1.0000
  H   H2962     1.0  0.46940  0.62004  0.98869  1.0000
  C   C3714     1.0  0.45786  0.49137  0.21896  1.0000
  C   C3715     1.0  0.39455  0.59153  0.07360  1.0000
  H   H2963     1.0  0.52668  0.61737  0.15373  1.0000
  H   H2964     1.0  0.54174  0.98620  0.12898  1.0000
  H   H2965     1.0  0.38896  0.80152  0.33104  1.0000
  C   C3716     1.0  0.51548  0.66434  0.02935  1.0000
  C   C3717     1.0  0.50583  0.67415  0.02384  1.0000
  C   C3718     1.0  0.50685  0.68745  0.03371  1.0000
  C   C3719     1.0  0.51745  0.69106  0.04922  1.0000
  C   C3720     1.0  0.52718  0.68146  0.05461  1.0000
  C   C3721     1.0  0.52615  0.66811  0.04494  1.0000
  H   H2966     1.0  0.49270  0.61648  0.11690  1.0000
  H   H2967     1.0  0.47573  0.59508  0.10585  1.0000
  H   H2968     1.0  0.47554  0.59622  0.05585  1.0000
  H   H2969     1.0  0.49203  0.61860  0.01731  1.0000
  H   H2970     1.0  0.50899  0.63906  0.07882  1.0000
  C   C3722     1.0  0.38889  0.89721  0.21033  1.0000
  C   C3723     1.0  0.41749  0.71470  0.99033  1.0000
  H   H2971     1.0  0.40290  0.57296  0.00074  1.0000
  H   H2972     1.0  0.42865  0.85275  0.98849  1.0000
  H   H2973     1.0  0.38932  0.86042  0.17648  1.0000
  C   C3724     1.0  0.40571  0.98152  0.17711  1.0000
  C   C3725     1.0  0.38844  0.80823  0.05713  1.0000
  H   H2974     1.0  0.49726  0.67155  0.01248  1.0000
  H   H2975     1.0  0.39859  0.80706  0.04317  1.0000
  H   H2976     1.0  0.51780  0.70108  0.05766  1.0000
  H   H2977     1.0  0.53536  0.68418  0.06679  1.0000
  H   H2978     1.0  0.53359  0.66068  0.05006  1.0000
  H   H2979     1.0  0.44621  0.88603  0.26115  1.0000
  C   C3726     1.0  0.52152  0.80438  0.33029  1.0000
  Fe  Fe248     1.0  0.38471  0.81618  0.45486  1.0000
  H   H2980     1.0  0.57653  0.74575  0.37143  1.0000
  H   H2981     1.0  0.57267  0.86533  0.23783  1.0000
  H   H2982     1.0  0.46772  0.88082  0.08031  1.0000
  H   H2983     1.0  0.40318  0.50895  0.11483  1.0000
  C   C3727     1.0  0.58064  0.70921  0.16754  1.0000
  C   C3728     1.0  0.54805  0.85611  0.24875  1.0000
  C   C3729     1.0  0.41715  0.67447  0.44937  1.0000
  C   C3730     1.0  0.43780  0.83249  0.06528  1.0000
  C   C3731     1.0  0.41391  0.54789  0.44346  1.0000
  C   C3732     1.0  0.53554  0.62885  0.01798  1.0000
  H   H2984     1.0  0.48399  0.87006  0.10871  1.0000
  S   S507      1.0  0.45087  0.50508  0.19804  1.0000
  C   C3733     1.0  0.57408  0.78810  0.45333  1.0000
  C   C3734     1.0  0.55649  0.72462  0.12186  1.0000
  H   H2985     1.0  0.46902  0.81324  0.24823  1.0000
  S   S508      1.0  0.39292  0.63698  0.42983  1.0000
  H   H2986     1.0  0.42712  0.84903  0.12503  1.0000
  C   C3735     1.0  0.45557  0.86880  0.37384  1.0000
  C   C3736     1.0  0.57730  0.92209  0.13225  1.0000
  H   H2987     1.0  0.48625  0.86103  0.42298  1.0000
  H   H2988     1.0  0.47282  0.56079  0.06479  1.0000
  H   H2989     1.0  0.48774  0.83379  0.43858  1.0000
  C   C3737     1.0  0.42176  0.54422  0.00451  1.0000
  C   C3738     1.0  0.38994  0.83452  0.35271  1.0000
  H   H2990     1.0  0.38700  0.55552  0.98037  1.0000
  H   H2991     1.0  0.38555  0.85698  0.99699  1.0000
  H   H2992     1.0  0.51891  0.69944  0.47403  1.0000
  H   H2993     1.0  0.45929  0.84826  0.23230  1.0000
  H   H2994     1.0  0.42916  0.90541  0.42951  1.0000
  H   H2995     1.0  0.41228  0.87887  0.44099  1.0000
  Fe  Fe249     1.0  0.44955  0.79614  0.00447  1.0000
  H   H2996     1.0  0.48216  0.81146  0.20080  1.0000
  H   H2997     1.0  0.54803  0.84795  0.26789  1.0000
  H   H2998     1.0  0.42193  0.54956  0.39908  1.0000
  C   C3739     1.0  0.56250  0.87683  0.20707  1.0000
  H   H2999     1.0  0.43394  0.76683  0.45353  1.0000
  C   C3740     1.0  0.45265  0.86082  0.35375  1.0000
  H   H3000     1.0  0.41550  0.58457  0.29692  1.0000
  H   H3001     1.0  0.41751  0.56126  0.27966  1.0000
  H   H3002     1.0  0.45123  0.91030  0.45080  1.0000
  C   C3741     1.0  0.41201  0.57327  0.31181  1.0000
  H   H3003     1.0  0.52297  0.79502  0.34610  1.0000
  C   C3742     1.0  0.50512  0.83470  0.24237  1.0000
  C   C3743     1.0  0.38602  0.91178  0.20259  1.0000
  C   C3744     1.0  0.44013  0.86007  0.05488  1.0000
  H   H3004     1.0  0.40108  0.53298  0.36538  1.0000
  C   C3745     1.0  0.50616  0.85726  0.27783  1.0000
  C   C3746     1.0  0.41816  0.84292  0.04746  1.0000
  H   H3005     1.0  0.41151  0.84891  0.28203  1.0000
  H   H3006     1.0  0.50994  0.82405  0.18050  1.0000
  H   H3007     1.0  0.44127  0.88134  0.10367  1.0000
  H   H3008     1.0  0.53080  0.59259  0.14482  1.0000
  H   H3009     1.0  0.44275  0.49032  0.25874  1.0000
  C   C3747     1.0  0.39365  0.81214  0.33613  1.0000
  H   H3010     1.0  0.50230  0.83256  0.32466  1.0000
  H   H3011     1.0  0.41526  0.93164  0.13786  1.0000
  H   H3012     1.0  0.44828  0.86079  0.18455  1.0000
  P   P123      1.0  0.51596  0.84447  0.26268  1.0000
  H   H3013     1.0  0.39394  0.90228  0.26610  1.0000
  H   H3014     1.0  0.52589  0.61900  0.02921  1.0000
  C   C3748     1.0  0.43154  0.89591  0.44359  1.0000
  C   C3749     1.0  0.42320  0.54516  0.42015  1.0000
  H   H3015     1.0  0.53362  0.82138  0.25957  1.0000
  C   C3750     1.0  0.40233  0.62525  0.26737  1.0000
  C   C3751     1.0  0.51006  0.82578  0.31799  1.0000
  H   H3016     1.0  0.53721  0.97385  0.18255  1.0000
  H   H3017     1.0  0.46504  0.87910  0.36790  1.0000
  C   C3752     1.0  0.42417  0.83027  0.05654  1.0000
  C   C3753     1.0  0.51143  0.86360  0.29838  1.0000
  H   H3018     1.0  0.41293  0.87631  0.25995  1.0000
  C   C3754     1.0  0.45453  0.85283  0.24949  1.0000
  C   C3755     1.0  0.44724  0.87416  0.26565  1.0000
  H   H3019     1.0  0.43728  0.86967  0.31012  1.0000
  C   C3756     1.0  0.53008  0.87910  0.00602  1.0000
  H   H3020     1.0  0.39963  0.88406  0.13934  1.0000
  C   C3757     1.0  0.50416  0.82503  0.20099  1.0000
  C   C3758     1.0  0.57075  0.72091  0.11607  1.0000
  C   C3759     1.0  0.53827  0.61629  0.14596  1.0000
  C   C3760     1.0  0.51817  0.82896  0.28949  1.0000
  Fe  Fe250     1.0  0.39186  0.58788  0.39605  1.0000
  H   H3021     1.0  0.45016  0.83151  0.28132  1.0000
  H   H3022     1.0  0.57995  0.91007  0.01425  1.0000
  C   C3761     1.0  0.40582  0.83957  0.34909  1.0000
  C   C3762     1.0  0.48850  0.81787  0.21254  1.0000
  C   C3763     1.0  0.49432  0.86218  0.26750  1.0000
  H   H3023     1.0  0.57659  0.56734  0.07374  1.0000
  C   C3764     1.0  0.40230  0.59384  0.23998  1.0000
  C   C3765     1.0  0.43598  0.53134  0.45119  1.0000
  S   S509      1.0  0.43568  0.81160  0.98722  1.0000
  H   H3024     1.0  0.44247  0.82268  0.07185  1.0000
  C   C3766     1.0  0.53481  0.86777  0.21613  1.0000
  H   H3025     1.0  0.43830  0.92647  0.15264  1.0000
  C   C3767     1.0  0.39151  0.97837  0.17055  1.0000
  H   H3026     1.0  0.44467  0.52507  0.45357  1.0000
  H   H3027     1.0  0.40541  0.55441  0.44060  1.0000
  C   C3768     1.0  0.54885  0.87771  0.19932  1.0000
  H   H3028     1.0  0.50863  0.87899  0.32524  1.0000
  H   H3029     1.0  0.47425  0.48969  0.18294  1.0000
  C   C3769     1.0  0.48728  0.87254  0.27887  1.0000
  C   C3770     1.0  0.58139  0.76379  0.45705  1.0000
  H   H3030     1.0  0.48370  0.82778  0.27484  1.0000
  H   H3031     1.0  0.47441  0.86041  0.16076  1.0000
  C   C3771     1.0  0.42651  0.85791  0.04607  1.0000
  C   C3772     1.0  0.51175  0.81352  0.33828  1.0000
  H   H3032     1.0  0.41701  0.81045  0.32444  1.0000
  C   C3773     1.0  0.51245  0.83342  0.21579  1.0000
  C   C3774     1.0  0.40019  0.53850  0.98410  1.0000
  C   C3775     1.0  0.49235  0.87851  0.29979  1.0000
  H   H3033     1.0  0.49906  0.69470  0.03015  1.0000
  H   H3034     1.0  0.44201  0.90005  0.16191  1.0000
  C   C3776     1.0  0.50447  0.87409  0.30948  1.0000
  C   C3777     1.0  0.56637  0.68324  0.19574  1.0000
  H   H3035     1.0  0.43502  0.64812  0.47716  1.0000
  H   H3036     1.0  0.40860  0.83066  0.11108  1.0000
  C   C3778     1.0  0.48113  0.81892  0.23917  1.0000
  C   C3779     1.0  0.40446  0.83740  0.12496  1.0000
  C   C3780     1.0  0.57902  0.97374  0.10315  1.0000
  Fe  Fe251     1.0  0.44716  0.70632  0.47652  1.0000
  C   C3781     1.0  0.39371  0.85415  0.16193  1.0000
  C   C3782     1.0  0.40965  0.85659  0.15124  1.0000
  C   C3783     1.0  0.41495  0.84791  0.13298  1.0000
  P   P124      1.0  0.42293  0.87020  0.16222  1.0000
  C   C3784     1.0  0.42097  0.88983  0.15191  1.0000
  C   C3785     1.0  0.41903  0.86349  0.20029  1.0000
  C   C3786     1.0  0.41720  0.87366  0.21748  1.0000
  C   C3787     1.0  0.41426  0.86833  0.24686  1.0000
  C   C3788     1.0  0.41348  0.85289  0.25929  1.0000
  C   C3789     1.0  0.41540  0.84269  0.24236  1.0000
  C   C3790     1.0  0.41795  0.84790  0.21300  1.0000
  C   C3791     1.0  0.43202  0.90211  0.15476  1.0000
  C   C3792     1.0  0.42999  0.91714  0.14952  1.0000
  C   C3793     1.0  0.41707  0.92010  0.14097  1.0000
  C   C3794     1.0  0.40634  0.90811  0.13698  1.0000
  C   C3795     1.0  0.40828  0.89304  0.14227  1.0000
  C   C3796     1.0  0.44256  0.87066  0.14578  1.0000
  C   C3797     1.0  0.44834  0.87663  0.11634  1.0000
  C   C3798     1.0  0.46324  0.87636  0.10304  1.0000
  C   C3799     1.0  0.47248  0.87029  0.11906  1.0000
  C   C3800     1.0  0.46699  0.86473  0.14841  1.0000
  C   C3801     1.0  0.45212  0.86497  0.16180  1.0000
  H   H3037     1.0  0.50549  0.81104  0.36026  1.0000
  H   H3038     1.0  0.38239  0.84127  0.36063  1.0000
  H   H3039     1.0  0.57647  0.59389  0.07769  1.0000
  S   S510      1.0  0.41171  0.68434  0.98742  1.0000
  S   S511      1.0  0.57745  0.79020  0.29796  1.0000
  C   C3802     1.0  0.38663  0.72966  0.47423  1.0000
  H   H3040     1.0  0.57337  0.88449  0.19382  1.0000
  C   C3803     1.0  0.39464  0.82859  0.99038  1.0000
  H   H3041     1.0  0.41714  0.68655  0.44650  1.0000
  H   H3042     1.0  0.57478  0.91940  0.15506  1.0000
  H   H3043     1.0  0.39181  0.51757  0.44875  1.0000
  S   S512      1.0  0.58015  0.75497  0.29934  1.0000
  H   H3044     1.0  0.57443  0.50068  0.15694  1.0000
  H   H3045     1.0  0.38599  0.59629  0.08460  1.0000
  C   C3804     1.0  0.44700  0.88640  0.47385  1.0000
  H   H3046     1.0  0.54456  0.66780  0.98776  1.0000
  C   C3805     1.0  0.38382  0.82070  0.34658  1.0000
  H   H3047     1.0  0.39887  0.73498  0.46947  1.0000
  C   C3806     1.0  0.57694  0.68314  0.21222  1.0000
  H   H3048     1.0  0.56683  0.70539  0.06088  1.0000
  H   H3049     1.0  0.57550  0.67305  0.22939  1.0000
  C   C3807     1.0  0.38692  0.74531  0.00896  1.0000
  H   H3050     1.0  0.57807  0.78154  0.16488  1.0000
  C   C3808     1.0  0.56309  0.63918  0.99825  1.0000
  H   H3051     1.0  0.57552  0.63727  0.12838  1.0000
  C   C3809     1.0  0.56229  0.78129  0.47818  1.0000
  C   C3810     1.0  0.54606  0.65624  0.99469  1.0000
  C   C3811     1.0  0.38714  0.53771  0.12971  1.0000
  H   H3052     1.0  0.57706  0.77844  0.11717  1.0000
  H   H3053     1.0  0.38481  0.82742  0.28414  1.0000
  C   C3812     1.0  0.39668  0.55235  0.98720  1.0000
  C   C3813     1.0  0.57955  0.77096  0.15937  1.0000
  H   H3054     1.0  0.38324  0.82266  0.00397  1.0000
  H   H3055     1.0  0.38963  0.70661  0.47778  1.0000
  H   H3056     1.0  0.38242  0.57823  0.15793  1.0000
  C   C3814     1.0  0.57339  0.49017  0.28831  1.0000
  H   H3057     1.0  0.58057  0.63824  0.07641  1.0000
  H   H3058     1.0  0.57793  0.81679  0.33816  1.0000
  H   H3059     1.0  0.57084  0.86587  0.99575  1.0000
  C   C3815     1.0  0.57380  0.88767  0.00667  1.0000
  C   C3816     1.0  0.38327  0.84394  0.15330  1.0000
  C   C3817     1.0  0.39007  0.59816  0.23049  1.0000
  H   H3060     1.0  0.38244  0.87310  0.21094  1.0000
  H   H3061     1.0  0.38782  0.54586  0.14259  1.0000
  C   C3818     1.0  0.50687  0.64927  0.98591  1.0000
  C   C3819     1.0  0.57897  0.76919  0.13256  1.0000
  C   C3820     1.0  0.57875  0.87689  0.99334  1.0000
  C   C3821     1.0  0.39784  0.61754  0.29611  1.0000
  Fe  Fe252     1.0  0.38319  0.57705  0.45987  1.0000
  C   C3822     1.0  0.56091  0.65397  0.98928  1.0000
  H   H3062     1.0  0.58106  0.59924  0.17466  1.0000
  C   C3823     1.0  0.39203  0.63177  0.25482  1.0000
  C   C3824     1.0  0.58054  0.75539  0.12578  1.0000
  C   C3825     1.0  0.58180  0.75896  0.17928  1.0000
  H   H3063     1.0  0.38265  0.51539  0.35345  1.0000
  C   C3826     1.0  0.38312  0.61640  0.31245  1.0000
  C   C3827     1.0  0.58180  0.57187  0.08887  1.0000
  C   C3828     1.0  0.58172  0.58687  0.09121  1.0000
  C   C3829     1.0  0.38219  0.89782  0.27909  1.0000
  C   C3830     1.0  0.53060  0.85978  0.97957  1.0000
  S   S513      1.0  0.56921  0.77988  0.64317  1.0000
  Fe  Fe253     1.0  0.54874  0.78074  0.58183  1.0000
  S   S514      1.0  0.53690  0.76689  0.62646  1.0000
  S   S515      1.0  0.53700  0.78138  0.54543  1.0000
  Fe  Fe254     1.0  0.54805  0.78797  0.63869  1.0000
  S   S516      1.0  0.53413  0.79488  0.67475  1.0000
  Fe  Fe255     1.0  0.55919  0.76031  0.62659  1.0000
  S   S517      1.0  0.56367  0.73705  0.64208  1.0000
  S   S518      1.0  0.55863  0.80254  0.59385  1.0000
  S   S519      1.0  0.57050  0.77283  0.58113  1.0000
  C   C3831     1.0  0.47430  0.67572  0.52512  1.0000
  C   C3832     1.0  0.38660  0.62561  0.80075  1.0000
  H   H3064     1.0  0.49967  0.75926  0.49706  1.0000
  Fe  Fe256     1.0  0.43698  0.93292  0.62444  1.0000
  S   S520      1.0  0.43609  0.91661  0.66550  1.0000
  S   S521      1.0  0.44253  0.95913  0.62191  1.0000
  Fe  Fe257     1.0  0.42324  0.90512  0.60104  1.0000
  S   S522      1.0  0.42186  0.88738  0.64086  1.0000
  S   S523      1.0  0.41683  0.89867  0.56187  1.0000
  Fe  Fe258     1.0  0.41290  0.90385  0.66352  1.0000
  H   H3065     1.0  0.45597  0.72818  0.93221  1.0000
  Fe  Fe259     1.0  0.44521  0.90174  0.63921  1.0000
  S   S524      1.0  0.46417  0.88977  0.64569  1.0000
  S   S525      1.0  0.41284  0.92093  0.62410  1.0000
  S   S526      1.0  0.44751  0.91866  0.59769  1.0000
  Fe  Fe260     1.0  0.44433  0.53488  0.63049  1.0000
  S   S527      1.0  0.43584  0.53069  0.67743  1.0000
  S   S528      1.0  0.45969  0.52240  0.60759  1.0000
  Fe  Fe261     1.0  0.42602  0.55846  0.61766  1.0000
  S   S529      1.0  0.41592  0.55616  0.66364  1.0000
  S   S530      1.0  0.42259  0.57704  0.58331  1.0000
  Fe  Fe262     1.0  0.43971  0.55650  0.66875  1.0000
  S   S531      1.0  0.44616  0.56921  0.70066  1.0000
  Fe  Fe263     1.0  0.41265  0.53058  0.66929  1.0000
  H   H3066     1.0  0.44807  0.52909  0.55038  1.0000
  S   S532      1.0  0.45024  0.56087  0.62222  1.0000
  S   S533      1.0  0.42076  0.53271  0.62278  1.0000
  H   H3067     1.0  0.52264  0.67504  0.50162  1.0000
  C   C3833     1.0  0.41451  0.67807  0.88455  1.0000
  C   C3834     1.0  0.42988  0.67790  0.87487  1.0000
  C   C3835     1.0  0.40649  0.63586  0.53805  1.0000
  S   S534      1.0  0.44294  0.71486  0.51595  1.0000
  H   H3068     1.0  0.41998  0.56678  0.76228  1.0000
  Fe  Fe264     1.0  0.46779  0.72884  0.50178  1.0000
  S   S535      1.0  0.48198  0.72864  0.53481  1.0000
  C   C3836     1.0  0.57421  0.61839  0.82922  1.0000
  H   H3069     1.0  0.52878  0.65246  0.95599  1.0000
  C   C3837     1.0  0.40274  0.66684  0.88107  1.0000
  H   H3070     1.0  0.49544  0.55877  0.61902  1.0000
  Fe  Fe265     1.0  0.51420  0.88643  0.75053  1.0000
  S   S536      1.0  0.51411  0.86158  0.75322  1.0000
  S   S537      1.0  0.49317  0.89540  0.74893  1.0000
  Fe  Fe266     1.0  0.54753  0.89560  0.75366  1.0000
  S   S538      1.0  0.55014  0.87146  0.75678  1.0000
  S   S539      1.0  0.56879  0.91469  0.74785  1.0000
  Fe  Fe267     1.0  0.53754  0.87120  0.72293  1.0000
  S   S540      1.0  0.54686  0.86443  0.68321  1.0000
  Fe  Fe268     1.0  0.52658  0.86392  0.78691  1.0000
  S   S541      1.0  0.52135  0.84432  0.82621  1.0000
  S   S542      1.0  0.53659  0.89605  0.71735  1.0000
  S   S543      1.0  0.52495  0.88816  0.78672  1.0000
  Fe  Fe269     1.0  0.51453  0.65765  0.72734  1.0000
  S   S544      1.0  0.53240  0.64796  0.70479  1.0000
  S   S545      1.0  0.50785  0.67886  0.70686  1.0000
  Fe  Fe270     1.0  0.50581  0.63142  0.78058  1.0000
  S   S546      1.0  0.52313  0.61937  0.76228  1.0000
  S   S547      1.0  0.48895  0.62022  0.82374  1.0000
  Fe  Fe271     1.0  0.53922  0.64328  0.74586  1.0000
  S   S548      1.0  0.56507  0.64783  0.74012  1.0000
  Fe  Fe272     1.0  0.51502  0.62496  0.72277  1.0000
  S   S549      1.0  0.51256  0.60932  0.69338  1.0000
  S   S550      1.0  0.52258  0.65495  0.76717  1.0000
  S   S551      1.0  0.49649  0.63502  0.74215  1.0000
  C   C3838     1.0  0.40492  0.93676  0.70450  1.0000
  S   S552      1.0  0.42941  0.78892  0.94513  1.0000
  H   H3071     1.0  0.46953  0.81615  0.48257  1.0000
  P   P125      1.0  0.51744  0.85911  0.93418  1.0000
  Fe  Fe273     1.0  0.44754  0.80957  0.94473  1.0000
  S   S553      1.0  0.45491  0.83110  0.90821  1.0000
  H   H3072     1.0  0.48364  0.57196  0.76162  1.0000
  H   H3073     1.0  0.56548  0.49883  0.55116  1.0000
  P   P126      1.0  0.42886  0.52730  0.51007  1.0000
  C   C3839     1.0  0.39580  0.55277  0.54378  1.0000
  C   C3840     1.0  0.45064  0.62125  0.51701  1.0000
  Fe  Fe274     1.0  0.44514  0.65437  0.93784  1.0000
  S   S554      1.0  0.46370  0.66329  0.89663  1.0000
  S   S555      1.0  0.42034  0.65470  0.94103  1.0000
  H   H3074     1.0  0.41716  0.54619  0.73768  1.0000
  C   C3841     1.0  0.45290  0.56786  0.54038  1.0000
  C   C3842     1.0  0.46822  0.65965  0.53437  1.0000
  C   C3843     1.0  0.45552  0.62348  0.54101  1.0000
  H   H3075     1.0  0.42475  0.63372  0.90060  1.0000
  C   C3844     1.0  0.48264  0.63219  0.84480  1.0000
  C   C3845     1.0  0.48857  0.64828  0.83619  1.0000
  C   C3846     1.0  0.48266  0.65763  0.85236  1.0000
  C   C3847     1.0  0.47098  0.65098  0.87753  1.0000
  C   C3848     1.0  0.46536  0.63485  0.88668  1.0000
  C   C3849     1.0  0.47108  0.62549  0.87023  1.0000
  H   H3076     1.0  0.49749  0.65359  0.81675  1.0000
  H   H3077     1.0  0.48711  0.67009  0.84522  1.0000
  H   H3078     1.0  0.45651  0.62964  0.90624  1.0000
  H   H3079     1.0  0.46641  0.61307  0.87698  1.0000
  C   C3850     1.0  0.39598  0.62182  0.55356  1.0000
  C   C3851     1.0  0.50104  0.87771  0.90736  1.0000
  C   C3852     1.0  0.46869  0.61891  0.54592  1.0000
  C   C3853     1.0  0.50314  0.84096  0.84959  1.0000
  C   C3854     1.0  0.49472  0.85215  0.84758  1.0000
  C   C3855     1.0  0.48009  0.84912  0.86609  1.0000
  C   C3856     1.0  0.47366  0.83483  0.88635  1.0000
  C   C3857     1.0  0.48214  0.82369  0.88846  1.0000
  C   C3858     1.0  0.49690  0.82680  0.87025  1.0000
  H   H3080     1.0  0.49946  0.86314  0.83180  1.0000
  H   H3081     1.0  0.47377  0.85788  0.86471  1.0000
  H   H3082     1.0  0.47728  0.81258  0.90376  1.0000
  H   H3083     1.0  0.50332  0.81806  0.87174  1.0000
  C   C3859     1.0  0.56153  0.91861  0.80200  1.0000
  H   H3084     1.0  0.55051  0.91056  0.80546  1.0000
  H   H3085     1.0  0.57513  0.57956  0.71562  1.0000
  H   H3086     1.0  0.48839  0.89180  0.88630  1.0000
  C   C3860     1.0  0.47378  0.97061  0.61852  1.0000
  C   C3861     1.0  0.56598  0.50762  0.69256  1.0000
  C   C3862     1.0  0.53767  0.69888  0.76243  1.0000
  C   C3863     1.0  0.54739  0.87649  0.90418  1.0000
  H   H3087     1.0  0.39107  0.91071  0.80116  1.0000
  C   C3864     1.0  0.50448  0.80558  0.95911  1.0000
  H   H3088     1.0  0.54711  0.73214  0.59328  1.0000
  H   H3089     1.0  0.49144  0.80290  0.82049  1.0000
  C   C3865     1.0  0.41178  0.57192  0.55977  1.0000
  C   C3866     1.0  0.41110  0.58352  0.53693  1.0000
  C   C3867     1.0  0.40284  0.57974  0.51748  1.0000
  C   C3868     1.0  0.39514  0.56433  0.52092  1.0000
  C   C3869     1.0  0.44457  0.57063  0.52026  1.0000
  C   C3870     1.0  0.40413  0.55653  0.56310  1.0000
  H   H3090     1.0  0.41704  0.59545  0.53417  1.0000
  H   H3091     1.0  0.39306  0.51076  0.60555  1.0000
  H   H3092     1.0  0.40453  0.54754  0.58066  1.0000
  H   H3093     1.0  0.48514  0.68062  0.50922  1.0000
  C   C3871     1.0  0.46465  0.58077  0.69715  1.0000
  C   C3872     1.0  0.47746  0.58118  0.67603  1.0000
  C   C3873     1.0  0.49212  0.59006  0.67495  1.0000
  C   C3874     1.0  0.49400  0.59864  0.69480  1.0000
  C   C3875     1.0  0.48112  0.59844  0.71553  1.0000
  C   C3876     1.0  0.46653  0.58948  0.71675  1.0000
  H   H3094     1.0  0.47611  0.57448  0.66086  1.0000
  H   H3095     1.0  0.50205  0.59027  0.65879  1.0000
  H   H3096     1.0  0.48245  0.60495  0.73094  1.0000
  H   H3097     1.0  0.45664  0.58920  0.73309  1.0000
  C   C3877     1.0  0.40500  0.88222  0.55552  1.0000
  C   C3878     1.0  0.39629  0.86909  0.57721  1.0000
  H   H3098     1.0  0.44294  0.58210  0.51313  1.0000
  C   C3879     1.0  0.46740  0.60883  0.95529  1.0000
  C   C3880     1.0  0.45898  0.97303  0.62339  1.0000
  C   C3881     1.0  0.40430  0.88247  0.52755  1.0000
  H   H3099     1.0  0.39663  0.86864  0.59883  1.0000
  H   H3100     1.0  0.55530  0.65339  0.79578  1.0000
  C   C3882     1.0  0.47199  0.89125  0.67475  1.0000
  C   C3883     1.0  0.46624  0.89891  0.69435  1.0000
  C   C3884     1.0  0.47272  0.89998  0.71719  1.0000
  C   C3885     1.0  0.48501  0.89342  0.72057  1.0000
  C   C3886     1.0  0.49071  0.88562  0.70118  1.0000
  C   C3887     1.0  0.48420  0.88456  0.67835  1.0000
  H   H3101     1.0  0.45683  0.90405  0.69194  1.0000
  H   H3102     1.0  0.46827  0.90602  0.73213  1.0000
  H   H3103     1.0  0.50027  0.88062  0.70352  1.0000
  H   H3104     1.0  0.48888  0.87883  0.66315  1.0000
  C   C3888     1.0  0.48270  0.80927  0.81951  1.0000
  H   H3105     1.0  0.50145  0.53815  0.59668  1.0000
  H   H3106     1.0  0.52898  0.56707  0.72955  1.0000
  H   H3107     1.0  0.38975  0.54088  0.54664  1.0000
  C   C3889     1.0  0.44842  0.63382  0.61910  1.0000
  C   C3890     1.0  0.57510  0.65263  0.76498  1.0000
  C   C3891     1.0  0.47076  0.51255  0.62619  1.0000
  C   C3892     1.0  0.47141  0.51373  0.65331  1.0000
  C   C3893     1.0  0.48057  0.50600  0.66742  1.0000
  H   H3108     1.0  0.52202  0.80854  0.71808  1.0000
  H   H3109     1.0  0.46508  0.52078  0.66324  1.0000
  C   C3894     1.0  0.43976  0.73534  0.96114  1.0000
  C   C3895     1.0  0.47169  0.60971  0.50363  1.0000
  H   H3110     1.0  0.39220  0.60032  0.58505  1.0000
  C   C3896     1.0  0.44184  0.86239  0.74226  1.0000
  H   H3111     1.0  0.47546  0.95988  0.61409  1.0000
  C   C3897     1.0  0.52157  0.76663  0.54309  1.0000
  C   C3898     1.0  0.51594  0.76878  0.51875  1.0000
  C   C3899     1.0  0.50378  0.75741  0.51596  1.0000
  C   C3900     1.0  0.49705  0.74367  0.53751  1.0000
  C   C3901     1.0  0.50270  0.74154  0.56184  1.0000
  C   C3902     1.0  0.51487  0.75288  0.56461  1.0000
  H   H3112     1.0  0.52102  0.77931  0.50189  1.0000
  P   P127      1.0  0.44180  0.85536  0.50317  1.0000
  H   H3113     1.0  0.49757  0.73107  0.57880  1.0000
  H   H3114     1.0  0.51899  0.75100  0.58350  1.0000
  C   C3903     1.0  0.54802  0.72117  0.66092  1.0000
  C   C3904     1.0  0.53288  0.72260  0.66562  1.0000
  C   C3905     1.0  0.52060  0.70956  0.67998  1.0000
  C   C3906     1.0  0.52343  0.69510  0.68975  1.0000
  C   C3907     1.0  0.53859  0.69372  0.68537  1.0000
  C   C3908     1.0  0.55085  0.70672  0.67080  1.0000
  H   H3115     1.0  0.53061  0.73370  0.65804  1.0000
  H   H3116     1.0  0.50890  0.71070  0.68357  1.0000
  H   H3117     1.0  0.54089  0.68265  0.69306  1.0000
  H   H3118     1.0  0.56255  0.70559  0.66716  1.0000
  C   C3909     1.0  0.53832  0.81415  0.67742  1.0000
  C   C3910     1.0  0.54905  0.82604  0.65582  1.0000
  C   C3911     1.0  0.55161  0.84140  0.65801  1.0000
  C   C3912     1.0  0.54364  0.84494  0.68190  1.0000
  C   C3913     1.0  0.53303  0.83304  0.70366  1.0000
  C   C3914     1.0  0.53035  0.81769  0.70135  1.0000
  H   H3119     1.0  0.55522  0.82343  0.63730  1.0000
  H   H3120     1.0  0.55979  0.85058  0.64108  1.0000
  C   C3915     1.0  0.47588  0.83369  0.80732  1.0000
  H   H3121     1.0  0.44960  0.64615  0.61256  1.0000
  C   C3916     1.0  0.57513  0.98226  0.82653  1.0000
  C   C3917     1.0  0.47223  0.85808  0.93777  1.0000
  C   C3918     1.0  0.43873  0.54333  0.52108  1.0000
  C   C3919     1.0  0.44721  0.54066  0.54128  1.0000
  C   C3920     1.0  0.45431  0.55290  0.55071  1.0000
  H   H3122     1.0  0.49794  0.98042  0.61356  1.0000
  C   C3921     1.0  0.57284  0.60838  0.72577  1.0000
  C   C3922     1.0  0.53102  0.86688  0.87609  1.0000
  C   C3923     1.0  0.46615  0.68556  0.53562  1.0000
  C   C3924     1.0  0.48902  0.49696  0.65464  1.0000
  C   C3925     1.0  0.51667  0.65194  0.95884  1.0000
  H   H3123     1.0  0.42007  0.49313  0.52781  1.0000
  H   H3124     1.0  0.43444  0.84572  0.87039  1.0000
  H   H3125     1.0  0.47079  0.69802  0.52806  1.0000
  C   C3926     1.0  0.45604  0.51765  0.50145  1.0000
  H   H3126     1.0  0.46058  0.55069  0.56664  1.0000
  C   C3927     1.0  0.57679  0.97888  0.80029  1.0000
  S   S556      1.0  0.46272  0.79561  0.96178  1.0000
  H   H3127     1.0  0.42561  0.95380  0.67905  1.0000
  H   H3128     1.0  0.54178  0.53909  0.73237  1.0000
  C   C3928     1.0  0.46019  0.97506  0.69703  1.0000
  H   H3129     1.0  0.56349  0.50901  0.59362  1.0000
  C   C3929     1.0  0.52180  0.97447  0.67950  1.0000
  H   H3130     1.0  0.51170  0.98514  0.64763  1.0000
  C   C3930     1.0  0.50015  0.86394  0.92730  1.0000
  H   H3131     1.0  0.38468  0.61888  0.54974  1.0000
  C   C3931     1.0  0.56316  0.61681  0.81382  1.0000
  H   H3132     1.0  0.43756  0.67188  0.79890  1.0000
  H   H3133     1.0  0.41195  0.97345  0.66344  1.0000
  H   H3134     1.0  0.41798  0.60654  0.59292  1.0000
  H   H3135     1.0  0.47344  0.65068  0.96673  1.0000
  C   C3932     1.0  0.52182  0.98574  0.65563  1.0000
  H   H3136     1.0  0.49912  0.83118  0.79897  1.0000
  H   H3137     1.0  0.45401  0.82460  0.76806  1.0000
  C   C3933     1.0  0.38575  0.54715  0.88851  1.0000
  C   C3934     1.0  0.38885  0.55179  0.85900  1.0000
  H   H3138     1.0  0.56079  0.59862  0.65623  1.0000
  C   C3935     1.0  0.47320  0.87153  0.91733  1.0000
  H   H3139     1.0  0.44546  0.66645  0.85483  1.0000
  C   C3936     1.0  0.42836  0.62450  0.86392  1.0000
  C   C3937     1.0  0.42649  0.62387  0.89272  1.0000
  C   C3938     1.0  0.42678  0.61037  0.91182  1.0000
  C   C3939     1.0  0.42915  0.59750  0.90232  1.0000
  C   C3940     1.0  0.43101  0.59803  0.87371  1.0000
  C   C3941     1.0  0.43038  0.61137  0.85467  1.0000
  C   C3942     1.0  0.44445  0.65068  0.81216  1.0000
  C   C3943     1.0  0.44652  0.66583  0.79559  1.0000
  C   C3944     1.0  0.46028  0.67339  0.77492  1.0000
  C   C3945     1.0  0.47213  0.66596  0.77076  1.0000
  C   C3946     1.0  0.47019  0.65098  0.78722  1.0000
  C   C3947     1.0  0.45647  0.64336  0.80790  1.0000
  H   H3140     1.0  0.39837  0.61656  0.86074  1.0000
  H   H3141     1.0  0.42520  0.60992  0.93405  1.0000
  H   H3142     1.0  0.42944  0.58713  0.91719  1.0000
  H   H3143     1.0  0.43280  0.58805  0.86627  1.0000
  H   H3144     1.0  0.43148  0.61149  0.83271  1.0000
  H   H3145     1.0  0.46192  0.68512  0.76239  1.0000
  H   H3146     1.0  0.48293  0.67191  0.75517  1.0000
  H   H3147     1.0  0.47956  0.64543  0.78470  1.0000
  H   H3148     1.0  0.45565  0.63201  0.82089  1.0000
  C   C3948     1.0  0.49855  0.93271  0.64135  1.0000
  C   C3949     1.0  0.50644  0.92146  0.64831  1.0000
  C   C3950     1.0  0.51427  0.92185  0.66944  1.0000
  C   C3951     1.0  0.51390  0.93327  0.68412  1.0000
  C   C3952     1.0  0.50544  0.94423  0.67805  1.0000
  C   C3953     1.0  0.49828  0.94422  0.65578  1.0000
  P   P128      1.0  0.50474  0.95891  0.69714  1.0000
  C   C3954     1.0  0.50395  0.95159  0.73397  1.0000
  C   C3955     1.0  0.56007  0.76581  0.49255  1.0000
  C   C3956     1.0  0.53532  0.97515  0.68873  1.0000
  C   C3957     1.0  0.44486  0.60847  0.61007  1.0000
  H   H3149     1.0  0.44468  0.58969  0.64462  1.0000
  H   H3150     1.0  0.58068  0.55958  0.66088  1.0000
  C   C3958     1.0  0.54406  0.71210  0.73974  1.0000
  C   C3959     1.0  0.50876  0.96186  0.74962  1.0000
  C   C3960     1.0  0.50809  0.95624  0.77822  1.0000
  C   C3961     1.0  0.50246  0.94038  0.79144  1.0000
  C   C3962     1.0  0.49729  0.93017  0.77615  1.0000
  C   C3963     1.0  0.49779  0.93578  0.74766  1.0000
  C   C3964     1.0  0.48728  0.96526  0.69749  1.0000
  C   C3965     1.0  0.47347  0.95459  0.69956  1.0000
  C   C3966     1.0  0.46004  0.95953  0.69888  1.0000
  H   H3151     1.0  0.39322  0.53094  0.97491  1.0000
  C   C3967     1.0  0.48550  0.65094  0.96454  1.0000
  C   C3968     1.0  0.41389  0.76127  0.48842  1.0000
  H   H3152     1.0  0.49245  0.93237  0.62499  1.0000
  H   H3153     1.0  0.39183  0.62556  0.92503  1.0000
  H   H3154     1.0  0.52029  0.91304  0.67495  1.0000
  H   H3155     1.0  0.51995  0.93331  0.70055  1.0000
  C   C3969     1.0  0.44799  0.58437  0.96886  1.0000
  C   C3970     1.0  0.38938  0.95900  0.68715  1.0000
  C   C3971     1.0  0.51087  0.65408  0.93489  1.0000
  H   H3156     1.0  0.48119  0.50715  0.68823  1.0000
  H   H3157     1.0  0.52537  0.69548  0.77207  1.0000
  H   H3158     1.0  0.44825  0.85899  0.70065  1.0000
  H   H3159     1.0  0.51297  0.97420  0.73973  1.0000
  H   H3160     1.0  0.51194  0.96420  0.79012  1.0000
  H   H3161     1.0  0.50204  0.93600  0.81354  1.0000
  H   H3162     1.0  0.49288  0.91787  0.78626  1.0000
  H   H3163     1.0  0.49334  0.92775  0.73639  1.0000
  H   H3164     1.0  0.47312  0.94249  0.70109  1.0000
  H   H3165     1.0  0.44961  0.95138  0.69917  1.0000
  Fe  Fe275     1.0  0.41465  0.63145  0.97243  1.0000
  H   H3166     1.0  0.54444  0.51413  0.75876  1.0000
  H   H3167     1.0  0.39318  0.75909  0.52004  1.0000
  C   C3972     1.0  0.44397  0.59413  0.78963  1.0000
  C   C3973     1.0  0.44536  0.60963  0.77645  1.0000
  C   C3974     1.0  0.43230  0.61448  0.77225  1.0000
  C   C3975     1.0  0.41784  0.60382  0.78100  1.0000
  C   C3976     1.0  0.41639  0.58814  0.79377  1.0000
  C   C3977     1.0  0.42955  0.58343  0.79835  1.0000
  P   P129      1.0  0.39778  0.57421  0.80661  1.0000
  C   C3978     1.0  0.39662  0.55861  0.78950  1.0000
  C   C3979     1.0  0.39456  0.56756  0.84449  1.0000
  C   C3980     1.0  0.39739  0.57852  0.85991  1.0000
  H   H3168     1.0  0.41845  0.52185  0.57152  1.0000
  H   H3169     1.0  0.51813  0.52218  0.61438  1.0000
  C   C3981     1.0  0.56884  0.96343  0.71775  1.0000
  H   H3170     1.0  0.54941  0.87767  0.92424  1.0000
  C   C3982     1.0  0.40912  0.55808  0.76844  1.0000
  C   C3983     1.0  0.40757  0.54644  0.75422  1.0000
  C   C3984     1.0  0.56115  0.49368  0.68536  1.0000
  C   C3985     1.0  0.40865  0.51754  0.56398  1.0000
  H   H3171     1.0  0.39185  0.58834  0.75341  1.0000
  H   H3172     1.0  0.53420  0.84959  0.97605  1.0000
  C   C3986     1.0  0.45726  0.49085  0.51274  1.0000
  S   S557      1.0  0.44770  0.66638  0.97219  1.0000
  H   H3173     1.0  0.56985  0.68643  0.76621  1.0000
  S   S558      1.0  0.43937  0.63052  0.96661  1.0000
  C   C3987     1.0  0.57287  0.55676  0.74093  1.0000
  H   H3174     1.0  0.45412  0.59042  0.79302  1.0000
  H   H3175     1.0  0.45657  0.61789  0.76969  1.0000
  H   H3176     1.0  0.43339  0.62655  0.76229  1.0000
  H   H3177     1.0  0.40788  0.60790  0.77794  1.0000
  H   H3178     1.0  0.42864  0.57145  0.80864  1.0000
  H   H3179     1.0  0.40153  0.59075  0.84922  1.0000
  H   H3180     1.0  0.56781  0.74503  0.49317  1.0000
  H   H3181     1.0  0.38724  0.79948  0.88671  1.0000
  H   H3182     1.0  0.40239  0.58873  0.49993  1.0000
  H   H3183     1.0  0.55012  0.49088  0.68048  1.0000
  H   H3184     1.0  0.52011  0.86054  0.87432  1.0000
  C   C3988     1.0  0.41165  0.64236  0.79568  1.0000
  H   H3185     1.0  0.47624  0.61794  0.93918  1.0000
  C   C3989     1.0  0.41475  0.48918  0.66951  1.0000
  H   H3186     1.0  0.56796  0.81920  0.82339  1.0000
  C   C3990     1.0  0.39880  0.62253  0.83936  1.0000
  C   C3991     1.0  0.43693  0.70875  0.95680  1.0000
  C   C3992     1.0  0.57602  0.65780  0.81035  1.0000
  H   H3187     1.0  0.44218  0.57449  0.96295  1.0000
  H   H3188     1.0  0.55861  0.51547  0.69319  1.0000
  C   C3993     1.0  0.57908  0.49213  0.78165  1.0000
  C   C3994     1.0  0.48703  0.82525  0.80749  1.0000
  C   C3995     1.0  0.56759  0.65456  0.79079  1.0000
  H   H3189     1.0  0.52676  0.83568  0.72205  1.0000
  C   C3996     1.0  0.52114  0.53345  0.64727  1.0000
  H   H3190     1.0  0.47783  0.60427  0.48931  1.0000
  H   H3191     1.0  0.54212  0.67950  0.78958  1.0000
  H   H3192     1.0  0.42947  0.77130  0.90126  1.0000
  H   H3193     1.0  0.57319  0.97302  0.84551  1.0000
  C   C3997     1.0  0.46966  0.49703  0.75342  1.0000
  H   H3194     1.0  0.43667  0.50322  0.71824  1.0000
  H   H3195     1.0  0.38721  0.80601  0.54628  1.0000
  C   C3998     1.0  0.54284  0.87430  0.85149  1.0000
  H   H3196     1.0  0.55088  0.76062  0.51182  1.0000
  H   H3197     1.0  0.38400  0.88065  0.66423  1.0000
  C   C3999     1.0  0.45717  0.98727  0.62854  1.0000
  H   H3198     1.0  0.53671  0.71888  0.73164  1.0000
  Fe  Fe276     1.0  0.42256  0.66513  0.97749  1.0000
  H   H3199     1.0  0.57503  0.63879  0.67086  1.0000
  H   H3200     1.0  0.44310  0.60095  0.59631  1.0000
  H   H3201     1.0  0.57043  0.55123  0.72467  1.0000
  C   C4000     1.0  0.51631  0.50055  0.72865  1.0000
  S   S559      1.0  0.38484  0.55893  0.49686  1.0000
  H   H3202     1.0  0.56751  0.80394  0.52169  1.0000
  H   H3203     1.0  0.49228  0.95296  0.64977  1.0000
  C   C4001     1.0  0.40082  0.76597  0.49989  1.0000
  C   C4002     1.0  0.55182  0.82644  0.80114  1.0000
  C   C4003     1.0  0.54954  0.83287  0.77489  1.0000
  C   C4004     1.0  0.56182  0.83762  0.75060  1.0000
  C   C4005     1.0  0.42467  0.83950  0.51731  1.0000
  H   H3204     1.0  0.39082  0.66675  0.88920  1.0000
  C   C4006     1.0  0.54466  0.94781  0.76561  1.0000
  C   C4007     1.0  0.51555  0.53123  0.62408  1.0000
  H   H3205     1.0  0.50936  0.48975  0.72728  1.0000
  H   H3206     1.0  0.39436  0.87056  0.49980  1.0000
  H   H3207     1.0  0.57637  0.96707  0.79932  1.0000
  C   C4008     1.0  0.52703  0.50034  0.74485  1.0000
  H   H3208     1.0  0.56441  0.72630  0.70865  1.0000
  C   C4009     1.0  0.40165  0.82530  0.55469  1.0000
  H   H3209     1.0  0.40468  0.49375  0.67015  1.0000
  C   C4010     1.0  0.41329  0.83360  0.94545  1.0000
  H   H3210     1.0  0.43059  0.72526  0.89605  1.0000
  H   H3211     1.0  0.39636  0.58245  0.90108  1.0000
  C   C4011     1.0  0.55986  0.71628  0.72672  1.0000
  H   H3212     1.0  0.53548  0.94156  0.78434  1.0000
  H   H3213     1.0  0.51848  0.65624  0.91402  1.0000
  H   H3214     1.0  0.54229  0.82299  0.81996  1.0000
  H   H3215     1.0  0.53825  0.83430  0.77344  1.0000
  H   H3216     1.0  0.55977  0.84249  0.73040  1.0000
  H   H3217     1.0  0.44128  0.70051  0.94684  1.0000
  C   C4012     1.0  0.38674  0.85668  0.57102  1.0000
  C   C4013     1.0  0.44525  0.72444  0.94853  1.0000
  C   C4014     1.0  0.42404  0.73345  0.90085  1.0000
  H   H3218     1.0  0.43873  0.87309  0.73475  1.0000
  C   C4015     1.0  0.42125  0.63944  0.54229  1.0000
  H   H3219     1.0  0.52828  0.52623  0.65481  1.0000
  H   H3220     1.0  0.44553  0.68705  0.56327  1.0000
  H   H3221     1.0  0.56631  0.80143  0.68127  1.0000
  H   H3222     1.0  0.41088  0.92794  0.71035  1.0000
  C   C4016     1.0  0.57808  0.81906  0.69746  1.0000
  C   C4017     1.0  0.56739  0.96911  0.74190  1.0000
  H   H3223     1.0  0.49026  0.54287  0.70558  1.0000
  C   C4018     1.0  0.50270  0.55178  0.62682  1.0000
  H   H3224     1.0  0.45671  0.88873  0.48289  1.0000
  C   C4019     1.0  0.53320  0.86782  0.90268  1.0000
  C   C4020     1.0  0.40546  0.96240  0.67801  1.0000
  C   C4021     1.0  0.40814  0.72834  0.91281  1.0000
  C   C4022     1.0  0.40750  0.75434  0.91607  1.0000
  C   C4023     1.0  0.54422  0.71976  0.59538  1.0000
  C   C4024     1.0  0.54709  0.68987  0.77223  1.0000
  C   C4025     1.0  0.45382  0.65331  0.55413  1.0000
  Fe  Fe277     1.0  0.43804  0.73554  0.48905  1.0000
  H   H3225     1.0  0.55292  0.96584  0.78400  1.0000
  H   H3226     1.0  0.44410  0.75273  0.88852  1.0000
  C   C4026     1.0  0.42396  0.84330  0.95449  1.0000
  Fe  Fe278     1.0  0.44355  0.77477  0.96583  1.0000
  C   C4027     1.0  0.56494  0.92527  0.82364  1.0000
  C   C4028     1.0  0.51765  0.88000  0.96764  1.0000
  H   H3227     1.0  0.38729  0.78276  0.49413  1.0000
  H   H3228     1.0  0.45548  0.83450  0.71749  1.0000
  H   H3229     1.0  0.45777  0.57720  0.54869  1.0000
  C   C4029     1.0  0.44086  0.85681  0.77101  1.0000
  C   C4030     1.0  0.44615  0.62443  0.60061  1.0000
  C   C4031     1.0  0.58047  0.57119  0.78202  1.0000
  C   C4032     1.0  0.42339  0.75941  0.90390  1.0000
  C   C4033     1.0  0.38660  0.60293  0.95381  1.0000
  H   H3230     1.0  0.38660  0.75738  0.88615  1.0000
  C   C4034     1.0  0.46468  0.50664  0.50255  1.0000
  H   H3231     1.0  0.40835  0.54448  0.48845  1.0000
  C   C4035     1.0  0.45191  0.67935  0.55551  1.0000
  C   C4036     1.0  0.56286  0.69392  0.75908  1.0000
  C   C4037     1.0  0.56939  0.70718  0.73623  1.0000
  H   H3232     1.0  0.47866  0.50246  0.59246  1.0000
  C   C4038     1.0  0.41489  0.61501  0.57796  1.0000
  H   H3233     1.0  0.55876  0.98796  0.68235  1.0000
  C   C4039     1.0  0.43166  0.74896  0.89649  1.0000
  C   C4040     1.0  0.48761  0.88138  0.90220  1.0000
  H   H3234     1.0  0.55650  0.92226  0.84380  1.0000
  C   C4041     1.0  0.51849  0.68307  0.51248  1.0000
  C   C4042     1.0  0.51649  0.69684  0.49689  1.0000
  C   C4043     1.0  0.51150  0.70738  0.51082  1.0000
  C   C4044     1.0  0.50848  0.70414  0.54026  1.0000
  C   C4045     1.0  0.50985  0.69009  0.55621  1.0000
  C   C4046     1.0  0.51536  0.67978  0.54201  1.0000
  P   P130      1.0  0.50725  0.68673  0.59398  1.0000
  C   C4047     1.0  0.49269  0.69522  0.60979  1.0000
  C   C4048     1.0  0.50109  0.66644  0.61285  1.0000
  C   C4049     1.0  0.50417  0.66149  0.63921  1.0000
  C   C4050     1.0  0.49947  0.64578  0.65387  1.0000
  C   C4051     1.0  0.49139  0.63496  0.64266  1.0000
  C   C4052     1.0  0.48781  0.63986  0.61694  1.0000
  C   C4053     1.0  0.49243  0.65558  0.60226  1.0000
  C   C4054     1.0  0.49331  0.69947  0.63496  1.0000
  C   C4055     1.0  0.48240  0.70656  0.64692  1.0000
  C   C4056     1.0  0.47073  0.70930  0.63396  1.0000
  C   C4057     1.0  0.46976  0.70465  0.60938  1.0000
  C   C4058     1.0  0.48057  0.69742  0.59756  1.0000
  C   C4059     1.0  0.52571  0.69612  0.59766  1.0000
  C   C4060     1.0  0.52967  0.71224  0.59392  1.0000
  C   C4061     1.0  0.44720  0.85441  0.72298  1.0000
  C   C4062     1.0  0.55493  0.71127  0.60041  1.0000
  C   C4063     1.0  0.55112  0.69525  0.60394  1.0000
  C   C4064     1.0  0.53662  0.68770  0.60223  1.0000
  C   C4065     1.0  0.50618  0.54024  0.61408  1.0000
  H   H3235     1.0  0.38652  0.54302  0.84785  1.0000
  H   H3236     1.0  0.51004  0.71816  0.49890  1.0000
  H   H3237     1.0  0.50520  0.71273  0.55048  1.0000
  H   H3238     1.0  0.51747  0.66934  0.55367  1.0000
  H   H3239     1.0  0.51018  0.66974  0.64855  1.0000
  H   H3240     1.0  0.50209  0.64198  0.67399  1.0000
  H   H3241     1.0  0.48779  0.62279  0.65408  1.0000
  H   H3242     1.0  0.48133  0.63145  0.60858  1.0000
  H   H3243     1.0  0.48917  0.65924  0.58279  1.0000
  H   H3244     1.0  0.50231  0.69743  0.64524  1.0000
  H   H3245     1.0  0.48315  0.71006  0.66607  1.0000
  H   H3246     1.0  0.46249  0.71512  0.64284  1.0000
  H   H3247     1.0  0.46089  0.70701  0.59897  1.0000
  H   H3248     1.0  0.47964  0.69397  0.57849  1.0000
  H   H3249     1.0  0.52154  0.71903  0.58993  1.0000
  C   C4066     1.0  0.44811  0.61144  0.65558  1.0000
  H   H3250     1.0  0.55936  0.68868  0.60832  1.0000
  H   H3251     1.0  0.53397  0.67533  0.60451  1.0000
  H   H3252     1.0  0.40267  0.71616  0.91674  1.0000
  H   H3253     1.0  0.57016  0.82622  0.69416  1.0000
  H   H3254     1.0  0.41175  0.68659  0.89556  1.0000
  C   C4067     1.0  0.57922  0.93578  0.81933  1.0000
  H   H3255     1.0  0.41098  0.89249  0.51050  1.0000
  C   C4068     1.0  0.57277  0.49647  0.56519  1.0000
  H   H3256     1.0  0.56994  0.89098  0.88067  1.0000
  C   C4069     1.0  0.51641  0.82999  0.92351  1.0000
  C   C4070     1.0  0.57912  0.58016  0.75662  1.0000
  C   C4071     1.0  0.57972  0.60716  0.78098  1.0000
  H   H3257     1.0  0.57293  0.66719  0.67896  1.0000
  C   C4072     1.0  0.44580  0.60203  0.63741  1.0000
  C   C4073     1.0  0.48655  0.98232  0.61831  1.0000
  C   C4074     1.0  0.44940  0.62733  0.64645  1.0000
  S   S560      1.0  0.41723  0.74393  0.50669  1.0000
  H   H3258     1.0  0.38570  0.55465  0.92657  1.0000
  H   H3259     1.0  0.50629  0.91232  0.63758  1.0000
  C   C4075     1.0  0.57794  0.55510  0.78686  1.0000
  H   H3260     1.0  0.45280  0.52524  0.72866  1.0000
  C   C4076     1.0  0.52202  0.86671  0.96277  1.0000
  C   C4077     1.0  0.39778  0.81515  0.53841  1.0000
  H   H3261     1.0  0.47388  0.52134  0.75147  1.0000
  C   C4078     1.0  0.41127  0.80774  0.88414  1.0000
  C   C4079     1.0  0.42560  0.81692  0.86709  1.0000
  C   C4080     1.0  0.42711  0.82514  0.83909  1.0000
  C   C4081     1.0  0.41396  0.82423  0.82865  1.0000
  P   P131      1.0  0.44577  0.83706  0.81736  1.0000
  C   C4082     1.0  0.45101  0.85437  0.82926  1.0000
  C   C4083     1.0  0.44322  0.85540  0.85583  1.0000
  C   C4084     1.0  0.44691  0.86905  0.86427  1.0000
  C   C4085     1.0  0.45842  0.88179  0.84633  1.0000
  C   C4086     1.0  0.46622  0.88089  0.81992  1.0000
  C   C4087     1.0  0.46253  0.86729  0.81135  1.0000
  C   C4088     1.0  0.46019  0.82613  0.81869  1.0000
  C   C4089     1.0  0.46713  0.80157  0.83033  1.0000
  C   C4090     1.0  0.45590  0.80989  0.82949  1.0000
  C   C4091     1.0  0.51718  0.54459  0.66094  1.0000
  C   C4092     1.0  0.50618  0.82978  0.97225  1.0000
  H   H3262     1.0  0.41024  0.80146  0.90569  1.0000
  H   H3263     1.0  0.43557  0.81762  0.87573  1.0000
  H   H3264     1.0  0.41472  0.83058  0.80733  1.0000
  H   H3265     1.0  0.47277  0.62068  0.56410  1.0000
  H   H3266     1.0  0.44096  0.86960  0.88493  1.0000
  H   H3267     1.0  0.46136  0.89232  0.85292  1.0000
  H   H3268     1.0  0.47516  0.89072  0.80593  1.0000
  H   H3269     1.0  0.46861  0.86703  0.79054  1.0000
  H   H3270     1.0  0.43686  0.86329  0.78553  1.0000
  H   H3271     1.0  0.46377  0.78914  0.83959  1.0000
  H   H3272     1.0  0.44395  0.80353  0.83734  1.0000
  C   C4093     1.0  0.50729  0.82129  0.57712  1.0000
  C   C4094     1.0  0.51801  0.81390  0.58631  1.0000
  C   C4095     1.0  0.52134  0.81487  0.61198  1.0000
  C   C4096     1.0  0.51379  0.82294  0.62870  1.0000
  C   C4097     1.0  0.50237  0.82963  0.62043  1.0000
  C   C4098     1.0  0.49961  0.82930  0.59394  1.0000
  P   P132      1.0  0.49239  0.83974  0.64250  1.0000
  C   C4099     1.0  0.50369  0.85960  0.63130  1.0000
  C   C4100     1.0  0.47278  0.83814  0.64009  1.0000
  C   C4101     1.0  0.46519  0.84932  0.64679  1.0000
  C   C4102     1.0  0.45001  0.84820  0.64497  1.0000
  C   C4103     1.0  0.44219  0.83575  0.63698  1.0000
  C   C4104     1.0  0.44945  0.82424  0.63132  1.0000
  C   C4105     1.0  0.46464  0.82533  0.63317  1.0000
  C   C4106     1.0  0.51659  0.86390  0.64158  1.0000
  C   C4107     1.0  0.52539  0.87928  0.63306  1.0000
  C   C4108     1.0  0.52149  0.89043  0.61394  1.0000
  C   C4109     1.0  0.50885  0.88618  0.60315  1.0000
  C   C4110     1.0  0.50007  0.87079  0.61152  1.0000
  C   C4111     1.0  0.49061  0.83136  0.67945  1.0000
  C   C4112     1.0  0.49006  0.84062  0.69857  1.0000
  C   C4113     1.0  0.48841  0.83407  0.72726  1.0000
  C   C4114     1.0  0.48732  0.81827  0.73706  1.0000
  C   C4115     1.0  0.48755  0.80894  0.71827  1.0000
  C   C4116     1.0  0.48896  0.81539  0.68965  1.0000
  H   H3273     1.0  0.50493  0.82074  0.55697  1.0000
  H   H3274     1.0  0.52383  0.80749  0.57352  1.0000
  H   H3275     1.0  0.52973  0.80928  0.61912  1.0000
  H   H3276     1.0  0.51681  0.82379  0.64823  1.0000
  H   H3277     1.0  0.49149  0.83512  0.58636  1.0000
  H   H3278     1.0  0.47099  0.85897  0.65328  1.0000
  H   H3279     1.0  0.44441  0.85713  0.64949  1.0000
  H   H3280     1.0  0.43048  0.83500  0.63531  1.0000
  H   H3281     1.0  0.44329  0.81444  0.62559  1.0000
  H   H3282     1.0  0.46995  0.81612  0.62936  1.0000
  H   H3283     1.0  0.51990  0.85540  0.65623  1.0000
  H   H3284     1.0  0.53526  0.88252  0.64131  1.0000
  H   H3285     1.0  0.52832  0.90234  0.60746  1.0000
  H   H3286     1.0  0.50577  0.89483  0.58842  1.0000
  H   H3287     1.0  0.49041  0.86773  0.60273  1.0000
  H   H3288     1.0  0.49087  0.85288  0.69141  1.0000
  H   H3289     1.0  0.48803  0.84129  0.74187  1.0000
  H   H3290     1.0  0.48632  0.81325  0.75916  1.0000
  H   H3291     1.0  0.48682  0.79670  0.72580  1.0000
  H   H3292     1.0  0.48895  0.80790  0.67551  1.0000
  H   H3293     1.0  0.46113  0.85026  0.94931  1.0000
  H   H3294     1.0  0.51155  0.57831  0.75883  1.0000
  C   C4117     1.0  0.47373  0.98562  0.69613  1.0000
  C   C4118     1.0  0.44807  0.86143  0.53204  1.0000
  H   H3295     1.0  0.54108  0.87339  0.83109  1.0000
  H   H3296     1.0  0.47714  0.51036  0.49568  1.0000
  H   H3297     1.0  0.40135  0.76246  0.92272  1.0000
  C   C4119     1.0  0.57064  0.56425  0.66380  1.0000
  C   C4120     1.0  0.45853  0.85478  0.54421  1.0000
  C   C4121     1.0  0.46337  0.85962  0.56644  1.0000
  C   C4122     1.0  0.45780  0.87109  0.57669  1.0000
  C   C4123     1.0  0.44723  0.87757  0.56498  1.0000
  C   C4124     1.0  0.44235  0.87274  0.54284  1.0000
  C   C4125     1.0  0.54841  0.98737  0.67503  1.0000
  C   C4126     1.0  0.39494  0.86997  0.52134  1.0000
  P   P133      1.0  0.42669  0.64133  0.83930  1.0000
  H   H3298     1.0  0.50571  0.56325  0.65923  1.0000
  H   H3299     1.0  0.41743  0.84555  0.55670  1.0000
  C   C4127     1.0  0.39424  0.51117  0.58340  1.0000
  H   H3300     1.0  0.42937  0.65014  0.52918  1.0000
  H   H3301     1.0  0.46298  0.84590  0.53662  1.0000
  H   H3302     1.0  0.47143  0.85449  0.57576  1.0000
  H   H3303     1.0  0.46158  0.87498  0.59378  1.0000
  H   H3304     1.0  0.44280  0.88639  0.57304  1.0000
  H   H3305     1.0  0.43412  0.87791  0.53418  1.0000
  C   C4128     1.0  0.41152  0.63476  0.82328  1.0000
  H   H3306     1.0  0.50655  0.51452  0.70085  1.0000
  H   H3307     1.0  0.53897  0.93105  0.74242  1.0000
  C   C4129     1.0  0.45498  0.51386  0.73394  1.0000
  H   H3308     1.0  0.57082  0.68185  0.71449  1.0000
  C   C4130     1.0  0.56593  0.61135  0.78966  1.0000
  H   H3309     1.0  0.53575  0.96628  0.70647  1.0000
  H   H3310     1.0  0.39037  0.81864  0.95652  1.0000
  C   C4131     1.0  0.43989  0.51295  0.51078  1.0000
  C   C4132     1.0  0.46687  0.51169  0.74669  1.0000
  C   C4133     1.0  0.55492  0.61985  0.69119  1.0000
  C   C4134     1.0  0.54855  0.60610  0.71266  1.0000
  C   C4135     1.0  0.55742  0.60041  0.72997  1.0000
  C   C4136     1.0  0.44571  0.66330  0.56464  1.0000
  H   H3311     1.0  0.55747  0.61093  0.77746  1.0000
  H   H3312     1.0  0.55271  0.62046  0.81988  1.0000
  H   H3313     1.0  0.58043  0.89170  0.69042  1.0000
  H   H3314     1.0  0.46280  0.87420  0.91306  1.0000
  H   H3315     1.0  0.54787  0.62441  0.67827  1.0000
  H   H3316     1.0  0.53660  0.60005  0.71624  1.0000
  H   H3317     1.0  0.55216  0.58996  0.74699  1.0000
  C   C4137     1.0  0.54658  0.94190  0.74195  1.0000
  H   H3318     1.0  0.39703  0.64691  0.86534  1.0000
  C   C4138     1.0  0.58176  0.49234  0.80809  1.0000
  C   C4139     1.0  0.41321  0.95130  0.68673  1.0000
  C   C4140     1.0  0.39830  0.80670  0.87345  1.0000
  S   S561      1.0  0.39737  0.60848  0.97741  1.0000
  C   C4141     1.0  0.58019  0.68651  0.69551  1.0000
  C   C4142     1.0  0.55943  0.58619  0.66136  1.0000
  C   C4143     1.0  0.54467  0.57612  0.67156  1.0000
  C   C4144     1.0  0.54282  0.56000  0.67867  1.0000
  C   C4145     1.0  0.55590  0.55415  0.67374  1.0000
  P   P134      1.0  0.52378  0.54695  0.69178  1.0000
  C   C4146     1.0  0.51101  0.55455  0.71456  1.0000
  C   C4147     1.0  0.48561  0.85427  0.94273  1.0000
  H   H3319     1.0  0.46248  0.59520  0.92651  1.0000
  C   C4148     1.0  0.57024  0.62788  0.68691  1.0000
  C   C4149     1.0  0.49508  0.55058  0.71708  1.0000
  C   C4150     1.0  0.48525  0.55682  0.73406  1.0000
  C   C4151     1.0  0.49120  0.56680  0.74907  1.0000
  C   C4152     1.0  0.50696  0.57042  0.74740  1.0000
  C   C4153     1.0  0.51682  0.56418  0.73046  1.0000
  C   C4154     1.0  0.52445  0.52870  0.71361  1.0000
  C   C4155     1.0  0.53464  0.52842  0.73108  1.0000
  C   C4156     1.0  0.53605  0.51428  0.74635  1.0000
  C   C4157     1.0  0.38849  0.55818  0.90369  1.0000
  Fe  Fe279     1.0  0.57928  0.79307  0.59780  1.0000
  C   C4158     1.0  0.51488  0.51467  0.71336  1.0000
  C   C4159     1.0  0.40731  0.81713  0.51162  1.0000
  H   H3320     1.0  0.48447  0.84365  0.95835  1.0000
  C   C4160     1.0  0.39445  0.57384  0.88935  1.0000
  H   H3321     1.0  0.53473  0.58094  0.67398  1.0000
  H   H3322     1.0  0.39463  0.77938  0.95397  1.0000
  H   H3323     1.0  0.51209  0.88555  0.89563  1.0000
  C   C4161     1.0  0.38247  0.54757  0.79545  1.0000
  S   S562      1.0  0.39370  0.89715  0.70362  1.0000
  H   H3324     1.0  0.44887  0.60636  0.67674  1.0000
  H   H3325     1.0  0.42119  0.65190  0.78278  1.0000
  C   C4162     1.0  0.44548  0.84329  0.78066  1.0000
  H   H3326     1.0  0.41656  0.83145  0.92484  1.0000
  H   H3327     1.0  0.47306  0.55425  0.73502  1.0000
  C   C4163     1.0  0.50838  0.55412  0.64989  1.0000
  H   H3328     1.0  0.45130  0.63464  0.66052  1.0000
  C   C4164     1.0  0.45956  0.59603  0.94816  1.0000
  H   H3329     1.0  0.57015  0.65917  0.83038  1.0000
  C   C4165     1.0  0.43747  0.55846  0.51069  1.0000
  C   C4166     1.0  0.48722  0.98075  0.69651  1.0000
  H   H3330     1.0  0.56019  0.94503  0.69976  1.0000
  C   C4167     1.0  0.40632  0.65557  0.86758  1.0000
  C   C4168     1.0  0.45050  0.83512  0.76123  1.0000
  C   C4169     1.0  0.55687  0.88293  0.85315  1.0000
  H   H3331     1.0  0.39395  0.82409  0.57501  1.0000
  H   H3332     1.0  0.44061  0.62475  0.51254  1.0000
  C   C4170     1.0  0.38317  0.78045  0.96219  1.0000
  C   C4171     1.0  0.57412  0.54789  0.76635  1.0000
  S   S563      1.0  0.39298  0.51316  0.70327  1.0000
  C   C4172     1.0  0.42175  0.65549  0.85746  1.0000
  S   S564      1.0  0.45028  0.75509  0.94902  1.0000
  H   H3333     1.0  0.55482  0.54180  0.67771  1.0000
  H   H3334     1.0  0.47463  0.65232  0.52549  1.0000
  C   C4173     1.0  0.55485  0.96147  0.76549  1.0000
  C   C4174     1.0  0.55913  0.88407  0.87947  1.0000
  C   C4175     1.0  0.43348  0.66659  0.86160  1.0000
  C   C4176     1.0  0.47913  0.50340  0.61346  1.0000
  P   P135      1.0  0.44531  0.63262  0.56481  1.0000
  C   C4177     1.0  0.38249  0.58274  0.79875  1.0000
  H   H3335     1.0  0.51109  0.88560  0.95495  1.0000
  H   H3336     1.0  0.39942  0.64361  0.76312  1.0000
  C   C4178     1.0  0.41024  0.51863  0.53508  1.0000
  H   H3337     1.0  0.39987  0.73888  0.97468  1.0000
  H   H3338     1.0  0.43446  0.65868  0.57948  1.0000
  H   H3339     1.0  0.47962  0.84610  0.79844  1.0000
  C   C4179     1.0  0.39973  0.73874  0.92066  1.0000
  C   C4180     1.0  0.42557  0.62906  0.56243  1.0000
  H   H3340     1.0  0.43904  0.68621  0.87845  1.0000
  H   H3341     1.0  0.49085  0.65556  0.91913  1.0000
  C   C4181     1.0  0.39355  0.53534  0.76073  1.0000
  C   C4182     1.0  0.41498  0.83751  0.54414  1.0000
  C   C4183     1.0  0.45136  0.84069  0.73249  1.0000
  C   C4184     1.0  0.57241  0.58027  0.65774  1.0000
  H   H3342     1.0  0.42190  0.49520  0.62400  1.0000
  H   H3343     1.0  0.51391  0.80754  0.91507  1.0000
  C   C4185     1.0  0.51193  0.81377  0.93109  1.0000
  H   H3344     1.0  0.39817  0.51311  0.50404  1.0000
  C   C4186     1.0  0.51352  0.83816  0.94404  1.0000
  C   C4187     1.0  0.39726  0.51272  0.52609  1.0000
  H   H3345     1.0  0.40336  0.64384  0.52217  1.0000
  H   H3346     1.0  0.48673  0.60831  0.53143  1.0000
  H   H3347     1.0  0.57807  0.50256  0.76779  1.0000
  C   C4188     1.0  0.57581  0.80496  0.69024  1.0000
  C   C4189     1.0  0.45871  0.61440  0.49841  1.0000
  C   C4190     1.0  0.57243  0.92244  0.77595  1.0000
  H   H3348     1.0  0.57960  0.54834  0.80605  1.0000
  H   H3349     1.0  0.43541  0.84867  0.94071  1.0000
  H   H3350     1.0  0.43064  0.56094  0.49594  1.0000
  C   C4191     1.0  0.42293  0.70382  0.97758  1.0000
  H   H3351     1.0  0.52843  0.48938  0.75603  1.0000
  H   H3352     1.0  0.57678  0.83188  0.51834  1.0000
  H   H3353     1.0  0.47893  0.49537  0.76315  1.0000
  H   H3354     1.0  0.38238  0.51358  0.65204  1.0000
  C   C4192     1.0  0.49531  0.65366  0.93772  1.0000
  C   C4193     1.0  0.44590  0.50136  0.72788  1.0000
  C   C4194     1.0  0.38887  0.93332  0.71365  1.0000
  C   C4195     1.0  0.40018  0.61142  0.57353  1.0000
  C   C4196     1.0  0.55859  0.94979  0.71792  1.0000
  C   C4197     1.0  0.47668  0.61197  0.52736  1.0000
  C   C4198     1.0  0.57550  0.57283  0.73594  1.0000
  C   C4199     1.0  0.43250  0.49706  0.52071  1.0000
  C   C4200     1.0  0.39928  0.63770  0.78441  1.0000
  C   C4201     1.0  0.45774  0.83341  0.49176  1.0000
  H   H3355     1.0  0.52175  0.83601  0.90153  1.0000
  C   C4202     1.0  0.42440  0.48994  0.64351  1.0000
  H   H3356     1.0  0.56605  0.71711  0.60228  1.0000
  C   C4203     1.0  0.39859  0.82637  0.96328  1.0000
  H   H3357     1.0  0.38939  0.89777  0.76267  1.0000
  H   H3358     1.0  0.57074  0.66371  0.97824  1.0000
  H   H3359     1.0  0.38948  0.81432  0.83766  1.0000
  H   H3360     1.0  0.55478  0.78800  0.48639  1.0000
  C   C4204     1.0  0.39961  0.81500  0.84579  1.0000
  C   C4205     1.0  0.38569  0.61350  0.92987  1.0000
  C   C4206     1.0  0.56631  0.82442  0.80306  1.0000
  H   H3361     1.0  0.57264  0.53550  0.76967  1.0000
  C   C4207     1.0  0.58024  0.51138  0.69899  1.0000
  H   H3362     1.0  0.44990  0.82551  0.51094  1.0000
  C   C4208     1.0  0.42068  0.82925  0.50106  1.0000
  H   H3363     1.0  0.50064  0.79303  0.96484  1.0000
  H   H3364     1.0  0.57828  0.96827  0.96296  1.0000
  C   C4209     1.0  0.38599  0.85699  0.54303  1.0000
  C   C4210     1.0  0.56962  0.75706  0.48202  1.0000
  H   H3365     1.0  0.57237  0.62331  0.84715  1.0000
  C   C4211     1.0  0.39749  0.77939  0.48529  1.0000
  H   H3366     1.0  0.56593  0.88886  0.83400  1.0000
  H   H3367     1.0  0.44989  0.97897  0.69575  1.0000
  C   C4212     1.0  0.57977  0.80939  0.51576  1.0000
  C   C4213     1.0  0.57161  0.50215  0.58913  1.0000
  C   C4214     1.0  0.48818  0.49554  0.62772  1.0000
  H   H3368     1.0  0.39232  0.52644  0.74948  1.0000
  C   C4215     1.0  0.57652  0.83603  0.75246  1.0000
  C   C4216     1.0  0.38637  0.61806  0.82822  1.0000
  C   C4217     1.0  0.57918  0.62219  0.70415  1.0000
  H   H3369     1.0  0.58052  0.94971  0.93354  1.0000
  H   H3370     1.0  0.46196  0.52986  0.49354  1.0000
  H   H3371     1.0  0.57817  0.96930  0.69904  1.0000
  H   H3372     1.0  0.40422  0.80941  0.49881  1.0000
  C   C4218     1.0  0.57859  0.82901  0.77874  1.0000
  C   C4219     1.0  0.38283  0.50646  0.54555  1.0000
  H   H3373     1.0  0.57942  0.50271  0.62672  1.0000
  H   H3374     1.0  0.45480  0.61266  0.48004  1.0000
  H   H3375     1.0  0.38260  0.92178  0.72657  1.0000
  H   H3376     1.0  0.38361  0.96765  0.67966  1.0000
  C   C4220     1.0  0.58057  0.49859  0.60781  1.0000
  C   C4221     1.0  0.38335  0.89931  0.80574  1.0000
  C   C4222     1.0  0.38244  0.89201  0.78406  1.0000
  C   C4223     1.0  0.58135  0.67810  0.67521  1.0000
  P   P136      1.0  0.58143  0.98626  0.74171  1.0000
  C   C4224     1.0  0.43745  0.87132  0.48058  1.0000
  C   C4225     1.0  0.45665  0.84874  0.48290  1.0000
  H   H3377     1.0  0.42776  0.83070  0.48004  1.0000
  C   C4226     1.0  0.38248  0.58851  0.77043  1.0000
  Fe  Fe280     1.0  0.74426  0.21119  0.27056  1.0000
  S   S565      1.0  0.74816  0.22122  0.22424  1.0000
  S   S566      1.0  0.72747  0.22014  0.29814  1.0000
  Fe  Fe281     1.0  0.74232  0.19665  0.22147  1.0000
  S   S567      1.0  0.72424  0.19148  0.19756  1.0000
  S   S568      1.0  0.73691  0.18674  0.26820  1.0000
  Fe  Fe282     1.0  0.59848  0.17800  0.41489  1.0000
  H   H3378     1.0  0.76667  0.30478  0.33980  1.0000
  S   S569      1.0  0.62433  0.18973  0.40892  1.0000
  S   S570      1.0  0.59524  0.15279  0.41484  1.0000
  H   H3379     1.0  0.58621  0.40149  0.07226  1.0000
  C   C4227     1.0  0.65256  0.02627  0.00721  1.0000
  C   C4228     1.0  0.74171  0.44325  0.46400  1.0000
  C   C4229     1.0  0.67756  0.00282  0.18710  1.0000
  S   S571      1.0  0.73497  0.26235  0.45790  1.0000
  C   C4230     1.0  0.76520  0.48405  0.47134  1.0000
  Fe  Fe283     1.0  0.69434  0.25167  0.44184  1.0000
  S   S572      1.0  0.71526  0.26884  0.41018  1.0000
  S   S573      1.0  0.66973  0.24568  0.43539  1.0000
  Fe  Fe284     1.0  0.72837  0.25169  0.42428  1.0000
  S   S574      1.0  0.74751  0.24543  0.39652  1.0000
  Fe  Fe285     1.0  0.72072  0.27875  0.44591  1.0000
  S   S575      1.0  0.72996  0.30532  0.43721  1.0000
  S   S576      1.0  0.70740  0.23393  0.45317  1.0000
  H   H3380     1.0  0.68626  0.99630  0.00719  1.0000
  H   H3381     1.0  0.63354  0.38892  0.45588  1.0000
  S   S577      1.0  0.76568  0.44886  0.99341  1.0000
  H   H3382     1.0  0.61251  0.11781  0.25194  1.0000
  C   C4231     1.0  0.77402  0.06984  0.31267  1.0000
  C   C4232     1.0  0.76079  0.42807  0.45867  1.0000
  C   C4233     1.0  0.74435  0.40873  0.02797  1.0000
  Fe  Fe286     1.0  0.62558  0.45844  0.00232  1.0000
  S   S578      1.0  0.62204  0.46399  0.04514  1.0000
  S   S579      1.0  0.62848  0.43549  0.99481  1.0000
  S   S580      1.0  0.63561  0.02411  0.08295  1.0000
  S   S581      1.0  0.63557  0.17524  0.02170  1.0000
  S   S582      1.0  0.74125  0.31284  0.00699  1.0000
  Fe  Fe287     1.0  0.67826  0.11800  0.16594  1.0000
  S   S583      1.0  0.68166  0.10542  0.13200  1.0000
  S   S584      1.0  0.69750  0.12376  0.18729  1.0000
  Fe  Fe288     1.0  0.64450  0.11583  0.16618  1.0000
  S   S585      1.0  0.64514  0.10309  0.13234  1.0000
  S   S586      1.0  0.62380  0.12225  0.18938  1.0000
  Fe  Fe289     1.0  0.65856  0.08932  0.15554  1.0000
  S   S587      1.0  0.65432  0.06320  0.16717  1.0000
  Fe  Fe290     1.0  0.66805  0.12023  0.11145  1.0000
  S   S588      1.0  0.67563  0.13096  0.06434  1.0000
  S   S589      1.0  0.65611  0.10068  0.19131  1.0000
  S   S590      1.0  0.66652  0.13420  0.14344  1.0000
  C   C4234     1.0  0.64717  0.16335  0.03299  1.0000
  C   C4235     1.0  0.64367  0.15563  0.06175  1.0000
  C   C4236     1.0  0.65254  0.14587  0.07156  1.0000
  C   C4237     1.0  0.66492  0.14376  0.05258  1.0000
  C   C4238     1.0  0.66855  0.15161  0.02381  1.0000
  C   C4239     1.0  0.65969  0.16145  0.01400  1.0000
  H   H3383     1.0  0.63398  0.15709  0.07646  1.0000
  H   H3384     1.0  0.64961  0.13977  0.09373  1.0000
  H   H3385     1.0  0.67813  0.14998  0.00915  1.0000
  H   H3386     1.0  0.66244  0.16747  0.99184  1.0000
  C   C4240     1.0  0.64101  0.03486  0.10640  1.0000
  C   C4241     1.0  0.64241  0.02754  0.13291  1.0000
  C   C4242     1.0  0.64633  0.03637  0.15145  1.0000
  C   C4243     1.0  0.64907  0.05258  0.14349  1.0000
  C   C4244     1.0  0.64765  0.05992  0.11698  1.0000
  C   C4245     1.0  0.64354  0.05106  0.09857  1.0000
  H   H3387     1.0  0.64032  0.01506  0.13926  1.0000
  H   H3388     1.0  0.64727  0.03064  0.17203  1.0000
  H   H3389     1.0  0.64975  0.07240  0.11068  1.0000
  H   H3390     1.0  0.64249  0.05677  0.07807  1.0000
  Fe  Fe291     1.0  0.76207  0.18730  0.26096  1.0000
  Fe  Fe292     1.0  0.76497  0.31187  0.01199  1.0000
  H   H3391     1.0  0.73028  0.37858  0.00310  1.0000
  H   H3392     1.0  0.73171  0.28749  0.30004  1.0000
  C   C4246     1.0  0.77851  0.44392  0.05670  1.0000
  C   C4247     1.0  0.74959  0.47426  0.39755  1.0000
  C   C4248     1.0  0.63195  0.42986  0.45030  1.0000
  C   C4249     1.0  0.62458  0.43166  0.47633  1.0000
  C   C4250     1.0  0.65901  0.36743  0.46827  1.0000
  H   H3393     1.0  0.68824  0.00265  0.10890  1.0000
  C   C4251     1.0  0.76319  0.31907  0.47733  1.0000
  H   H3394     1.0  0.63747  0.23918  0.43630  1.0000
  S   S591      1.0  0.77174  0.30768  0.05386  1.0000
  C   C4252     1.0  0.74413  0.31662  0.44980  1.0000
  C   C4253     1.0  0.74773  0.33296  0.44096  1.0000
  C   C4254     1.0  0.69196  0.48662  0.23350  1.0000
  C   C4255     1.0  0.60624  0.06519  0.20570  1.0000
  C   C4256     1.0  0.60346  0.12312  0.06642  1.0000
  H   H3395     1.0  0.76713  0.18560  0.32582  1.0000
  C   C4257     1.0  0.75878  0.34227  0.45058  1.0000
  C   C4258     1.0  0.74276  0.39455  0.02111  1.0000
  C   C4259     1.0  0.63630  0.20481  0.41879  1.0000
  C   C4260     1.0  0.63121  0.21725  0.42613  1.0000
  C   C4261     1.0  0.64152  0.22947  0.43140  1.0000
  C   C4262     1.0  0.65704  0.22941  0.42997  1.0000
  C   C4263     1.0  0.66199  0.21670  0.42360  1.0000
  C   C4264     1.0  0.65176  0.20464  0.41778  1.0000
  H   H3396     1.0  0.61945  0.21773  0.42693  1.0000
  H   H3397     1.0  0.58598  0.11146  0.43623  1.0000
  H   H3398     1.0  0.67380  0.21639  0.42255  1.0000
  H   H3399     1.0  0.65591  0.19516  0.41216  1.0000
  H   H3400     1.0  0.74962  0.10048  0.15494  1.0000
  C   C4265     1.0  0.60554  0.11187  0.18868  1.0000
  C   C4266     1.0  0.60396  0.10380  0.16819  1.0000
  H   H3401     1.0  0.74649  0.30943  0.37601  1.0000
  H   H3402     1.0  0.61399  0.10382  0.15256  1.0000
  H   H3403     1.0  0.72543  0.46441  0.40500  1.0000
  H   H3404     1.0  0.58891  0.47211  0.23892  1.0000
  H   H3405     1.0  0.64354  0.11434  0.04680  1.0000
  H   H3406     1.0  0.60954  0.17313  0.17132  1.0000
  C   C4267     1.0  0.73372  0.22803  0.32414  1.0000
  C   C4268     1.0  0.72407  0.23489  0.34020  1.0000
  C   C4269     1.0  0.72834  0.24041  0.36226  1.0000
  C   C4270     1.0  0.74237  0.23928  0.36810  1.0000
  C   C4271     1.0  0.75230  0.23294  0.35144  1.0000
  C   C4272     1.0  0.74795  0.22725  0.32953  1.0000
  H   H3407     1.0  0.71317  0.23575  0.33591  1.0000
  H   H3408     1.0  0.72067  0.24539  0.37492  1.0000
  H   H3409     1.0  0.76326  0.23223  0.35573  1.0000
  H   H3410     1.0  0.75549  0.22209  0.31707  1.0000
  C   C4273     1.0  0.70450  0.14255  0.19075  1.0000
  C   C4274     1.0  0.71653  0.14523  0.20396  1.0000
  C   C4275     1.0  0.72262  0.16015  0.20654  1.0000
  C   C4276     1.0  0.71673  0.17247  0.19575  1.0000
  C   C4277     1.0  0.70460  0.16974  0.18289  1.0000
  C   C4278     1.0  0.69846  0.15484  0.18043  1.0000
  H   H3411     1.0  0.72131  0.13579  0.21186  1.0000
  H   H3412     1.0  0.73199  0.16215  0.21648  1.0000
  H   H3413     1.0  0.70009  0.17927  0.17447  1.0000
  H   H3414     1.0  0.68925  0.15292  0.17011  1.0000
  C   C4279     1.0  0.75219  0.11348  0.25123  1.0000
  C   C4280     1.0  0.58930  0.09583  0.16766  1.0000
  C   C4281     1.0  0.59552  0.05819  0.19303  1.0000
  H   H3415     1.0  0.61489  0.44343  0.32947  1.0000
  C   C4282     1.0  0.73685  0.46425  0.39417  1.0000
  C   C4283     1.0  0.60779  0.45978  0.28189  1.0000
  C   C4284     1.0  0.61236  0.45302  0.23696  1.0000
  C   C4285     1.0  0.63270  0.48075  0.05178  1.0000
  H   H3416     1.0  0.61882  0.43323  0.37632  1.0000
  C   C4286     1.0  0.77506  0.31156  0.26351  1.0000
  H   H3417     1.0  0.75251  0.99957  0.12228  1.0000
  C   C4287     1.0  0.64928  0.13682  0.23482  1.0000
  H   H3418     1.0  0.76627  0.26093  0.29019  1.0000
  C   C4288     1.0  0.69230  0.17389  0.46840  1.0000
  H   H3419     1.0  0.64101  0.45231  0.13040  1.0000
  H   H3420     1.0  0.76860  0.33468  0.34017  1.0000
  C   C4289     1.0  0.74931  0.28474  0.25172  1.0000
  C   C4290     1.0  0.68146  0.34771  0.02004  1.0000
  C   C4291     1.0  0.66382  0.48432  0.36746  1.0000
  C   C4292     1.0  0.75110  0.00128  0.10107  1.0000
  C   C4293     1.0  0.58932  0.05020  0.13467  1.0000
  C   C4294     1.0  0.61574  0.46333  0.25323  1.0000
  C   C4295     1.0  0.74706  0.00600  0.04649  1.0000
  C   C4296     1.0  0.61536  0.47553  0.35432  1.0000
  H   H3421     1.0  0.76239  0.27093  0.34285  1.0000
  H   H3422     1.0  0.76502  0.13251  0.26359  1.0000
  C   C4297     1.0  0.69121  0.48439  0.28294  1.0000
  C   C4298     1.0  0.72962  0.23880  0.04452  1.0000
  C   C4299     1.0  0.59222  0.47921  0.30789  1.0000
  C   C4300     1.0  0.61683  0.04281  0.21015  1.0000
  H   H3423     1.0  0.75538  0.44680  0.34905  1.0000
  C   C4301     1.0  0.59363  0.13980  0.14693  1.0000
  H   H3424     1.0  0.58764  0.06448  0.18572  1.0000
  H   H3425     1.0  0.71667  0.18430  0.45177  1.0000
  H   H3426     1.0  0.60347  0.14235  0.15560  1.0000
  H   H3427     1.0  0.58814  0.08952  0.15188  1.0000
  H   H3428     1.0  0.58704  0.10791  0.35385  1.0000
  C   C4302     1.0  0.77177  0.18403  0.34420  1.0000
  H   H3429     1.0  0.61702  0.47710  0.09241  1.0000
  C   C4303     1.0  0.69470  0.45467  0.39322  1.0000
  H   H3430     1.0  0.76053  0.24244  0.44317  1.0000
  C   C4304     1.0  0.58256  0.16893  0.00833  1.0000
  H   H3431     1.0  0.60393  0.42770  0.06051  1.0000
  H   H3432     1.0  0.67059  0.34161  0.03533  1.0000
  C   C4305     1.0  0.68874  0.00415  0.20227  1.0000
  H   H3433     1.0  0.62904  0.17364  0.46176  1.0000
  H   H3434     1.0  0.76791  0.31157  0.12914  1.0000
  H   H3435     1.0  0.78028  0.12806  0.43133  1.0000
  H   H3436     1.0  0.63443  0.36163  0.47330  1.0000
  C   C4306     1.0  0.58809  0.09944  0.31666  1.0000
  H   H3437     1.0  0.76115  0.35477  0.44394  1.0000
  H   H3438     1.0  0.75603  0.22313  0.07081  1.0000
  C   C4307     1.0  0.72074  0.39852  0.00318  1.0000
  C   C4308     1.0  0.73096  0.38940  0.00889  1.0000
  C   C4309     1.0  0.71865  0.21143  0.06845  1.0000
  H   H3439     1.0  0.75098  0.38776  0.02436  1.0000
  P   P137      1.0  0.70223  0.19472  0.08060  1.0000
  C   C4310     1.0  0.70816  0.17679  0.08442  1.0000
  C   C4311     1.0  0.69101  0.19405  0.11518  1.0000
  C   C4312     1.0  0.67995  0.18034  0.13127  1.0000
  C   C4313     1.0  0.67148  0.17939  0.15845  1.0000
  C   C4314     1.0  0.67404  0.19212  0.16983  1.0000
  C   C4315     1.0  0.68506  0.20581  0.15398  1.0000
  C   C4316     1.0  0.69352  0.20681  0.12670  1.0000
  C   C4317     1.0  0.70593  0.16737  0.06599  1.0000
  C   C4318     1.0  0.70962  0.15305  0.07056  1.0000
  C   C4319     1.0  0.71527  0.14788  0.09373  1.0000
  C   C4320     1.0  0.71751  0.15716  0.11215  1.0000
  C   C4321     1.0  0.71395  0.17153  0.10757  1.0000
  C   C4322     1.0  0.69087  0.19625  0.05503  1.0000
  C   C4323     1.0  0.69822  0.20033  0.02596  1.0000
  C   C4324     1.0  0.59627  0.44586  0.29381  1.0000
  H   H3440     1.0  0.76928  0.37676  0.38885  1.0000
  C   C4325     1.0  0.66635  0.19591  0.04357  1.0000
  C   C4326     1.0  0.67484  0.19397  0.06368  1.0000
  H   H3441     1.0  0.76673  0.46870  0.44447  1.0000
  C   C4327     1.0  0.76652  0.29982  0.14140  1.0000
  C   C4328     1.0  0.61898  0.45444  0.38869  1.0000
  C   C4329     1.0  0.71712  0.22573  0.05369  1.0000
  H   H3442     1.0  0.67873  0.37011  0.02308  1.0000
  H   H3443     1.0  0.67795  0.17032  0.12283  1.0000
  H   H3444     1.0  0.66315  0.16865  0.17078  1.0000
  H   H3445     1.0  0.66765  0.19132  0.19107  1.0000
  H   H3446     1.0  0.68718  0.21559  0.16296  1.0000
  H   H3447     1.0  0.70206  0.21746  0.11486  1.0000
  H   H3448     1.0  0.70093  0.17071  0.04859  1.0000
  H   H3449     1.0  0.70759  0.14570  0.05660  1.0000
  H   H3450     1.0  0.71762  0.13656  0.09773  1.0000
  H   H3451     1.0  0.72165  0.15302  0.13041  1.0000
  H   H3452     1.0  0.71539  0.17837  0.12252  1.0000
  C   C4330     1.0  0.64446  0.38619  0.45672  1.0000
  C   C4331     1.0  0.68613  0.36392  0.01296  1.0000
  C   C4332     1.0  0.70016  0.37193  0.99303  1.0000
  H   H3453     1.0  0.65396  0.19408  0.05028  1.0000
  H   H3454     1.0  0.66879  0.19076  0.08580  1.0000
  C   C4333     1.0  0.60126  0.15728  0.21290  1.0000
  C   C4334     1.0  0.68965  0.20216  0.00592  1.0000
  C   C4335     1.0  0.68489  0.40182  0.02130  1.0000
  C   C4336     1.0  0.75984  0.26497  0.27558  1.0000
  C   C4337     1.0  0.65600  0.44647  0.45275  1.0000
  Fe  Fe293     1.0  0.63844  0.99958  0.08915  1.0000
  H   H3455     1.0  0.66845  0.40920  0.04946  1.0000
  C   C4338     1.0  0.76911  0.42908  0.07087  1.0000
  H   H3456     1.0  0.62554  0.10115  0.09391  1.0000
  P   P138      1.0  0.74206  0.25591  0.14636  1.0000
  C   C4339     1.0  0.77555  0.08782  0.20300  1.0000
  C   C4340     1.0  0.73484  0.26160  0.11586  1.0000
  C   C4341     1.0  0.74520  0.26949  0.08954  1.0000
  C   C4342     1.0  0.73973  0.27416  0.06589  1.0000
  C   C4343     1.0  0.72393  0.27064  0.06808  1.0000
  C   C4344     1.0  0.71355  0.26231  0.09399  1.0000
  C   C4345     1.0  0.71896  0.25778  0.11785  1.0000
  C   C4346     1.0  0.75680  0.28743  0.13623  1.0000
  C   C4347     1.0  0.59448  0.17016  0.02182  1.0000
  H   H3457     1.0  0.60720  0.13769  0.10838  1.0000
  H   H3458     1.0  0.69091  0.99380  0.21421  1.0000
  S   S592      1.0  0.72729  0.45432  0.98192  1.0000
  C   C4348     1.0  0.72656  0.24982  0.17837  1.0000
  C   C4349     1.0  0.72197  0.23450  0.19538  1.0000
  C   C4350     1.0  0.71087  0.23044  0.22123  1.0000
  C   C4351     1.0  0.70403  0.24155  0.23010  1.0000
  C   C4352     1.0  0.70822  0.25674  0.21298  1.0000
  C   C4353     1.0  0.71947  0.26088  0.18724  1.0000
  H   H3459     1.0  0.69410  0.38675  0.40748  1.0000
  H   H3460     1.0  0.62826  0.14182  0.43473  1.0000
  C   C4354     1.0  0.58379  0.06684  0.09523  1.0000
  C   C4355     1.0  0.60329  0.46368  0.15819  1.0000
  C   C4356     1.0  0.75752  0.27996  0.27133  1.0000
  C   C4357     1.0  0.75535  0.27210  0.15125  1.0000
  H   H3461     1.0  0.60349  0.08189  0.06282  1.0000
  H   H3462     1.0  0.71978  0.27431  0.04958  1.0000
  H   H3463     1.0  0.70131  0.25946  0.09553  1.0000
  H   H3464     1.0  0.71075  0.25133  0.13770  1.0000
  H   H3465     1.0  0.75056  0.28997  0.12042  1.0000
  H   H3466     1.0  0.77539  0.13952  0.20945  1.0000
  H   H3467     1.0  0.65196  0.47859  0.36936  1.0000
  C   C4358     1.0  0.58578  0.47847  0.22112  1.0000
  H   H3468     1.0  0.59171  0.09409  0.27625  1.0000
  H   H3469     1.0  0.73533  0.42886  0.02777  1.0000
  H   H3470     1.0  0.70788  0.21871  0.23465  1.0000
  H   H3471     1.0  0.69560  0.23839  0.25036  1.0000
  H   H3472     1.0  0.70293  0.26537  0.21984  1.0000
  H   H3473     1.0  0.72283  0.27277  0.17441  1.0000
  H   H3474     1.0  0.58394  0.46637  0.35214  1.0000
  Fe  Fe294     1.0  0.77615  0.02057  0.19636  1.0000
  H   H3475     1.0  0.75699  0.03020  0.04172  1.0000
  C   C4359     1.0  0.76654  0.46466  0.36561  1.0000
  C   C4360     1.0  0.74517  0.22379  0.06590  1.0000
  C   C4361     1.0  0.76703  0.09841  0.20921  1.0000
  C   C4362     1.0  0.66436  0.12994  0.27726  1.0000
  C   C4363     1.0  0.72131  0.41348  0.42121  1.0000
  H   H3476     1.0  0.59825  0.43129  0.23631  1.0000
  H   H3477     1.0  0.64329  0.13872  0.21840  1.0000
  C   C4364     1.0  0.70148  0.25061  0.98190  1.0000
  C   C4365     1.0  0.74526  0.25958  0.24200  1.0000
  H   H3478     1.0  0.58972  0.99813  0.08570  1.0000
  C   C4366     1.0  0.75139  0.21782  0.46106  1.0000
  H   H3479     1.0  0.76517  0.20336  0.35691  1.0000
  H   H3480     1.0  0.61590  0.43462  0.13543  1.0000
  C   C4367     1.0  0.60779  0.11237  0.08573  1.0000
  H   H3481     1.0  0.75228  0.43906  0.42467  1.0000
  H   H3482     1.0  0.61826  0.45609  0.21468  1.0000
  C   C4368     1.0  0.75081  0.29616  0.31667  1.0000
  C   C4369     1.0  0.73527  0.29255  0.31606  1.0000
  C   C4370     1.0  0.72402  0.29527  0.33657  1.0000
  C   C4371     1.0  0.72817  0.30160  0.35783  1.0000
  C   C4372     1.0  0.74352  0.30493  0.35895  1.0000
  H   H3483     1.0  0.75687  0.29233  0.41912  1.0000
  H   H3484     1.0  0.74950  0.29730  0.47476  1.0000
  C   C4373     1.0  0.58541  0.42527  0.12839  1.0000
  C   C4374     1.0  0.75356  0.01860  0.05570  1.0000
  C   C4375     1.0  0.76926  0.48067  0.44528  1.0000
  C   C4376     1.0  0.73889  0.45428  0.37684  1.0000
  P   P139      1.0  0.61032  0.47388  0.30214  1.0000
  H   H3485     1.0  0.77413  0.25232  0.14008  1.0000
  H   H3486     1.0  0.74039  0.25159  0.23103  1.0000
  C   C4377     1.0  0.61774  0.46967  0.38081  1.0000
  H   H3487     1.0  0.60369  0.18074  0.01538  1.0000
  H   H3488     1.0  0.66679  0.01503  0.15841  1.0000
  C   C4378     1.0  0.67966  0.43769  0.37210  1.0000
  C   C4379     1.0  0.68659  0.45264  0.37295  1.0000
  S   S593      1.0  0.76650  0.16564  0.28611  1.0000
  C   C4380     1.0  0.63221  0.11646  0.05195  1.0000
  H   H3489     1.0  0.75324  0.24809  0.04382  1.0000
  H   H3490     1.0  0.71202  0.29227  0.33627  1.0000
  H   H3491     1.0  0.71943  0.30349  0.37403  1.0000
  H   H3492     1.0  0.58389  0.42492  0.28695  1.0000
  C   C4381     1.0  0.59294  0.43553  0.27755  1.0000
  C   C4382     1.0  0.69566  0.44174  0.41292  1.0000
  H   H3493     1.0  0.62951  0.14595  0.38370  1.0000
  H   H3494     1.0  0.75382  0.41295  0.03646  1.0000
  H   H3495     1.0  0.74467  0.21662  0.44581  1.0000
  C   C4383     1.0  0.74200  0.22676  0.13767  1.0000
  H   H3496     1.0  0.58855  0.23125  0.99154  1.0000
  C   C4384     1.0  0.64497  0.37084  0.46661  1.0000
  H   H3497     1.0  0.65340  0.43636  0.41817  1.0000
  S   S594      1.0  0.62230  0.41770  0.43237  1.0000
  S   S595      1.0  0.69862  0.26310  0.47659  1.0000
  H   H3498     1.0  0.62568  0.06321  0.22285  1.0000
  C   C4385     1.0  0.67519  0.01612  0.17072  1.0000
  C   C4386     1.0  0.58337  0.14364  0.05081  1.0000
  C   C4387     1.0  0.72244  0.41276  0.01019  1.0000
  C   C4388     1.0  0.72645  0.12435  0.27039  1.0000
  C   C4389     1.0  0.72457  0.11091  0.26091  1.0000
  H   H3499     1.0  0.74120  0.20348  0.13436  1.0000
  H   H3500     1.0  0.76616  0.36453  0.03319  1.0000
  H   H3501     1.0  0.77573  0.24558  0.47806  1.0000
  H   H3502     1.0  0.71058  0.20220  0.01882  1.0000
  P   P140      1.0  0.58403  0.43725  0.15278  1.0000
  C   C4390     1.0  0.76037  0.23243  0.45943  1.0000
  C   C4391     1.0  0.62215  0.10916  0.07861  1.0000
  C   C4392     1.0  0.59599  0.42278  0.08135  1.0000
  H   H3503     1.0  0.76718  0.32031  0.39820  1.0000
  H   H3504     1.0  0.68080  0.12462  0.24557  1.0000
  C   C4393     1.0  0.67225  0.40796  0.02829  1.0000
  Fe  Fe295     1.0  0.77236  0.21942  0.22052  1.0000
  H   H3505     1.0  0.69438  0.00604  0.04593  1.0000
  H   H3506     1.0  0.61043  0.13824  0.02366  1.0000
  H   H3507     1.0  0.60301  0.44302  0.09545  1.0000
  C   C4394     1.0  0.76852  0.29674  0.40564  1.0000
  H   H3508     1.0  0.66151  0.47789  0.41248  1.0000
  C   C4395     1.0  0.76496  0.08601  0.16296  1.0000
  C   C4396     1.0  0.75679  0.09689  0.16847  1.0000
  C   C4397     1.0  0.75798  0.10325  0.19128  1.0000
  Fe  Fe296     1.0  0.74934  0.00653  0.17277  1.0000
  H   H3509     1.0  0.71661  0.12880  0.27710  1.0000
  C   C4398     1.0  0.61799  0.44510  0.37000  1.0000
  C   C4399     1.0  0.63046  0.45538  0.13847  1.0000
  C   C4400     1.0  0.61345  0.13009  0.03931  1.0000
  C   C4401     1.0  0.61021  0.06797  0.09628  1.0000
  H   H3510     1.0  0.66809  0.45211  0.44353  1.0000
  H   H3511     1.0  0.75752  0.07236  0.25764  1.0000
  H   H3512     1.0  0.68842  0.47718  0.30436  1.0000
  H   H3513     1.0  0.59619  0.14215  0.25447  1.0000
  H   H3514     1.0  0.65722  0.40992  0.44130  1.0000
  H   H3515     1.0  0.75779  0.04393  0.22861  1.0000
  H   H3516     1.0  0.72269  0.42318  0.43058  1.0000
  H   H3517     1.0  0.70013  0.46625  0.39386  1.0000
  H   H3518     1.0  0.76402  0.08103  0.14537  1.0000
  H   H3519     1.0  0.75192  0.11199  0.19471  1.0000
  C   C4402     1.0  0.61697  0.05755  0.21406  1.0000
  H   H3520     1.0  0.70209  0.44338  0.42833  1.0000
  H   H3521     1.0  0.61847  0.47688  0.39537  1.0000
  C   C4403     1.0  0.77437  0.31267  0.39333  1.0000
  C   C4404     1.0  0.77445  0.08159  0.18007  1.0000
  H   H3522     1.0  0.73568  0.09485  0.24473  1.0000
  H   H3523     1.0  0.76801  0.40489  0.08498  1.0000
  C   C4405     1.0  0.76453  0.47443  0.38357  1.0000
  C   C4406     1.0  0.60099  0.43912  0.24911  1.0000
  C   C4407     1.0  0.68396  0.03078  0.16956  1.0000
  C   C4408     1.0  0.74985  0.04673  0.19069  1.0000
  C   C4409     1.0  0.74828  0.04552  0.21947  1.0000
  C   C4410     1.0  0.73435  0.04591  0.23654  1.0000
  C   C4411     1.0  0.72202  0.04765  0.22477  1.0000
  C   C4412     1.0  0.72362  0.04930  0.19566  1.0000
  C   C4413     1.0  0.73759  0.04859  0.17878  1.0000
  P   P141      1.0  0.70734  0.05114  0.18116  1.0000
  C   C4414     1.0  0.69525  0.03222  0.18472  1.0000
  C   C4415     1.0  0.69714  0.06261  0.19950  1.0000
  C   C4416     1.0  0.68099  0.05885  0.20767  1.0000
  C   C4417     1.0  0.67336  0.06846  0.22025  1.0000
  C   C4418     1.0  0.68177  0.08185  0.22479  1.0000
  C   C4419     1.0  0.69785  0.08558  0.21697  1.0000
  C   C4420     1.0  0.70552  0.07602  0.20438  1.0000
  H   H3524     1.0  0.62245  0.07282  0.08683  1.0000
  C   C4421     1.0  0.69019  0.40069  0.99358  1.0000
  H   H3525     1.0  0.74779  0.28066  0.04588  1.0000
  H   H3526     1.0  0.70631  0.22685  0.04904  1.0000
  C   C4422     1.0  0.69760  0.01878  0.20104  1.0000
  C   C4423     1.0  0.71332  0.06084  0.14376  1.0000
  C   C4424     1.0  0.71914  0.05301  0.12440  1.0000
  C   C4425     1.0  0.72298  0.05988  0.09531  1.0000
  C   C4426     1.0  0.72085  0.07458  0.08525  1.0000
  C   C4427     1.0  0.71487  0.08241  0.10431  1.0000
  C   C4428     1.0  0.71109  0.07559  0.13345  1.0000
  H   H3527     1.0  0.76055  0.04599  0.17768  1.0000
  C   C4429     1.0  0.77761  0.28655  0.40055  1.0000
  H   H3528     1.0  0.71117  0.04754  0.23845  1.0000
  H   H3529     1.0  0.73907  0.04918  0.15660  1.0000
  H   H3530     1.0  0.67419  0.04880  0.20366  1.0000
  H   H3531     1.0  0.74771  0.48195  0.41096  1.0000
  H   H3532     1.0  0.67585  0.08956  0.23365  1.0000
  H   H3533     1.0  0.70435  0.09620  0.21972  1.0000
  H   H3534     1.0  0.71799  0.07932  0.19766  1.0000
  H   H3535     1.0  0.68205  0.04097  0.15652  1.0000
  C   C4430     1.0  0.61409  0.46613  0.33561  1.0000
  H   H3536     1.0  0.70657  0.01944  0.21214  1.0000
  H   H3537     1.0  0.72049  0.04146  0.13189  1.0000
  H   H3538     1.0  0.72736  0.05364  0.08063  1.0000
  H   H3539     1.0  0.72358  0.07980  0.06269  1.0000
  H   H3540     1.0  0.71283  0.09365  0.09656  1.0000
  H   H3541     1.0  0.70605  0.08175  0.14760  1.0000
  C   C4431     1.0  0.75162  0.43693  0.44700  1.0000
  C   C4432     1.0  0.62790  0.17138  0.19171  1.0000
  C   C4433     1.0  0.61261  0.16775  0.19011  1.0000
  S   S596      1.0  0.58766  0.40105  0.40413  1.0000
  C   C4434     1.0  0.60521  0.15013  0.23699  1.0000
  C   C4435     1.0  0.62062  0.15330  0.23836  1.0000
  C   C4436     1.0  0.63186  0.16437  0.21594  1.0000
  P   P142      1.0  0.62572  0.14458  0.26985  1.0000
  C   C4437     1.0  0.64344  0.13878  0.26168  1.0000
  C   C4438     1.0  0.62698  0.15900  0.28961  1.0000
  C   C4439     1.0  0.61348  0.16202  0.30365  1.0000
  C   C4440     1.0  0.61424  0.17319  0.31892  1.0000
  C   C4441     1.0  0.62853  0.18189  0.31937  1.0000
  C   C4442     1.0  0.64208  0.17952  0.30423  1.0000
  C   C4443     1.0  0.64134  0.16809  0.28942  1.0000
  S   S597      1.0  0.77306  0.42037  0.43647  1.0000
  C   C4444     1.0  0.60603  0.03572  0.19770  1.0000
  H   H3542     1.0  0.76164  0.05291  0.29584  1.0000
  H   H3543     1.0  0.61425  0.48731  0.34855  1.0000
  C   C4445     1.0  0.65093  0.13502  0.28303  1.0000
  C   C4446     1.0  0.61134  0.12676  0.28887  1.0000
  C   C4447     1.0  0.60444  0.12357  0.31795  1.0000
  H   H3544     1.0  0.61361  0.05301  0.13244  1.0000
  C   C4448     1.0  0.69967  0.99779  0.03760  1.0000
  C   C4449     1.0  0.73302  0.39715  0.39589  1.0000
  H   H3545     1.0  0.74324  0.39400  0.38631  1.0000
  H   H3546     1.0  0.63666  0.17962  0.17414  1.0000
  C   C4450     1.0  0.77867  0.37357  0.09871  1.0000
  C   C4451     1.0  0.76864  0.10908  0.36651  1.0000
  H   H3547     1.0  0.60920  0.00140  0.12230  1.0000
  H   H3548     1.0  0.64368  0.16742  0.21715  1.0000
  H   H3549     1.0  0.60229  0.15565  0.30299  1.0000
  H   H3550     1.0  0.60368  0.17508  0.33040  1.0000
  H   H3551     1.0  0.62901  0.19054  0.33127  1.0000
  H   H3552     1.0  0.65315  0.18653  0.30403  1.0000
  H   H3553     1.0  0.65195  0.16654  0.27762  1.0000
  H   H3554     1.0  0.72992  0.22549  0.13844  1.0000
  S   S598      1.0  0.70411  0.46399  0.46227  1.0000
  H   H3555     1.0  0.62411  0.47431  0.24294  1.0000
  C   C4452     1.0  0.59531  0.10227  0.28797  1.0000
  H   H3556     1.0  0.64623  0.13581  0.30422  1.0000
  H   H3557     1.0  0.60771  0.13160  0.33006  1.0000
  C   C4453     1.0  0.77981  0.08561  0.30993  1.0000
  H   H3558     1.0  0.77758  0.13977  0.30877  1.0000
  C   C4454     1.0  0.73445  0.40943  0.40853  1.0000
  H   H3559     1.0  0.67104  0.99145  0.18735  1.0000
  C   C4455     1.0  0.61564  0.45092  0.34347  1.0000
  C   C4456     1.0  0.67040  0.12857  0.25018  1.0000
  C   C4457     1.0  0.61618  0.44547  0.14102  1.0000
  H   H3560     1.0  0.69532  0.20543  0.98353  1.0000
  C   C4458     1.0  0.77304  0.22935  0.13614  1.0000
  C   C4459     1.0  0.76878  0.13421  0.37528  1.0000
  C   C4460     1.0  0.68834  0.42674  0.41281  1.0000
  H   H3561     1.0  0.58971  0.24458  0.02977  1.0000
  C   C4461     1.0  0.69111  0.41534  0.47103  1.0000
  C   C4462     1.0  0.63845  0.14939  0.41906  1.0000
  H   H3562     1.0  0.70040  0.24539  0.00396  1.0000
  C   C4463     1.0  0.60514  0.05667  0.12214  1.0000
  H   H3563     1.0  0.77308  0.18640  0.47430  1.0000
  H   H3564     1.0  0.62059  0.44979  0.40937  1.0000
  C   C4464     1.0  0.75542  0.01625  0.08313  1.0000
  S   S599      1.0  0.60586  0.45797  0.98211  1.0000
  C   C4465     1.0  0.71844  0.38904  0.39555  1.0000
  C   C4466     1.0  0.65800  0.39810  0.44813  1.0000
  H   H3565     1.0  0.68281  0.46526  0.26644  1.0000
  C   C4467     1.0  0.74105  0.13202  0.27134  1.0000
  S   S600      1.0  0.73135  0.01457  0.15195  1.0000
  C   C4468     1.0  0.73736  0.10537  0.25171  1.0000
  C   C4469     1.0  0.74311  0.27454  0.23728  1.0000
  C   C4470     1.0  0.63117  0.46945  0.14560  1.0000
  H   H3566     1.0  0.68941  0.48142  0.21687  1.0000
  H   H3567     1.0  0.77630  0.06125  0.32880  1.0000
  C   C4471     1.0  0.69041  0.15623  0.30178  1.0000
  C   C4472     1.0  0.69529  0.16626  0.27457  1.0000
  C   C4473     1.0  0.69540  0.18189  0.27076  1.0000
  C   C4474     1.0  0.69056  0.18752  0.29410  1.0000
  C   C4475     1.0  0.68527  0.17743  0.32148  1.0000
  C   C4476     1.0  0.68540  0.16176  0.32514  1.0000
  P   P143      1.0  0.67988  0.18459  0.35216  1.0000
  C   C4477     1.0  0.67349  0.20205  0.34266  1.0000
  C   C4478     1.0  0.66427  0.16998  0.37847  1.0000
  C   C4479     1.0  0.66361  0.16732  0.40744  1.0000
  C   C4480     1.0  0.65075  0.15705  0.42761  1.0000
  C   C4481     1.0  0.77547  0.41629  0.07400  1.0000
  C   C4482     1.0  0.63916  0.15170  0.39029  1.0000
  C   C4483     1.0  0.65206  0.16184  0.37007  1.0000
  C   C4484     1.0  0.68441  0.21621  0.32901  1.0000
  C   C4485     1.0  0.67984  0.23003  0.32340  1.0000
  C   C4486     1.0  0.66428  0.22982  0.33147  1.0000
  C   C4487     1.0  0.65329  0.21576  0.34479  1.0000
  C   C4488     1.0  0.65786  0.20193  0.35030  1.0000
  C   C4489     1.0  0.69634  0.18955  0.36618  1.0000
  C   C4490     1.0  0.70978  0.18479  0.35747  1.0000
  C   C4491     1.0  0.72256  0.18918  0.36790  1.0000
  C   C4492     1.0  0.72201  0.19831  0.38707  1.0000
  C   C4493     1.0  0.70868  0.20308  0.39582  1.0000
  C   C4494     1.0  0.69594  0.19882  0.38528  1.0000
  H   H3568     1.0  0.69081  0.14424  0.30478  1.0000
  H   H3569     1.0  0.69934  0.16205  0.25644  1.0000
  H   H3570     1.0  0.69969  0.18969  0.24968  1.0000
  H   H3571     1.0  0.69128  0.19977  0.29065  1.0000
  H   H3572     1.0  0.68191  0.15389  0.34613  1.0000
  H   H3573     1.0  0.67275  0.17342  0.41466  1.0000
  H   H3574     1.0  0.77290  0.27417  0.40978  1.0000
  H   H3575     1.0  0.65227  0.16373  0.34793  1.0000
  H   H3576     1.0  0.69651  0.21657  0.32318  1.0000
  H   H3577     1.0  0.68844  0.24092  0.31344  1.0000
  H   H3578     1.0  0.66073  0.24055  0.32792  1.0000
  H   H3579     1.0  0.64124  0.21559  0.35185  1.0000
  H   H3580     1.0  0.64912  0.19134  0.36144  1.0000
  H   H3581     1.0  0.71068  0.17813  0.34200  1.0000
  H   H3582     1.0  0.73308  0.18593  0.36031  1.0000
  H   H3583     1.0  0.73209  0.20219  0.39433  1.0000
  H   H3584     1.0  0.70841  0.21060  0.40996  1.0000
  H   H3585     1.0  0.68587  0.20300  0.39158  1.0000
  H   H3586     1.0  0.60918  0.46609  0.47410  1.0000
  C   C4495     1.0  0.68815  0.47757  0.26145  1.0000
  C   C4496     1.0  0.76884  0.34384  0.35082  1.0000
  C   C4497     1.0  0.68065  0.42476  0.39180  1.0000
  C   C4498     1.0  0.74362  0.23787  0.05075  1.0000
  H   H3587     1.0  0.66088  0.06578  0.22550  1.0000
  H   H3588     1.0  0.67333  0.43609  0.35644  1.0000
  H   H3589     1.0  0.76921  0.32620  0.29083  1.0000
  C   C4499     1.0  0.77315  0.28194  0.17712  1.0000
  H   H3590     1.0  0.66282  0.00870  0.99486  1.0000
  H   H3591     1.0  0.68564  0.46266  0.35801  1.0000
  C   C4500     1.0  0.62747  0.48442  0.07736  1.0000
  C   C4501     1.0  0.59567  0.13694  0.12022  1.0000
  H   H3592     1.0  0.66701  0.20131  0.99932  1.0000
  H   H3593     1.0  0.78088  0.07321  0.17576  1.0000
  C   C4502     1.0  0.75639  0.35057  0.35416  1.0000
  H   H3594     1.0  0.66996  0.12682  0.29387  1.0000
  C   C4503     1.0  0.59233  0.11197  0.20855  1.0000
  C   C4504     1.0  0.74840  0.21430  0.13501  1.0000
  H   H3595     1.0  0.65500  0.41774  0.01301  1.0000
  S   S601      1.0  0.76622  0.29401  0.98734  1.0000
  P   P144      1.0  0.76560  0.29335  0.28960  1.0000
  C   C4505     1.0  0.76390  0.35617  0.07778  1.0000
  C   C4506     1.0  0.59482  0.15763  0.04311  1.0000
  P   P145      1.0  0.76869  0.10643  0.23883  1.0000
  H   H3596     1.0  0.73471  0.45006  0.45486  1.0000
  H   H3597     1.0  0.71321  0.10485  0.26057  1.0000
  C   C4507     1.0  0.77007  0.09209  0.26851  1.0000
  C   C4508     1.0  0.60250  0.44976  0.15016  1.0000
  C   C4509     1.0  0.76962  0.36708  0.05151  1.0000
  H   H3598     1.0  0.71104  0.01977  0.11584  1.0000
  C   C4510     1.0  0.78135  0.34864  0.36179  1.0000
  H   H3599     1.0  0.60429  0.15872  0.05305  1.0000
  C   C4511     1.0  0.75385  0.12649  0.26223  1.0000
  H   H3600     1.0  0.77348  0.16331  0.45600  1.0000
  C   C4512     1.0  0.69465  0.99792  0.12295  1.0000
  H   H3601     1.0  0.72845  0.24970  0.03253  1.0000
  H   H3602     1.0  0.75617  0.34511  0.07973  1.0000
  S   S602      1.0  0.76906  0.21116  0.26761  1.0000
  C   C4513     1.0  0.76587  0.06516  0.29394  1.0000
  H   H3603     1.0  0.74541  0.00803  0.02533  1.0000
  H   H3604     1.0  0.64133  0.04415  0.01407  1.0000
  H   H3605     1.0  0.69618  0.45474  0.00440  1.0000
  C   C4514     1.0  0.76374  0.07624  0.27208  1.0000
  Fe  Fe297     1.0  0.59616  0.40882  0.43943  1.0000
  H   H3606     1.0  0.74679  0.36747  0.37086  1.0000
  C   C4515     1.0  0.70761  0.00763  0.12698  1.0000
  S   S603      1.0  0.77356  0.02120  0.15215  1.0000
  C   C4516     1.0  0.59954  0.07305  0.08279  1.0000
  C   C4517     1.0  0.76667  0.24181  0.13895  1.0000
  H   H3607     1.0  0.77359  0.45383  0.05389  1.0000
  H   H3608     1.0  0.58935  0.15469  0.21202  1.0000
  C   C4518     1.0  0.59555  0.43142  0.10132  1.0000
  H   H3609     1.0  0.75574  0.24341  0.26398  1.0000
  S   S604      1.0  0.75127  0.00737  0.21676  1.0000
  C   C4519     1.0  0.77496  0.32579  0.27000  1.0000
  C   C4520     1.0  0.60701  0.11578  0.27421  1.0000
  H   H3610     1.0  0.60650  0.07672  0.20836  1.0000
  C   C4521     1.0  0.77771  0.09673  0.28813  1.0000
  H   H3611     1.0  0.74770  0.29637  0.24763  1.0000
  H   H3612     1.0  0.62552  0.03717  0.21574  1.0000
  H   H3613     1.0  0.64222  0.47733  0.14298  1.0000
  H   H3614     1.0  0.65012  0.15530  0.44994  1.0000
  C   C4522     1.0  0.59278  0.11000  0.33171  1.0000
  H   H3615     1.0  0.71370  0.99636  0.06684  1.0000
  C   C4523     1.0  0.67224  0.39475  0.44879  1.0000
  H   H3616     1.0  0.60017  0.10668  0.10652  1.0000
  S   S605      1.0  0.66131  0.99570  0.07017  1.0000
  H   H3617     1.0  0.63572  0.13271  0.01173  1.0000
  C   C4524     1.0  0.61760  0.47354  0.15557  1.0000
  H   H3618     1.0  0.76251  0.14273  0.37909  1.0000
  C   C4525     1.0  0.64764  0.43751  0.43844  1.0000
  C   C4526     1.0  0.58599  0.40805  0.08799  1.0000
  S   S606      1.0  0.76704  0.19541  0.21349  1.0000
  C   C4527     1.0  0.64126  0.48752  0.27477  1.0000
  H   H3619     1.0  0.76872  0.20573  0.13332  1.0000
  C   C4528     1.0  0.59525  0.04337  0.18906  1.0000
  H   H3620     1.0  0.76229  0.25784  0.18443  1.0000
  P   P146      1.0  0.68965  0.41024  0.43855  1.0000
  C   C4529     1.0  0.66282  0.13196  0.22905  1.0000
  H   H3621     1.0  0.71734  0.37965  0.38540  1.0000
  H   H3622     1.0  0.73679  0.27826  0.22221  1.0000
  H   H3623     1.0  0.74579  0.41571  0.40875  1.0000
  C   C4530     1.0  0.76650  0.33538  0.46919  1.0000
  H   H3624     1.0  0.69061  0.39809  0.03744  1.0000
  C   C4531     1.0  0.77953  0.28609  0.30566  1.0000
  C   C4532     1.0  0.67372  0.19996  0.01475  1.0000
  C   C4533     1.0  0.76098  0.12051  0.37072  1.0000
  C   C4534     1.0  0.75482  0.30220  0.33853  1.0000
  C   C4535     1.0  0.75651  0.36239  0.36795  1.0000
  C   C4536     1.0  0.75375  0.45450  0.36254  1.0000
  H   H3625     1.0  0.67525  0.41325  0.39085  1.0000
  C   C4537     1.0  0.73405  0.41772  0.02288  1.0000
  H   H3626     1.0  0.75752  0.27240  0.08739  1.0000
  C   C4538     1.0  0.77450  0.27476  0.33167  1.0000
  H   H3627     1.0  0.59290  0.46707  0.16604  1.0000
  H   H3628     1.0  0.72719  0.22568  0.18938  1.0000
  C   C4539     1.0  0.66463  0.41273  0.00785  1.0000
  H   H3629     1.0  0.74658  0.34650  0.34634  1.0000
  H   H3630     1.0  0.76381  0.35104  0.12181  1.0000
  H   H3631     1.0  0.73430  0.19985  0.08629  1.0000
  H   H3632     1.0  0.66730  0.13054  0.20825  1.0000
  C   C4540     1.0  0.76387  0.21553  0.13454  1.0000
  H   H3633     1.0  0.59340  0.11839  0.22417  1.0000
  C   C4541     1.0  0.77902  0.17207  0.35007  1.0000
  H   H3634     1.0  0.58964  0.44311  0.31561  1.0000
  H   H3635     1.0  0.58810  0.46805  0.11478  1.0000
  H   H3636     1.0  0.76016  0.02598  0.09068  1.0000
  H   H3637     1.0  0.74250  0.14232  0.27904  1.0000
  C   C4542     1.0  0.77068  0.19402  0.36170  1.0000
  C   C4543     1.0  0.75385  0.25492  0.26073  1.0000
  P   P147      1.0  0.58313  0.03574  0.16835  1.0000
  H   H3638     1.0  0.73302  0.04455  0.25899  1.0000
  H   H3639     1.0  0.77798  0.46485  0.35412  1.0000
  C   C4544     1.0  0.64547  0.03803  0.99894  1.0000
  H   H3640     1.0  0.74898  0.11875  0.37045  1.0000
  C   C4545     1.0  0.59774  0.01636  0.14182  1.0000
  H   H3641     1.0  0.65396  0.02339  0.02853  1.0000
  C   C4546     1.0  0.76915  0.36759  0.37813  1.0000
  C   C4547     1.0  0.76828  0.35950  0.10144  1.0000
  H   H3642     1.0  0.72896  0.44645  0.37445  1.0000
  C   C4548     1.0  0.76339  0.26951  0.17214  1.0000
  C   C4549     1.0  0.71590  0.00175  0.14563  1.0000
  H   H3643     1.0  0.74178  0.33847  0.42680  1.0000
  C   C4550     1.0  0.75094  0.24044  0.14070  1.0000
  C   C4551     1.0  0.70656  0.40486  0.42228  1.0000
  H   H3644     1.0  0.76260  0.09844  0.36305  1.0000
  C   C4552     1.0  0.73276  0.21060  0.07471  1.0000
  C   C4553     1.0  0.62781  0.12683  0.03224  1.0000
  H   H3645     1.0  0.60512  0.02667  0.12627  1.0000
  H   H3646     1.0  0.75688  0.42754  0.07918  1.0000
  C   C4554     1.0  0.70611  0.18451  0.46595  1.0000
  C   C4555     1.0  0.76728  0.16198  0.47759  1.0000
  H   H3647     1.0  0.64273  0.47584  0.27949  1.0000
  C   C4556     1.0  0.70526  0.39299  0.40841  1.0000
  C   C4557     1.0  0.60016  0.00198  0.13948  1.0000
  C   C4558     1.0  0.78005  0.38112  0.04870  1.0000
  C   C4559     1.0  0.75206  0.30978  0.46792  1.0000
  C   C4560     1.0  0.77484  0.29708  0.16158  1.0000
  H   H3648     1.0  0.68728  0.32681  0.01312  1.0000
  C   C4561     1.0  0.58615  0.01723  0.16420  1.0000
  S   S607      1.0  0.58836  0.41595  0.98101  1.0000
  H   H3649     1.0  0.60657  0.02457  0.19394  1.0000
  C   C4562     1.0  0.77689  0.19207  0.38509  1.0000
  Fe  Fe298     1.0  0.78017  0.99865  0.15665  1.0000
  H   H3650     1.0  0.65934  0.35555  0.47646  1.0000
  P   P148      1.0  0.58496  0.12725  0.07664  1.0000
  C   C4563     1.0  0.65761  0.01803  0.98819  1.0000
  H   H3651     1.0  0.68331  0.37658  0.46179  1.0000
  H   H3652     1.0  0.67300  0.45204  0.98568  1.0000
  H   H3653     1.0  0.69218  0.16540  0.45620  1.0000
  H   H3654     1.0  0.58680  0.40703  0.18359  1.0000
  C   C4564     1.0  0.69702  0.45311  0.98341  1.0000
  C   C4565     1.0  0.67259  0.37936  0.45968  1.0000
  H   H3655     1.0  0.77982  0.16454  0.33606  1.0000
  H   H3656     1.0  0.77618  0.19995  0.39847  1.0000
  H   H3657     1.0  0.61821  0.48453  0.16077  1.0000
  H   H3658     1.0  0.77951  0.27981  0.19289  1.0000
  C   C4566     1.0  0.69082  0.33937  0.00753  1.0000
  C   C4567     1.0  0.66917  0.48394  0.39177  1.0000
  H   H3659     1.0  0.78087  0.25891  0.36282  1.0000
  H   H3660     1.0  0.67210  0.42613  0.47266  1.0000
  S   S608      1.0  0.72440  0.27380  0.98746  1.0000
  H   H3661     1.0  0.71513  0.42034  0.00507  1.0000
  H   H3662     1.0  0.65218  0.18703  0.47331  1.0000
  H   H3663     1.0  0.74317  0.48585  0.32956  1.0000
  H   H3664     1.0  0.70958  0.40447  0.47766  1.0000
  C   C4568     1.0  0.58287  0.13275  0.10955  1.0000
  C   C4569     1.0  0.70485  0.34723  0.98788  1.0000
  C   C4570     1.0  0.71079  0.99237  0.04922  1.0000
  H   H3665     1.0  0.71615  0.48623  0.33153  1.0000
  C   C4571     1.0  0.69517  0.99237  0.01572  1.0000
  C   C4572     1.0  0.74240  0.99094  0.06470  1.0000
  P   P149      1.0  0.78091  0.48789  0.38698  1.0000
  C   C4573     1.0  0.70949  0.36341  0.98064  1.0000
  H   H3666     1.0  0.78184  0.37590  0.11732  1.0000
  H   H3667     1.0  0.76429  0.99065  0.01774  1.0000
  H   H3668     1.0  0.65046  0.48764  0.01277  1.0000
  C   C4574     1.0  0.58806  0.48750  0.28491  1.0000
  P   P150      1.0  0.70659  0.39285  0.98446  1.0000
  C   C4575     1.0  0.78157  0.36082  0.37497  1.0000
  H   H3669     1.0  0.58255  0.17861  0.99144  1.0000
  Fe  Fe299     1.0  0.74342  0.29640  0.97907  1.0000
  C   C4576     1.0  0.66959  0.41128  0.98047  1.0000
  Fe  Fe300     1.0  0.76147  0.22190  0.62909  1.0000
  S   S609      1.0  0.74627  0.22885  0.66245  1.0000
  S   S610      1.0  0.76670  0.23479  0.58327  1.0000
  Fe  Fe301     1.0  0.73719  0.20331  0.68293  1.0000
  S   S611      1.0  0.71161  0.19518  0.70476  1.0000
  S   S612      1.0  0.75099  0.19627  0.64738  1.0000
  H   H3670     1.0  0.61498  0.98997  0.97252  1.0000
  S   S613      1.0  0.69601  0.46977  0.52517  1.0000
  C   C4577     1.0  0.76494  0.29727  0.79735  1.0000
  H   H3671     1.0  0.64773  0.48200  0.66305  1.0000
  C   C4578     1.0  0.66934  0.21403  0.53909  1.0000
  H   H3672     1.0  0.59229  0.47937  0.68987  1.0000
  C   C4579     1.0  0.61461  0.02235  0.94422  1.0000
  H   H3673     1.0  0.76406  0.24853  0.52855  1.0000
  C   C4580     1.0  0.75792  0.37218  0.95760  1.0000
  H   H3674     1.0  0.58227  0.18038  0.64194  1.0000
  H   H3675     1.0  0.68991  0.27087  0.85290  1.0000
  C   C4581     1.0  0.58309  0.48742  0.55962  1.0000
  H   H3676     1.0  0.66195  0.24911  0.51748  1.0000
  C   C4582     1.0  0.64875  0.44784  0.47924  1.0000
  C   C4583     1.0  0.64939  0.09008  0.88525  1.0000
  Fe  Fe302     1.0  0.77718  0.99502  0.69950  1.0000
  C   C4584     1.0  0.63682  0.44902  0.81383  1.0000
  C   C4585     1.0  0.63673  0.47931  0.54287  1.0000
  S   S614      1.0  0.76493  0.44818  0.92856  1.0000
  C   C4586     1.0  0.76225  0.40027  0.95049  1.0000
  C   C4587     1.0  0.58783  0.45610  0.91509  1.0000
  H   H3677     1.0  0.58583  0.47960  0.84568  1.0000
  S   S615      1.0  0.64339  0.47285  0.96288  1.0000
  S   S616      1.0  0.63976  0.21370  0.96996  1.0000
  Fe  Fe303     1.0  0.62392  0.47082  0.94200  1.0000
  H   H3678     1.0  0.74970  0.43012  0.52673  1.0000
  S   S617      1.0  0.62676  0.44917  0.92930  1.0000
  S   S618      1.0  0.63183  0.01462  0.77734  1.0000
  H   H3679     1.0  0.59723  0.48637  0.61779  1.0000
  S   S619      1.0  0.66253  0.19469  0.94053  1.0000
  Fe  Fe304     1.0  0.62462  0.20784  0.94152  1.0000
  S   S620      1.0  0.64474  0.21553  0.90272  1.0000
  S   S621      1.0  0.60079  0.21231  0.95162  1.0000
  Fe  Fe305     1.0  0.64587  0.19054  0.91355  1.0000
  S   S622      1.0  0.65096  0.17553  0.88327  1.0000
  Fe  Fe306     1.0  0.66010  0.21922  0.93241  1.0000
  S   S623      1.0  0.68137  0.24026  0.91940  1.0000
  C   C4588     1.0  0.58491  0.48723  0.69066  1.0000
  Fe  Fe307     1.0  0.64512  0.45012  0.95354  1.0000
  H   H3680     1.0  0.75932  0.47473  0.49027  1.0000
  S   S624      1.0  0.75461  0.31564  0.93908  1.0000
  H   H3681     1.0  0.76010  0.13707  0.48712  1.0000
  H   H3682     1.0  0.66816  0.16560  0.48878  1.0000
  C   C4589     1.0  0.64313  0.17851  0.49002  1.0000
  Fe  Fe308     1.0  0.60598  0.11179  0.74020  1.0000
  S   S625      1.0  0.60218  0.10625  0.78753  1.0000
  C   C4590     1.0  0.71216  0.45040  0.93999  1.0000
  Fe  Fe309     1.0  0.64072  0.12605  0.73039  1.0000
  S   S626      1.0  0.63933  0.12119  0.77691  1.0000
  S   S627      1.0  0.66351  0.13642  0.69661  1.0000
  Fe  Fe310     1.0  0.62387  0.09805  0.77993  1.0000
  S   S628      1.0  0.62563  0.07680  0.81094  1.0000
  Fe  Fe311     1.0  0.61796  0.12976  0.78090  1.0000
  S   S629      1.0  0.61160  0.14630  0.80714  1.0000
  S   S630      1.0  0.62679  0.10209  0.73302  1.0000
  S   S631      1.0  0.62021  0.13616  0.73391  1.0000
  C   C4591     1.0  0.63887  0.16665  0.86450  1.0000
  C   C4592     1.0  0.62614  0.17178  0.85897  1.0000
  C   C4593     1.0  0.61777  0.16526  0.84174  1.0000
  C   C4594     1.0  0.62194  0.15348  0.83008  1.0000
  C   C4595     1.0  0.63430  0.14794  0.83655  1.0000
  C   C4596     1.0  0.64279  0.15461  0.85342  1.0000
  H   H3683     1.0  0.62300  0.18106  0.86727  1.0000
  H   H3684     1.0  0.60823  0.16961  0.83692  1.0000
  H   H3685     1.0  0.63759  0.13884  0.82787  1.0000
  H   H3686     1.0  0.65269  0.15068  0.85739  1.0000
  C   C4597     1.0  0.69293  0.24955  0.93903  1.0000
  H   H3687     1.0  0.70097  0.24831  0.86149  1.0000
  C   C4598     1.0  0.61521  0.44970  0.60574  1.0000
  H   H3688     1.0  0.77701  0.18041  0.62458  1.0000
  C   C4599     1.0  0.71354  0.27140  0.93954  1.0000
  C   C4600     1.0  0.70396  0.26375  0.92516  1.0000
  H   H3689     1.0  0.76924  0.31355  0.49116  1.0000
  H   H3690     1.0  0.69778  0.99303  0.64440  1.0000
  H   H3691     1.0  0.72172  0.28241  0.92857  1.0000
  H   H3692     1.0  0.70498  0.26903  0.90321  1.0000
  C   C4601     1.0  0.62961  0.03178  0.78663  1.0000
  C   C4602     1.0  0.63137  0.04531  0.76543  1.0000
  C   C4603     1.0  0.62998  0.05920  0.77252  1.0000
  C   C4604     1.0  0.62682  0.05958  0.80088  1.0000
  C   C4605     1.0  0.62496  0.04601  0.82199  1.0000
  C   C4606     1.0  0.62633  0.03215  0.81492  1.0000
  H   H3693     1.0  0.63383  0.04509  0.74349  1.0000
  H   H3694     1.0  0.63144  0.06959  0.75607  1.0000
  H   H3695     1.0  0.62232  0.04623  0.84388  1.0000
  H   H3696     1.0  0.62499  0.02175  0.83125  1.0000
  C   C4607     1.0  0.67184  0.05557  0.77080  1.0000
  H   H3697     1.0  0.62556  0.45268  0.58871  1.0000
  H   H3698     1.0  0.66373  0.41509  0.96458  1.0000
  S   S632      1.0  0.64431  0.98950  0.83997  1.0000
  H   H3699     1.0  0.75142  0.17450  0.59059  1.0000
  C   C4608     1.0  0.67429  0.03406  0.64808  1.0000
  H   H3700     1.0  0.72947  0.42186  0.95160  1.0000
  C   C4609     1.0  0.68206  0.02229  0.85904  1.0000
  Fe  Fe312     1.0  0.77714  0.31432  0.94948  1.0000
  H   H3701     1.0  0.72301  0.44993  0.92723  1.0000
  S   S633      1.0  0.74663  0.35440  0.95565  1.0000
  C   C4610     1.0  0.59222  0.48384  0.57822  1.0000
  H   H3702     1.0  0.77365  0.36209  0.97722  1.0000
  H   H3703     1.0  0.72307  0.27928  0.55293  1.0000
  H   H3704     1.0  0.71534  0.17120  0.67503  1.0000
  C   C4611     1.0  0.67865  0.17418  0.48668  1.0000
  S   S634      1.0  0.65887  0.45828  0.49901  1.0000
  S   S635      1.0  0.66820  0.44656  0.93233  1.0000
  H   H3705     1.0  0.59796  0.41837  0.92002  1.0000
  C   C4612     1.0  0.71501  0.18619  0.57497  1.0000
  H   H3706     1.0  0.58938  0.44095  0.48982  1.0000
  C   C4613     1.0  0.76696  0.17501  0.48802  1.0000
  C   C4614     1.0  0.59331  0.21095  0.90115  1.0000
  C   C4615     1.0  0.72563  0.23169  0.54432  1.0000
  H   H3707     1.0  0.60546  0.21256  0.89201  1.0000
  C   C4616     1.0  0.77602  0.19436  0.54292  1.0000
  Fe  Fe313     1.0  0.71630  0.46579  0.49642  1.0000
  C   C4617     1.0  0.64349  0.04163  0.97152  1.0000
  H   H3708     1.0  0.70538  0.00624  0.70879  1.0000
  C   C4618     1.0  0.65426  0.48203  0.64239  1.0000
  C   C4619     1.0  0.59966  0.01462  0.94502  1.0000
  H   H3709     1.0  0.74382  0.19370  0.48364  1.0000
  C   C4620     1.0  0.68237  0.00622  0.73113  1.0000
  C   C4621     1.0  0.77863  0.29212  0.53913  1.0000
  H   H3710     1.0  0.64577  0.20700  0.49609  1.0000
  H   H3711     1.0  0.59099  0.07906  0.71467  1.0000
  H   H3712     1.0  0.76702  0.41882  0.49672  1.0000
  C   C4622     1.0  0.66076  0.20554  0.52455  1.0000
  H   H3713     1.0  0.70490  0.18971  0.57084  1.0000
  H   H3714     1.0  0.77242  0.23283  0.77298  1.0000
  H   H3715     1.0  0.66030  0.04995  0.81510  1.0000
  H   H3716     1.0  0.65167  0.16639  0.77392  1.0000
  C   C4623     1.0  0.77278  0.38453  0.86926  1.0000
  H   H3717     1.0  0.67875  0.16415  0.54903  1.0000
  H   H3718     1.0  0.63241  0.43377  0.85549  1.0000
  S   S636      1.0  0.77734  0.33196  0.97457  1.0000
  H   H3719     1.0  0.74192  0.24721  0.50704  1.0000
  H   H3720     1.0  0.63810  0.46187  0.64037  1.0000
  C   C4624     1.0  0.63295  0.44057  0.49071  1.0000
  C   C4625     1.0  0.75755  0.27914  0.52342  1.0000
  C   C4626     1.0  0.75081  0.23311  0.56859  1.0000
  C   C4627     1.0  0.73629  0.22373  0.58424  1.0000
  C   C4628     1.0  0.72371  0.22308  0.57212  1.0000
  C   C4629     1.0  0.75278  0.24143  0.54069  1.0000
  H   H3721     1.0  0.73466  0.21718  0.60581  1.0000
  H   H3722     1.0  0.71242  0.21611  0.58454  1.0000
  C   C4630     1.0  0.69853  0.17901  0.70122  1.0000
  C   C4631     1.0  0.68290  0.17594  0.71523  1.0000
  C   C4632     1.0  0.67213  0.16286  0.71415  1.0000
  C   C4633     1.0  0.67686  0.15282  0.69869  1.0000
  C   C4634     1.0  0.69248  0.15602  0.68420  1.0000
  C   C4635     1.0  0.70331  0.16899  0.68567  1.0000
  H   H3723     1.0  0.67912  0.18372  0.72709  1.0000
  H   H3724     1.0  0.66011  0.16062  0.72505  1.0000
  H   H3725     1.0  0.69624  0.14831  0.67215  1.0000
  H   H3726     1.0  0.61318  0.20552  0.77019  1.0000
  H   H3727     1.0  0.65887  0.08701  0.81916  1.0000
  C   C4636     1.0  0.62749  0.44014  0.84035  1.0000
  C   C4637     1.0  0.68469  0.44926  0.94592  1.0000
  C   C4638     1.0  0.75896  0.17329  0.51610  1.0000
  C   C4639     1.0  0.66183  0.17654  0.56203  1.0000
  C   C4640     1.0  0.65263  0.17947  0.58544  1.0000
  C   C4641     1.0  0.65325  0.17275  0.61291  1.0000
  C   C4642     1.0  0.66303  0.16305  0.61726  1.0000
  C   C4643     1.0  0.67218  0.16003  0.59411  1.0000
  C   C4644     1.0  0.67157  0.16669  0.56659  1.0000
  C   C4645     1.0  0.63238  0.48592  0.83769  1.0000
  C   C4646     1.0  0.71243  0.26486  0.96808  1.0000
  S   S637      1.0  0.75472  0.20301  0.70848  1.0000
  H   H3728     1.0  0.59603  0.21283  0.80768  1.0000
  H   H3729     1.0  0.74894  0.24103  0.76716  1.0000
  H   H3730     1.0  0.65599  0.03452  0.72487  1.0000
  C   C4647     1.0  0.77958  0.31147  0.74934  1.0000
  C   C4648     1.0  0.65958  0.03194  0.89341  1.0000
  C   C4649     1.0  0.60010  0.43370  0.65210  1.0000
  H   H3731     1.0  0.74593  0.15656  0.55571  1.0000
  H   H3732     1.0  0.63290  0.16164  0.56110  1.0000
  H   H3733     1.0  0.64501  0.18700  0.58244  1.0000
  H   H3734     1.0  0.64617  0.17506  0.63093  1.0000
  H   H3735     1.0  0.66350  0.15784  0.63861  1.0000
  H   H3736     1.0  0.67973  0.15248  0.59761  1.0000
  P   P151      1.0  0.60544  0.47195  0.57133  1.0000
  H   H3737     1.0  0.67139  0.06757  0.76688  1.0000
  H   H3738     1.0  0.73162  0.17459  0.71707  1.0000
  Fe  Fe314     1.0  0.75398  0.33196  0.96750  1.0000
  C   C4650     1.0  0.77459  0.40061  0.96296  1.0000
  C   C4651     1.0  0.75546  0.24572  0.78059  1.0000
  P   P152      1.0  0.66120  0.18558  0.52654  1.0000
  C   C4652     1.0  0.70538  0.24493  0.60181  1.0000
  H   H3739     1.0  0.69465  0.17276  0.96146  1.0000
  C   C4653     1.0  0.58898  0.16108  0.66451  1.0000
  C   C4654     1.0  0.78184  0.28648  0.87797  1.0000
  H   H3740     1.0  0.58368  0.48308  0.54103  1.0000
  C   C4655     1.0  0.65681  0.47071  0.60255  1.0000
  H   H3741     1.0  0.61040  0.46422  0.78697  1.0000
  H   H3742     1.0  0.61003  0.14830  0.54889  1.0000
  C   C4656     1.0  0.61931  0.15673  0.53250  1.0000
  C   C4657     1.0  0.72138  0.26952  0.57088  1.0000
  C   C4658     1.0  0.75111  0.25699  0.79324  1.0000
  C   C4659     1.0  0.75990  0.26356  0.80971  1.0000
  H   H3743     1.0  0.71225  0.02117  0.74415  1.0000
  H   H3744     1.0  0.61104  0.00756  0.73533  1.0000
  C   C4660     1.0  0.59351  0.20108  0.80552  1.0000
  H   H3745     1.0  0.74117  0.26091  0.78932  1.0000
  H   H3746     1.0  0.75087  0.29988  0.62350  1.0000
  H   H3747     1.0  0.65973  0.18851  0.79360  1.0000
  H   H3748     1.0  0.63511  0.47636  0.87908  1.0000
  H   H3749     1.0  0.66076  0.48496  0.52073  1.0000
  H   H3750     1.0  0.75343  0.33974  0.53208  1.0000
  H   H3751     1.0  0.59954  0.00510  0.68445  1.0000
  H   H3752     1.0  0.74550  0.27379  0.52653  1.0000
  H   H3753     1.0  0.67679  0.23622  0.54713  1.0000
  H   H3754     1.0  0.59161  0.13050  0.60024  1.0000
  S   S638      1.0  0.77998  0.34638  0.48356  1.0000
  C   C4661     1.0  0.59128  0.10688  0.60068  1.0000
  C   C4662     1.0  0.58440  0.11887  0.60471  1.0000
  C   C4663     1.0  0.65914  0.08505  0.90124  1.0000
  C   C4664     1.0  0.66756  0.99675  0.74542  1.0000
  C   C4665     1.0  0.66604  0.03012  0.80296  1.0000
  C   C4666     1.0  0.71201  0.28740  0.83388  1.0000
  C   C4667     1.0  0.76853  0.22139  0.50048  1.0000
  C   C4668     1.0  0.70229  0.27253  0.84631  1.0000
  C   C4669     1.0  0.69729  0.99027  0.79002  1.0000
  H   H3755     1.0  0.69963  0.44671  0.90882  1.0000
  H   H3756     1.0  0.66686  0.99934  0.87650  1.0000
  H   H3757     1.0  0.75010  0.05665  0.68613  1.0000
  C   C4670     1.0  0.71476  0.17841  0.60236  1.0000
  C   C4671     1.0  0.60751  0.46877  0.51632  1.0000
  H   H3758     1.0  0.58976  0.41698  0.83837  1.0000
  H   H3759     1.0  0.63770  0.05058  0.96566  1.0000
  C   C4672     1.0  0.61355  0.43799  0.63010  1.0000
  H   H3760     1.0  0.62267  0.43221  0.63183  1.0000
  H   H3761     1.0  0.58573  0.17418  0.92148  1.0000
  H   H3762     1.0  0.71454  0.23429  0.63510  1.0000
  Fe  Fe315     1.0  0.76934  0.19790  0.67120  1.0000
  H   H3763     1.0  0.65011  0.10233  0.87803  1.0000
  H   H3764     1.0  0.64901  0.44955  0.80840  1.0000
  H   H3765     1.0  0.63775  0.00528  0.72366  1.0000
  H   H3766     1.0  0.67248  0.47993  0.68543  1.0000
  H   H3767     1.0  0.67639  0.48266  0.56709  1.0000
  H   H3768     1.0  0.66679  0.13056  0.85253  1.0000
  H   H3769     1.0  0.74242  0.13368  0.75937  1.0000
  Fe  Fe316     1.0  0.75287  0.45771  0.96227  1.0000
  H   H3770     1.0  0.66670  0.12592  0.90297  1.0000
  H   H3771     1.0  0.59078  0.01079  0.96476  1.0000
  H   H3772     1.0  0.76266  0.34601  0.90159  1.0000
  H   H3773     1.0  0.65263  0.46191  0.59248  1.0000
  H   H3774     1.0  0.71699  0.12612  0.79420  1.0000
  C   C4673     1.0  0.76716  0.31123  0.80538  1.0000
  C   C4674     1.0  0.58803  0.21014  0.92980  1.0000
  H   H3775     1.0  0.66566  0.06546  0.92309  1.0000
  H   H3776     1.0  0.72843  0.19639  0.53230  1.0000
  C   C4675     1.0  0.77112  0.28264  0.90418  1.0000
  C   C4676     1.0  0.70197  0.41117  0.48531  1.0000
  C   C4677     1.0  0.75017  0.43200  0.50447  1.0000
  H   H3777     1.0  0.73531  0.30115  0.81723  1.0000
  C   C4678     1.0  0.63865  0.07928  0.87843  1.0000
  H   H3778     1.0  0.74986  0.15803  0.72080  1.0000
  C   C4679     1.0  0.73306  0.32970  0.56665  1.0000
  H   H3779     1.0  0.74656  0.13381  0.53705  1.0000
  H   H3780     1.0  0.70443  0.17577  0.61947  1.0000
  C   C4680     1.0  0.72792  0.17423  0.60778  1.0000
  C   C4681     1.0  0.75045  0.27617  0.88196  1.0000
  C   C4682     1.0  0.58921  0.00897  0.69017  1.0000
  H   H3781     1.0  0.62719  0.44160  0.51111  1.0000
  C   C4683     1.0  0.58698  0.17069  0.80045  1.0000
  H   H3782     1.0  0.72045  0.36925  0.96553  1.0000
  H   H3783     1.0  0.61596  0.47986  0.50903  1.0000
  Fe  Fe317     1.0  0.64128  0.18905  0.97625  1.0000
  H   H3784     1.0  0.70714  0.29730  0.83059  1.0000
  C   C4684     1.0  0.67596  0.03169  0.69656  1.0000
  C   C4685     1.0  0.73886  0.15488  0.73651  1.0000
  H   H3785     1.0  0.64647  0.23428  0.49233  1.0000
  H   H3786     1.0  0.76278  0.31131  0.82716  1.0000
  H   H3787     1.0  0.73204  0.06739  0.66180  1.0000
  C   C4686     1.0  0.68222  0.03110  0.66889  1.0000
  H   H3788     1.0  0.60515  0.01366  0.87625  1.0000
  C   C4687     1.0  0.65801  0.06919  0.91076  1.0000
  C   C4688     1.0  0.75191  0.31590  0.55186  1.0000
  S   S639      1.0  0.78095  0.22311  0.65007  1.0000
  C   C4689     1.0  0.64862  0.03345  0.95215  1.0000
  C   C4690     1.0  0.74680  0.32946  0.54872  1.0000
  C   C4691     1.0  0.59984  0.18180  0.78186  1.0000
  C   C4692     1.0  0.58924  0.44799  0.55393  1.0000
  C   C4693     1.0  0.75402  0.38612  0.94765  1.0000
  C   C4694     1.0  0.60538  0.44824  0.82849  1.0000
  H   H3789     1.0  0.65909  0.08949  0.76897  1.0000
  H   H3790     1.0  0.65832  0.00177  0.75316  1.0000
  C   C4695     1.0  0.75211  0.14532  0.52325  1.0000
  H   H3791     1.0  0.70412  0.05488  0.67796  1.0000
  C   C4696     1.0  0.58240  0.46526  0.81689  1.0000
  C   C4697     1.0  0.69395  0.99934  0.72058  1.0000
  C   C4698     1.0  0.70794  0.25751  0.57846  1.0000
  C   C4699     1.0  0.66926  0.15542  0.78430  1.0000
  H   H3792     1.0  0.58589  0.40421  0.88943  1.0000
  H   H3793     1.0  0.60368  0.10925  0.59323  1.0000
  C   C4700     1.0  0.66920  0.48811  0.69681  1.0000
  C   C4701     1.0  0.68205  0.42770  0.50743  1.0000
  C   C4702     1.0  0.72950  0.30280  0.59100  1.0000
  C   C4703     1.0  0.67834  0.03417  0.75325  1.0000
  C   C4704     1.0  0.66968  0.22964  0.53669  1.0000
  C   C4705     1.0  0.73218  0.03823  0.71666  1.0000
  H   H3794     1.0  0.59513  0.02682  0.65095  1.0000
  P   P153      1.0  0.64544  0.03773  0.91710  1.0000
  C   C4706     1.0  0.65192  0.48846  0.53402  1.0000
  H   H3795     1.0  0.77744  0.33584  0.79195  1.0000
  C   C4707     1.0  0.76001  0.42560  0.48750  1.0000
  C   C4708     1.0  0.69264  0.19586  0.49975  1.0000
  S   S640      1.0  0.72696  0.99577  0.75891  1.0000
  H   H3796     1.0  0.69963  0.25783  0.56592  1.0000
  C   C4709     1.0  0.67023  0.48235  0.58822  1.0000
  P   P154      1.0  0.75497  0.27921  0.82363  1.0000
  C   C4710     1.0  0.66861  0.01149  0.87621  1.0000
  C   C4711     1.0  0.58344  0.47899  0.82564  1.0000
  C   C4712     1.0  0.76119  0.28005  0.85546  1.0000
  C   C4713     1.0  0.74178  0.18586  0.55835  1.0000
  C   C4714     1.0  0.62632  0.02690  0.91889  1.0000
  H   H3797     1.0  0.69138  0.12979  0.91688  1.0000
  C   C4715     1.0  0.64872  0.47065  0.62951  1.0000
  H   H3798     1.0  0.66094  0.02243  0.82391  1.0000
  C   C4716     1.0  0.66141  0.03470  0.70338  1.0000
  C   C4717     1.0  0.70854  0.25977  0.85114  1.0000
  H   H3799     1.0  0.72907  0.34020  0.56394  1.0000
  H   H3800     1.0  0.66620  0.47265  0.73771  1.0000
  H   H3801     1.0  0.77983  0.27364  0.72747  1.0000
  H   H3802     1.0  0.76804  0.39351  0.85923  1.0000
  C   C4718     1.0  0.61485  0.45716  0.80192  1.0000
  C   C4719     1.0  0.62276  0.02381  0.89435  1.0000
  H   H3803     1.0  0.63163  0.02710  0.87466  1.0000
  H   H3804     1.0  0.63121  0.08316  0.86565  1.0000
  C   C4720     1.0  0.64703  0.05824  0.90445  1.0000
  H   H3805     1.0  0.73334  0.48830  0.88699  1.0000
  C   C4721     1.0  0.58288  0.21012  0.88410  1.0000
  H   H3806     1.0  0.76249  0.31599  0.53759  1.0000
  C   C4722     1.0  0.65349  0.03763  0.68257  1.0000
  H   H3807     1.0  0.64228  0.03998  0.68807  1.0000
  H   H3808     1.0  0.78049  0.26387  0.82477  1.0000
  C   C4723     1.0  0.61815  0.16003  0.50456  1.0000
  H   H3809     1.0  0.60748  0.17843  0.76604  1.0000
  P   P155      1.0  0.75907  0.19004  0.53000  1.0000
  H   H3810     1.0  0.60480  0.43286  0.86838  1.0000
  C   C4724     1.0  0.73468  0.14121  0.75829  1.0000
  C   C4725     1.0  0.63027  0.48442  0.86681  1.0000
  C   C4726     1.0  0.65262  0.22852  0.50585  1.0000
  C   C4727     1.0  0.62845  0.99575  0.72411  1.0000
  C   C4728     1.0  0.73436  0.27672  0.83099  1.0000
  H   H3811     1.0  0.65380  0.03966  0.63879  1.0000
  P   P156      1.0  0.68584  0.02706  0.72363  1.0000
  H   H3812     1.0  0.71648  0.14313  0.82961  1.0000
  P   P157      1.0  0.74960  0.28476  0.57683  1.0000
  H   H3813     1.0  0.77869  0.31915  0.58462  1.0000
  C   C4729     1.0  0.63005  0.17094  0.48337  1.0000
  H   H3814     1.0  0.70676  0.16781  0.75237  1.0000
  C   C4730     1.0  0.68090  0.42327  0.48272  1.0000
  C   C4731     1.0  0.76873  0.24108  0.78387  1.0000
  C   C4732     1.0  0.66150  0.16717  0.78295  1.0000
  H   H3815     1.0  0.65920  0.01460  0.94693  1.0000
  Fe  Fe318     1.0  0.77883  0.44097  0.95866  1.0000
  S   S641      1.0  0.76955  0.48130  0.94685  1.0000
  C   C4733     1.0  0.58819  0.44090  0.64950  1.0000
  C   C4734     1.0  0.64440  0.17531  0.51807  1.0000
  C   C4735     1.0  0.71544  0.40082  0.94702  1.0000
  H   H3816     1.0  0.71619  0.13844  0.87999  1.0000
  C   C4736     1.0  0.74136  0.17789  0.58591  1.0000
  C   C4737     1.0  0.67308  0.04276  0.87594  1.0000
  C   C4738     1.0  0.72624  0.41531  0.93708  1.0000
  C   C4739     1.0  0.73284  0.42169  0.90808  1.0000
  C   C4740     1.0  0.72865  0.41371  0.88876  1.0000
  C   C4741     1.0  0.71779  0.39937  0.89844  1.0000
  C   C4742     1.0  0.71112  0.39297  0.92744  1.0000
  H   H3817     1.0  0.72915  0.25188  0.84791  1.0000
  H   H3818     1.0  0.68331  0.23226  0.97873  1.0000
  Fe  Fe319     1.0  0.60993  0.43618  0.97115  1.0000
  C   C4743     1.0  0.75544  0.27749  0.90619  1.0000
  C   C4744     1.0  0.67845  0.18046  0.80628  1.0000
  H   H3819     1.0  0.69994  0.00259  0.78804  1.0000
  C   C4745     1.0  0.58778  0.14519  0.66968  1.0000
  C   C4746     1.0  0.75944  0.28289  0.60471  1.0000
  C   C4747     1.0  0.69890  0.44861  0.92960  1.0000
  H   H3820     1.0  0.76370  0.27506  0.48225  1.0000
  C   C4748     1.0  0.76283  0.28520  0.54424  1.0000
  H   H3821     1.0  0.76573  0.20554  0.57314  1.0000
  C   C4749     1.0  0.59245  0.44693  0.50520  1.0000
  H   H3822     1.0  0.74106  0.43294  0.90062  1.0000
  H   H3823     1.0  0.73369  0.41876  0.86630  1.0000
  H   H3824     1.0  0.71438  0.39326  0.88347  1.0000
  H   H3825     1.0  0.70248  0.38201  0.93450  1.0000
  C   C4750     1.0  0.69810  0.23672  0.80881  1.0000
  C   C4751     1.0  0.68202  0.23208  0.81754  1.0000
  C   C4752     1.0  0.67465  0.21900  0.84012  1.0000
  C   C4753     1.0  0.68329  0.21058  0.85410  1.0000
  C   C4754     1.0  0.69942  0.21487  0.84491  1.0000
  C   C4755     1.0  0.70678  0.22817  0.82247  1.0000
  P   P158      1.0  0.71095  0.20352  0.86083  1.0000
  C   C4756     1.0  0.72390  0.21679  0.87278  1.0000
  C   C4757     1.0  0.69953  0.18745  0.89056  1.0000
  C   C4758     1.0  0.70205  0.18600  0.91771  1.0000
  C   C4759     1.0  0.69296  0.17360  0.94043  1.0000
  C   C4760     1.0  0.68141  0.16247  0.93625  1.0000
  C   C4761     1.0  0.67912  0.16359  0.90924  1.0000
  C   C4762     1.0  0.68827  0.17588  0.88642  1.0000
  C   C4763     1.0  0.73994  0.21985  0.86260  1.0000
  C   C4764     1.0  0.74970  0.22976  0.87301  1.0000
  C   C4765     1.0  0.74354  0.23677  0.89339  1.0000
  C   C4766     1.0  0.72758  0.23412  0.90303  1.0000
  C   C4767     1.0  0.71778  0.22428  0.89260  1.0000
  C   C4768     1.0  0.72086  0.19503  0.83534  1.0000
  C   C4769     1.0  0.71936  0.19782  0.80741  1.0000
  C   C4770     1.0  0.72680  0.19080  0.78830  1.0000
  C   C4771     1.0  0.73569  0.18086  0.79691  1.0000
  C   C4772     1.0  0.73710  0.17785  0.82471  1.0000
  C   C4773     1.0  0.72968  0.18486  0.84389  1.0000
  H   H3826     1.0  0.70383  0.24690  0.79139  1.0000
  H   H3827     1.0  0.67525  0.23862  0.80692  1.0000
  H   H3828     1.0  0.66218  0.21532  0.84683  1.0000
  H   H3829     1.0  0.67728  0.20078  0.87196  1.0000
  H   H3830     1.0  0.71923  0.23179  0.81530  1.0000
  H   H3831     1.0  0.71091  0.19438  0.92167  1.0000
  C   C4774     1.0  0.68385  0.45160  0.97284  1.0000
  H   H3832     1.0  0.61696  0.02450  0.96352  1.0000
  H   H3833     1.0  0.66984  0.15528  0.90608  1.0000
  H   H3834     1.0  0.68609  0.17666  0.86577  1.0000
  H   H3835     1.0  0.74497  0.21462  0.84672  1.0000
  H   H3836     1.0  0.76208  0.23196  0.86537  1.0000
  H   H3837     1.0  0.75113  0.24429  0.90166  1.0000
  H   H3838     1.0  0.72275  0.23973  0.91855  1.0000
  H   H3839     1.0  0.70541  0.22237  0.90027  1.0000
  H   H3840     1.0  0.71230  0.20515  0.80015  1.0000
  H   H3841     1.0  0.72559  0.19304  0.76677  1.0000
  H   H3842     1.0  0.74147  0.17549  0.78196  1.0000
  H   H3843     1.0  0.74399  0.17012  0.83135  1.0000
  H   H3844     1.0  0.73079  0.18235  0.86542  1.0000
  H   H3845     1.0  0.67510  0.05488  0.87566  1.0000
  H   H3846     1.0  0.62897  0.05537  0.88249  1.0000
  H   H3847     1.0  0.74001  0.03353  0.72749  1.0000
  S   S642      1.0  0.76932  0.24721  0.70766  1.0000
  H   H3848     1.0  0.66755  0.09343  0.90638  1.0000
  Fe  Fe320     1.0  0.62777  0.99314  0.81320  1.0000
  C   C4775     1.0  0.72449  0.26185  0.84359  1.0000
  C   C4776     1.0  0.60058  0.46212  0.54532  1.0000
  C   C4777     1.0  0.67253  0.02439  0.78079  1.0000
  C   C4778     1.0  0.63745  0.06344  0.88799  1.0000
  C   C4779     1.0  0.63234  0.16435  0.53930  1.0000
  C   C4780     1.0  0.60776  0.01629  0.89511  1.0000
  H   H3849     1.0  0.63412  0.46869  0.53635  1.0000
  Fe  Fe321     1.0  0.76488  0.22812  0.68531  1.0000
  C   C4781     1.0  0.67866  0.18534  0.50220  1.0000
  C   C4782     1.0  0.70322  0.41580  0.50982  1.0000
  C   C4783     1.0  0.74025  0.24071  0.52852  1.0000
  H   H3850     1.0  0.67923  0.03372  0.62669  1.0000
  C   C4784     1.0  0.77114  0.29752  0.76909  1.0000
  S   S643      1.0  0.62497  0.18281  0.95035  1.0000
  C   C4785     1.0  0.68626  0.16875  0.80759  1.0000
  H   H3851     1.0  0.66539  0.14584  0.77585  1.0000
  H   H3852     1.0  0.69464  0.42809  0.53932  1.0000
  C   C4786     1.0  0.60347  0.45729  0.60332  1.0000
  C   C4787     1.0  0.73783  0.05121  0.69337  1.0000
  H   H3853     1.0  0.67405  0.15313  0.95401  1.0000
  C   C4788     1.0  0.65557  0.02151  0.96084  1.0000
  H   H3854     1.0  0.76434  0.29672  0.66138  1.0000
  C   C4789     1.0  0.77604  0.27046  0.62869  1.0000
  H   H3855     1.0  0.64705  0.00784  0.90624  1.0000
  S   S644      1.0  0.77046  0.99906  0.74251  1.0000
  C   C4790     1.0  0.69337  0.42418  0.52073  1.0000
  H   H3856     1.0  0.73822  0.27227  0.88414  1.0000
  C   C4791     1.0  0.72764  0.05717  0.67957  1.0000
  H   H3857     1.0  0.74453  0.38601  0.93791  1.0000
  C   C4792     1.0  0.63049  0.45749  0.79463  1.0000
  H   H3858     1.0  0.69320  0.02829  0.66349  1.0000
  H   H3859     1.0  0.71206  0.41319  0.52011  1.0000
  H   H3860     1.0  0.67431  0.43408  0.51602  1.0000
  P   P159      1.0  0.58524  0.44805  0.83866  1.0000
  C   C4793     1.0  0.75797  0.29174  0.62446  1.0000
  H   H3861     1.0  0.67410  0.11369  0.73243  1.0000
  C   C4794     1.0  0.71184  0.04996  0.68867  1.0000
  H   H3862     1.0  0.71373  0.31655  0.60165  1.0000
  C   C4795     1.0  0.70617  0.03657  0.71140  1.0000
  H   H3863     1.0  0.75185  0.36649  0.87884  1.0000
  H   H3864     1.0  0.72777  0.16824  0.62901  1.0000
  C   C4796     1.0  0.61183  0.43971  0.84764  1.0000
  C   C4797     1.0  0.59624  0.01160  0.92047  1.0000
  C   C4798     1.0  0.66605  0.17966  0.79399  1.0000
  S   S645      1.0  0.70954  0.23107  0.53005  1.0000
  H   H3865     1.0  0.69509  0.23551  0.60737  1.0000
  H   H3866     1.0  0.63773  0.46475  0.77438  1.0000
  C   C4799     1.0  0.68169  0.15611  0.79668  1.0000
  H   H3867     1.0  0.67316  0.10866  0.83335  1.0000
  S   S646      1.0  0.72910  0.44897  0.51472  1.0000
  C   C4800     1.0  0.72443  0.31638  0.58784  1.0000
  C   C4801     1.0  0.66566  0.04567  0.79799  1.0000
  H   H3868     1.0  0.77500  0.28390  0.92285  1.0000
  C   C4802     1.0  0.77322  0.25878  0.81295  1.0000
  H   H3869     1.0  0.74715  0.27466  0.92658  1.0000
  C   C4803     1.0  0.65996  0.03738  0.65489  1.0000
  C   C4804     1.0  0.67820  0.04987  0.74852  1.0000
  H   H3870     1.0  0.68173  0.19000  0.81531  1.0000
  H   H3871     1.0  0.76980  0.28697  0.76226  1.0000
  C   C4805     1.0  0.71636  0.24423  0.61737  1.0000
  C   C4806     1.0  0.68423  0.03794  0.85873  1.0000
  H   H3872     1.0  0.67273  0.01233  0.78519  1.0000
  H   H3873     1.0  0.68783  0.13582  0.74620  1.0000
  C   C4807     1.0  0.75980  0.14716  0.49515  1.0000
  C   C4808     1.0  0.72997  0.25605  0.60949  1.0000
  C   C4809     1.0  0.73255  0.26885  0.58625  1.0000
  C   C4810     1.0  0.72801  0.28952  0.82634  1.0000
  H   H3874     1.0  0.69462  0.04631  0.84526  1.0000
  C   C4811     1.0  0.76979  0.35774  0.89306  1.0000
  C   C4812     1.0  0.76853  0.27223  0.60703  1.0000
  C   C4813     1.0  0.65235  0.21295  0.50795  1.0000
  C   C4814     1.0  0.74327  0.30244  0.57293  1.0000
  C   C4815     1.0  0.77543  0.32518  0.78548  1.0000
  C   C4816     1.0  0.71640  0.03113  0.72594  1.0000
  H   H3875     1.0  0.69569  0.16939  0.81757  1.0000
  C   C4817     1.0  0.66136  0.23690  0.52000  1.0000
  H   H3876     1.0  0.68272  0.05764  0.72746  1.0000
  C   C4818     1.0  0.76897  0.23420  0.47903  1.0000
  C   C4819     1.0  0.66582  0.48401  0.72637  1.0000
  C   C4820     1.0  0.76370  0.36932  0.88008  1.0000
  H   H3877     1.0  0.73837  0.25504  0.62161  1.0000
  C   C4821     1.0  0.65738  0.01632  0.89307  1.0000
  C   C4822     1.0  0.76791  0.27982  0.49813  1.0000
  C   C4823     1.0  0.72869  0.16433  0.73455  1.0000
  C   C4824     1.0  0.72035  0.13704  0.77809  1.0000
  C   C4825     1.0  0.71030  0.14679  0.77673  1.0000
  C   C4826     1.0  0.71452  0.16039  0.75464  1.0000
  P   P160      1.0  0.69127  0.14060  0.80059  1.0000
  C   C4827     1.0  0.68129  0.12410  0.79098  1.0000
  C   C4828     1.0  0.69162  0.13631  0.83736  1.0000
  C   C4829     1.0  0.70554  0.13889  0.84532  1.0000
  C   C4830     1.0  0.70543  0.13641  0.87394  1.0000
  C   C4831     1.0  0.69145  0.13154  0.89474  1.0000
  C   C4832     1.0  0.67755  0.12930  0.88693  1.0000
  C   C4833     1.0  0.67764  0.13184  0.85836  1.0000
  C   C4834     1.0  0.68176  0.12516  0.76238  1.0000
  C   C4835     1.0  0.67404  0.11261  0.75444  1.0000
  C   C4836     1.0  0.66571  0.09893  0.77496  1.0000
  C   C4837     1.0  0.66548  0.09762  0.80335  1.0000
  C   C4838     1.0  0.67337  0.11008  0.81135  1.0000
  C   C4839     1.0  0.58723  0.40954  0.92903  1.0000
  H   H3878     1.0  0.69072  0.01852  0.84583  1.0000
  H   H3879     1.0  0.67615  0.20877  0.55171  1.0000
  H   H3880     1.0  0.58726  0.26219  0.88346  1.0000
  H   H3881     1.0  0.75897  0.41087  0.94324  1.0000
  C   C4840     1.0  0.60311  0.19699  0.78438  1.0000
  H   H3882     1.0  0.58299  0.11516  0.87315  1.0000
  H   H3883     1.0  0.72265  0.29255  0.60747  1.0000
  H   H3884     1.0  0.76957  0.26507  0.59237  1.0000
  H   H3885     1.0  0.69312  0.20446  0.51166  1.0000
  C   C4841     1.0  0.72847  0.19000  0.55307  1.0000
  C   C4842     1.0  0.59049  0.45737  0.88610  1.0000
  C   C4843     1.0  0.77602  0.20243  0.56384  1.0000
  C   C4844     1.0  0.77045  0.37264  0.96955  1.0000
  C   C4845     1.0  0.62516  0.48384  0.55989  1.0000
  C   C4846     1.0  0.68238  0.40540  0.97325  1.0000
  H   H3886     1.0  0.59586  0.16797  0.67485  1.0000
  C   C4847     1.0  0.76562  0.29004  0.64596  1.0000
  C   C4848     1.0  0.58219  0.09176  0.60665  1.0000
  C   C4849     1.0  0.71124  0.45260  0.96705  1.0000
  H   H3887     1.0  0.60052  0.46587  0.87173  1.0000
  Fe  Fe322     1.0  0.68462  0.46999  0.48924  1.0000
  H   H3888     1.0  0.63886  0.47899  0.82769  1.0000
  H   H3889     1.0  0.58376  0.01558  0.75853  1.0000
  H   H3890     1.0  0.59568  0.46368  0.92283  1.0000
  H   H3891     1.0  0.58600  0.16892  0.87512  1.0000
  C   C4850     1.0  0.75956  0.20663  0.50233  1.0000
  H   H3892     1.0  0.59883  0.42472  0.67105  1.0000
  H   H3893     1.0  0.60800  0.15420  0.49929  1.0000
  H   H3894     1.0  0.58333  0.44283  0.57604  1.0000
  C   C4851     1.0  0.58673  0.02125  0.67105  1.0000
  C   C4852     1.0  0.75175  0.15831  0.53375  1.0000
  C   C4853     1.0  0.60356  0.46110  0.49639  1.0000
  Fe  Fe323     1.0  0.71282  0.24609  0.48590  1.0000
  H   H3895     1.0  0.58496  0.15895  0.79836  1.0000
  H   H3896     1.0  0.61255  0.42582  0.48579  1.0000
  C   C4854     1.0  0.61325  0.99700  0.73072  1.0000
  C   C4855     1.0  0.74107  0.44091  0.49276  1.0000
  C   C4856     1.0  0.69175  0.24307  0.96761  1.0000
  H   H3897     1.0  0.68614  0.40472  0.95172  1.0000
  S   S647      1.0  0.58544  0.10912  0.72032  1.0000
  H   H3898     1.0  0.58747  0.08239  0.60392  1.0000
  C   C4857     1.0  0.75096  0.20493  0.48242  1.0000
  H   H3899     1.0  0.58714  0.21111  0.86187  1.0000
  C   C4858     1.0  0.77465  0.27941  0.64806  1.0000
  C   C4859     1.0  0.77692  0.28546  0.85364  1.0000
  C   C4860     1.0  0.77877  0.38678  0.97205  1.0000
  C   C4861     1.0  0.58527  0.44041  0.53394  1.0000
  C   C4862     1.0  0.77761  0.24760  0.80003  1.0000
  C   C4863     1.0  0.58976  0.45247  0.62506  1.0000
  H   H3900     1.0  0.77499  0.22320  0.51585  1.0000
  H   H3901     1.0  0.58475  0.00536  0.92118  1.0000
  H   H3902     1.0  0.59377  0.13978  0.68398  1.0000
  H   H3903     1.0  0.78032  0.27784  0.66507  1.0000
  C   C4864     1.0  0.78175  0.32528  0.75757  1.0000
  H   H3904     1.0  0.71691  0.20373  0.47994  1.0000
  C   C4865     1.0  0.70628  0.19542  0.48175  1.0000
  H   H3905     1.0  0.71226  0.34080  0.97837  1.0000
  Fe  Fe324     1.0  0.77230  0.60861  0.26082  1.0000
  H   H3906     1.0  0.60555  0.90479  0.08892  1.0000
  C   C4866     1.0  0.72529  0.49617  0.31852  1.0000
  Fe  Fe325     1.0  0.74592  0.58961  0.24161  1.0000
  S   S648      1.0  0.74699  0.56700  0.26822  1.0000
  S   S649      1.0  0.72765  0.59147  0.21700  1.0000
  Fe  Fe326     1.0  0.74933  0.57970  0.30147  1.0000
  S   S650      1.0  0.73536  0.57067  0.34685  1.0000
  C   C4867     1.0  0.63611  0.84365  0.45615  1.0000
  S   S651      1.0  0.74642  0.60186  0.27621  1.0000
  S   S652      1.0  0.77166  0.59840  0.22337  1.0000
  S   S653      1.0  0.62070  0.78667  0.27392  1.0000
  Fe  Fe327     1.0  0.66663  0.53598  0.16443  1.0000
  S   S654      1.0  0.64399  0.53885  0.18702  1.0000
  S   S655      1.0  0.68710  0.53578  0.18406  1.0000
  Fe  Fe328     1.0  0.65383  0.52867  0.11482  1.0000
  S   S656      1.0  0.63041  0.53136  0.13369  1.0000
  S   S657      1.0  0.66013  0.52343  0.07194  1.0000
  Fe  Fe329     1.0  0.64333  0.55220  0.14417  1.0000
  S   S658      1.0  0.63363  0.57331  0.14145  1.0000
  Fe  Fe330     1.0  0.63295  0.51784  0.17476  1.0000
  H   H3907     1.0  0.66093  0.83093  0.45629  1.0000
  S   S659      1.0  0.66678  0.55075  0.12205  1.0000
  S   S660      1.0  0.65564  0.51376  0.15529  1.0000
  H   H3908     1.0  0.74803  0.94016  0.99628  1.0000
  H   H3909     1.0  0.64454  0.94322  0.04436  1.0000
  H   H3910     1.0  0.61692  0.62817  0.19740  1.0000
  Fe  Fe331     1.0  0.65620  0.97657  0.10990  1.0000
  C   C4868     1.0  0.76846  0.49943  0.47291  1.0000
  S   S661      1.0  0.67340  0.96954  0.13404  1.0000
  Fe  Fe332     1.0  0.62237  0.96499  0.10863  1.0000
  S   S662      1.0  0.60001  0.94675  0.13288  1.0000
  H   H3911     1.0  0.77188  0.82907  0.26223  1.0000
  S   S663      1.0  0.64414  0.95857  0.09171  1.0000
  C   C4869     1.0  0.61153  0.62500  0.18141  1.0000
  Fe  Fe333     1.0  0.66441  0.66075  0.07022  1.0000
  S   S664      1.0  0.66165  0.67382  0.10364  1.0000
  S   S665      1.0  0.67494  0.64031  0.07186  1.0000
  Fe  Fe334     1.0  0.65244  0.68196  0.03012  1.0000
  S   S666      1.0  0.64886  0.69708  0.05954  1.0000
  S   S667      1.0  0.75586  0.98386  0.17455  1.0000
  Fe  Fe335     1.0  0.67174  0.69527  0.06747  1.0000
  S   S668      1.0  0.68808  0.71791  0.06662  1.0000
  Fe  Fe336     1.0  0.63895  0.67484  0.09352  1.0000
  S   S669      1.0  0.61778  0.67203  0.12855  1.0000
  S   S670      1.0  0.67632  0.68217  0.03447  1.0000
  S   S671      1.0  0.64080  0.65975  0.06362  1.0000
  H   H3912     1.0  0.71747  0.98141  0.17444  1.0000
  C   C4870     1.0  0.59742  0.61709  0.13992  1.0000
  C   C4871     1.0  0.64087  0.56518  0.06549  1.0000
  H   H3913     1.0  0.70522  0.76425  0.44183  1.0000
  S   S672      1.0  0.75509  0.96429  0.25391  1.0000
  C   C4872     1.0  0.75547  0.76487  0.03855  1.0000
  Fe  Fe337     1.0  0.67403  0.84682  0.33430  1.0000
  S   S673      1.0  0.68908  0.83390  0.35441  1.0000
  S   S674      1.0  0.64918  0.83572  0.33551  1.0000
  Fe  Fe338     1.0  0.69811  0.87812  0.31993  1.0000
  S   S675      1.0  0.71496  0.86719  0.33883  1.0000
  S   S676      1.0  0.69935  0.90327  0.29867  1.0000
  Fe  Fe339     1.0  0.70818  0.84859  0.31686  1.0000
  S   S677      1.0  0.72646  0.83975  0.29136  1.0000
  Fe  Fe340     1.0  0.69441  0.85340  0.37521  1.0000
  S   S678      1.0  0.69283  0.84513  0.42292  1.0000
  S   S679      1.0  0.69280  0.86047  0.29557  1.0000
  S   S680      1.0  0.67793  0.86533  0.35745  1.0000
  Fe  Fe341     1.0  0.73325  0.75222  0.17395  1.0000
  S   S681      1.0  0.73227  0.77720  0.16485  1.0000
  S   S682      1.0  0.71891  0.73099  0.16535  1.0000
  Fe  Fe342     1.0  0.75462  0.75651  0.21373  1.0000
  S   S683      1.0  0.75514  0.78173  0.20774  1.0000
  Fe  Fe343     1.0  0.72981  0.77508  0.21126  1.0000
  S   S684      1.0  0.71102  0.78305  0.23765  1.0000
  Fe  Fe344     1.0  0.75783  0.78255  0.16152  1.0000
  S   S685      1.0  0.72892  0.74973  0.22068  1.0000
  S   S686      1.0  0.75910  0.75762  0.16720  1.0000
  H   H3914     1.0  0.62726  0.70528  0.09742  1.0000
  C   C4873     1.0  0.72176  0.82430  0.27586  1.0000
  C   C4874     1.0  0.70668  0.81514  0.28209  1.0000
  C   C4875     1.0  0.70351  0.80274  0.26975  1.0000
  C   C4876     1.0  0.71534  0.79931  0.25133  1.0000
  C   C4877     1.0  0.73033  0.80861  0.24476  1.0000
  C   C4878     1.0  0.73354  0.82102  0.25707  1.0000
  H   H3915     1.0  0.69749  0.81759  0.29642  1.0000
  H   H3916     1.0  0.69184  0.79577  0.27444  1.0000
  H   H3917     1.0  0.73941  0.80617  0.23024  1.0000
  H   H3918     1.0  0.74518  0.82814  0.25193  1.0000
  C   C4879     1.0  0.69620  0.85447  0.45002  1.0000
  C   C4880     1.0  0.70008  0.52910  0.29713  1.0000
  C   C4881     1.0  0.70087  0.87060  0.44495  1.0000
  H   H3919     1.0  0.61702  0.61456  0.07458  1.0000
  H   H3920     1.0  0.70256  0.87791  0.42393  1.0000
  C   C4882     1.0  0.73976  0.94721  0.26445  1.0000
  C   C4883     1.0  0.74201  0.93323  0.27913  1.0000
  C   C4884     1.0  0.72987  0.91960  0.28946  1.0000
  C   C4885     1.0  0.71521  0.91993  0.28584  1.0000
  C   C4886     1.0  0.71295  0.93394  0.27128  1.0000
  C   C4887     1.0  0.72520  0.94744  0.26022  1.0000
  H   H3921     1.0  0.75319  0.93297  0.28277  1.0000
  H   H3922     1.0  0.73177  0.90894  0.30071  1.0000
  H   H3923     1.0  0.70164  0.93434  0.26850  1.0000
  H   H3924     1.0  0.72325  0.95814  0.24924  1.0000
  C   C4888     1.0  0.69604  0.72151  0.09479  1.0000
  C   C4889     1.0  0.70468  0.73654  0.09237  1.0000
  C   C4890     1.0  0.71137  0.73984  0.11412  1.0000
  C   C4891     1.0  0.70975  0.72802  0.13825  1.0000
  C   C4892     1.0  0.70082  0.71307  0.14090  1.0000
  C   C4893     1.0  0.69392  0.70984  0.11940  1.0000
  H   H3925     1.0  0.70623  0.74570  0.07356  1.0000
  H   H3926     1.0  0.71782  0.75147  0.11211  1.0000
  H   H3927     1.0  0.69929  0.70392  0.15971  1.0000
  H   H3928     1.0  0.68710  0.69828  0.12175  1.0000
  C   C4894     1.0  0.74991  0.76409  0.08835  1.0000
  C   C4895     1.0  0.69836  0.97628  0.15574  1.0000
  C   C4896     1.0  0.59237  0.93845  0.08632  1.0000
  H   H3929     1.0  0.58489  0.71012  0.08997  1.0000
  C   C4897     1.0  0.58399  0.90185  0.00372  1.0000
  H   H3930     1.0  0.60154  0.70279  0.12595  1.0000
  H   H3931     1.0  0.69466  0.96418  0.16729  1.0000
  C   C4898     1.0  0.58939  0.93496  0.11581  1.0000
  P   P161      1.0  0.58785  0.61212  0.11377  1.0000
  C   C4899     1.0  0.75154  0.51460  0.21989  1.0000
  C   C4900     1.0  0.64932  0.50698  0.06456  1.0000
  H   H3932     1.0  0.76446  0.50835  0.29979  1.0000
  C   C4901     1.0  0.75013  0.75641  0.06698  1.0000
  C   C4902     1.0  0.60000  0.67107  0.11972  1.0000
  C   C4903     1.0  0.59895  0.67211  0.09194  1.0000
  H   H3933     1.0  0.60914  0.67342  0.07539  1.0000
  C   C4904     1.0  0.72187  0.50929  0.30332  1.0000
  C   C4905     1.0  0.64625  0.49034  0.03248  1.0000
  H   H3934     1.0  0.58388  0.67218  0.06403  1.0000
  S   S687      1.0  0.62497  0.98350  0.06916  1.0000
  C   C4906     1.0  0.75489  0.78024  0.08131  1.0000
  H   H3935     1.0  0.60156  0.94836  0.07337  1.0000
  C   C4907     1.0  0.59552  0.56860  0.12523  1.0000
  H   H3936     1.0  0.72416  0.53530  0.46676  1.0000
  C   C4908     1.0  0.74145  0.95537  0.02150  1.0000
  H   H3937     1.0  0.65356  0.55356  0.04002  1.0000
  C   C4909     1.0  0.63781  0.51775  0.26173  1.0000
  H   H3938     1.0  0.64688  0.56325  0.08193  1.0000
  C   C4910     1.0  0.70880  0.93304  0.13071  1.0000
  C   C4911     1.0  0.64494  0.59174  0.12052  1.0000
  C   C4912     1.0  0.65988  0.59374  0.10427  1.0000
  C   C4913     1.0  0.66877  0.60866  0.08859  1.0000
  C   C4914     1.0  0.66293  0.62167  0.08956  1.0000
  C   C4915     1.0  0.64784  0.61963  0.10519  1.0000
  C   C4916     1.0  0.63884  0.60468  0.12045  1.0000
  H   H3939     1.0  0.66463  0.58385  0.10391  1.0000
  H   H3940     1.0  0.68031  0.61018  0.07597  1.0000
  H   H3941     1.0  0.64325  0.62959  0.10595  1.0000
  H   H3942     1.0  0.62730  0.60323  0.13297  1.0000
  C   C4917     1.0  0.62864  0.80056  0.29059  1.0000
  C   C4918     1.0  0.61923  0.80645  0.30900  1.0000
  C   C4919     1.0  0.62582  0.81748  0.32183  1.0000
  C   C4920     1.0  0.64186  0.82260  0.31692  1.0000
  C   C4921     1.0  0.65135  0.81687  0.29825  1.0000
  C   C4922     1.0  0.64474  0.80589  0.28517  1.0000
  H   H3943     1.0  0.60685  0.80249  0.31343  1.0000
  H   H3944     1.0  0.61841  0.82201  0.33586  1.0000
  H   H3945     1.0  0.66374  0.82084  0.29395  1.0000
  H   H3946     1.0  0.65215  0.80154  0.27072  1.0000
  C   C4923     1.0  0.73281  0.55084  0.36180  1.0000
  C   C4924     1.0  0.72317  0.54379  0.38908  1.0000
  C   C4925     1.0  0.72080  0.52787  0.40116  1.0000
  C   C4926     1.0  0.72816  0.51901  0.38601  1.0000
  C   C4927     1.0  0.73777  0.52607  0.35881  1.0000
  C   C4928     1.0  0.74015  0.54196  0.34669  1.0000
  H   H3947     1.0  0.71749  0.55065  0.40084  1.0000
  H   H3948     1.0  0.61432  0.78949  0.15961  1.0000
  H   H3949     1.0  0.74345  0.51923  0.34718  1.0000
  H   H3950     1.0  0.74761  0.54733  0.32565  1.0000
  C   C4929     1.0  0.71627  0.57573  0.20864  1.0000
  C   C4930     1.0  0.70319  0.57765  0.19912  1.0000
  C   C4931     1.0  0.69416  0.56561  0.19134  1.0000
  C   C4932     1.0  0.69827  0.55157  0.19265  1.0000
  C   C4933     1.0  0.71153  0.54980  0.20159  1.0000
  C   C4934     1.0  0.72024  0.56162  0.21027  1.0000
  H   H3951     1.0  0.70003  0.58849  0.19787  1.0000
  H   H3952     1.0  0.68405  0.56718  0.18433  1.0000
  H   H3953     1.0  0.71522  0.53931  0.20140  1.0000
  H   H3954     1.0  0.73016  0.55992  0.21783  1.0000
  C   C4935     1.0  0.62016  0.50424  0.00218  1.0000
  C   C4936     1.0  0.71132  0.98598  0.15974  1.0000
  H   H3955     1.0  0.70331  0.92328  0.14905  1.0000
  H   H3956     1.0  0.63902  0.91044  0.98241  1.0000
  S   S688      1.0  0.69394  0.49582  0.47134  1.0000
  C   C4937     1.0  0.72318  0.95865  0.08377  1.0000
  C   C4938     1.0  0.61276  0.91280  0.06927  1.0000
  C   C4939     1.0  0.74061  0.49584  0.31724  1.0000
  S   S689      1.0  0.72801  0.49116  0.47864  1.0000
  H   H3957     1.0  0.71329  0.52249  0.42212  1.0000
  C   C4940     1.0  0.69093  0.53410  0.27953  1.0000
  C   C4941     1.0  0.64465  0.55974  0.04152  1.0000
  C   C4942     1.0  0.76678  0.81188  0.99106  1.0000
  C   C4943     1.0  0.64618  0.97750  0.98448  1.0000
  C   C4944     1.0  0.68430  0.54736  0.98856  1.0000
  H   H3958     1.0  0.60588  0.82043  0.41254  1.0000
  C   C4945     1.0  0.60046  0.71615  0.25807  1.0000
  C   C4946     1.0  0.59764  0.62492  0.07905  1.0000
  C   C4947     1.0  0.71748  0.62367  0.23922  1.0000
  C   C4948     1.0  0.70261  0.61525  0.24118  1.0000
  C   C4949     1.0  0.69706  0.61619  0.21701  1.0000
  C   C4950     1.0  0.70635  0.62563  0.19066  1.0000
  C   C4951     1.0  0.72128  0.63407  0.18889  1.0000
  P   P162      1.0  0.69983  0.62599  0.15885  1.0000
  C   C4952     1.0  0.67918  0.61823  0.16778  1.0000
  C   C4953     1.0  0.70410  0.64572  0.13726  1.0000
  C   C4954     1.0  0.70636  0.65829  0.14939  1.0000
  C   C4955     1.0  0.70850  0.67342  0.13311  1.0000
  C   C4956     1.0  0.74580  0.96965  0.02780  1.0000
  H   H3959     1.0  0.71328  0.82256  0.43664  1.0000
  C   C4957     1.0  0.70367  0.64858  0.10878  1.0000
  C   C4958     1.0  0.67284  0.60214  0.17454  1.0000
  C   C4959     1.0  0.65692  0.59612  0.18058  1.0000
  C   C4960     1.0  0.64718  0.60609  0.18013  1.0000
  C   C4961     1.0  0.65338  0.62210  0.17354  1.0000
  C   C4962     1.0  0.66930  0.62817  0.16743  1.0000
  C   C4963     1.0  0.70871  0.61407  0.13931  1.0000
  C   C4964     1.0  0.72170  0.60936  0.14492  1.0000
  C   C4965     1.0  0.72792  0.59954  0.13051  1.0000
  C   C4966     1.0  0.72127  0.59439  0.11034  1.0000
  C   C4967     1.0  0.70831  0.59894  0.10473  1.0000
  C   C4968     1.0  0.70206  0.60871  0.11917  1.0000
  C   C4969     1.0  0.68917  0.49941  0.33819  1.0000
  C   C4970     1.0  0.61754  0.63347  0.15314  1.0000
  H   H3960     1.0  0.69556  0.60766  0.26131  1.0000
  H   H3961     1.0  0.68566  0.60927  0.21894  1.0000
  H   H3962     1.0  0.72878  0.64110  0.16866  1.0000
  H   H3963     1.0  0.70611  0.65645  0.17156  1.0000
  H   H3964     1.0  0.71023  0.68306  0.14255  1.0000
  C   C4971     1.0  0.74407  0.60404  0.47183  1.0000
  Fe  Fe345     1.0  0.64754  0.97816  0.05340  1.0000
  H   H3965     1.0  0.70134  0.63917  0.09904  1.0000
  H   H3966     1.0  0.68019  0.59424  0.17462  1.0000
  H   H3967     1.0  0.65212  0.58374  0.18480  1.0000
  H   H3968     1.0  0.63489  0.60140  0.18401  1.0000
  H   H3969     1.0  0.64590  0.62987  0.17244  1.0000
  H   H3970     1.0  0.67381  0.64062  0.16196  1.0000
  H   H3971     1.0  0.72688  0.61280  0.16091  1.0000
  H   H3972     1.0  0.73774  0.59574  0.13542  1.0000
  H   H3973     1.0  0.72609  0.58677  0.09925  1.0000
  H   H3974     1.0  0.70297  0.59479  0.08941  1.0000
  H   H3975     1.0  0.69185  0.61190  0.11502  1.0000
  C   C4972     1.0  0.62345  0.71566  0.09831  1.0000
  C   C4973     1.0  0.63307  0.73026  0.08338  1.0000
  C   C4974     1.0  0.62789  0.74355  0.08481  1.0000
  C   C4975     1.0  0.61309  0.74220  0.10111  1.0000
  C   C4976     1.0  0.60348  0.72752  0.11640  1.0000
  C   C4977     1.0  0.60878  0.71428  0.11477  1.0000
  H   H3976     1.0  0.77471  0.54797  0.17396  1.0000
  C   C4978     1.0  0.77220  0.59760  0.13648  1.0000
  C   C4979     1.0  0.70809  0.95696  0.09945  1.0000
  S   S690      1.0  0.65691  0.97505  0.00988  1.0000
  H   H3977     1.0  0.70212  0.50950  0.20528  1.0000
  C   C4980     1.0  0.59645  0.49164  0.20198  1.0000
  P   P163      1.0  0.73245  0.97512  0.05352  1.0000
  C   C4981     1.0  0.63059  0.93429  0.01888  1.0000
  C   C4982     1.0  0.61761  0.92326  0.01847  1.0000
  C   C4983     1.0  0.78166  0.67997  0.30374  1.0000
  H   H3978     1.0  0.61411  0.50794  0.28396  1.0000
  H   H3979     1.0  0.71846  0.96817  0.00777  1.0000
  H   H3980     1.0  0.60111  0.74790  0.33712  1.0000
  C   C4984     1.0  0.66850  0.54623  0.99414  1.0000
  H   H3981     1.0  0.75052  0.50692  0.24026  1.0000
  C   C4985     1.0  0.68387  0.75610  0.47410  1.0000
  C   C4986     1.0  0.69785  0.50040  0.27663  1.0000
  H   H3982     1.0  0.64450  0.73122  0.07071  1.0000
  H   H3983     1.0  0.63531  0.75487  0.07305  1.0000
  H   H3984     1.0  0.60923  0.75259  0.10161  1.0000
  C   C4987     1.0  0.66148  0.76193  0.46019  1.0000
  C   C4988     1.0  0.67055  0.72393  0.98051  1.0000
  C   C4989     1.0  0.72842  0.77700  0.37237  1.0000
  C   C4990     1.0  0.58931  0.83191  0.35960  1.0000
  C   C4991     1.0  0.59988  0.81951  0.39621  1.0000
  H   H3985     1.0  0.73277  0.78918  0.37060  1.0000
  H   H3986     1.0  0.62961  0.98647  0.00876  1.0000
  C   C4992     1.0  0.73547  0.54255  0.45466  1.0000
  H   H3987     1.0  0.59766  0.69581  0.21902  1.0000
  H   H3988     1.0  0.60131  0.71863  0.17912  1.0000
  H   H3989     1.0  0.74586  0.75753  0.11039  1.0000
  H   H3990     1.0  0.68936  0.94317  0.13491  1.0000
  C   C4993     1.0  0.71419  0.55113  0.12214  1.0000
  C   C4994     1.0  0.70938  0.53866  0.11123  1.0000
  C   C4995     1.0  0.71893  0.52882  0.10642  1.0000
  C   C4996     1.0  0.73330  0.53146  0.11253  1.0000
  C   C4997     1.0  0.73832  0.54411  0.12318  1.0000
  C   C4998     1.0  0.72853  0.55379  0.12835  1.0000
  P   P164      1.0  0.75662  0.54702  0.13224  1.0000
  C   C4999     1.0  0.75445  0.53431  0.16667  1.0000
  C   C5000     1.0  0.59231  0.49953  0.17874  1.0000
  H   H3991     1.0  0.62667  0.57755  0.08671  1.0000
  H   H3992     1.0  0.75119  0.77401  0.35778  1.0000
  C   C5001     1.0  0.70720  0.80412  0.41697  1.0000
  C   C5002     1.0  0.58668  0.66940  0.14095  1.0000
  C   C5003     1.0  0.75310  0.77197  0.27976  1.0000
  H   H3993     1.0  0.75678  0.58976  0.17834  1.0000
  C   C5004     1.0  0.61047  0.62963  0.13246  1.0000
  C   C5005     1.0  0.77377  0.94572  0.20085  1.0000
  C   C5006     1.0  0.74075  0.51114  0.20463  1.0000
  C   C5007     1.0  0.74214  0.52096  0.17816  1.0000
  C   C5008     1.0  0.76292  0.56684  0.13369  1.0000
  C   C5009     1.0  0.75698  0.57120  0.15809  1.0000
  P   P165      1.0  0.70213  0.50944  0.30387  1.0000
  S   S691      1.0  0.58626  0.77985  0.23858  1.0000
  H   H3994     1.0  0.72988  0.83451  0.34639  1.0000
  C   C5010     1.0  0.75943  0.62104  0.36038  1.0000
  H   H3995     1.0  0.70650  0.55839  0.12684  1.0000
  H   H3996     1.0  0.73024  0.94753  0.03225  1.0000
  P   P166      1.0  0.64238  0.55627  0.98801  1.0000
  H   H3997     1.0  0.74043  0.52353  0.10921  1.0000
  H   H3998     1.0  0.73170  0.56322  0.13766  1.0000
  C   C5011     1.0  0.75464  0.56729  0.44070  1.0000
  H   H3999     1.0  0.77578  0.56833  0.41076  1.0000
  H   H4000     1.0  0.69809  0.53642  0.10711  1.0000
  H   H4001     1.0  0.59116  0.96753  0.00204  1.0000
  H   H4002     1.0  0.70476  0.66567  0.07098  1.0000
  C   C5012     1.0  0.70559  0.66369  0.09269  1.0000
  H   H4003     1.0  0.73361  0.51804  0.16682  1.0000
  H   H4004     1.0  0.74884  0.56273  0.17611  1.0000
  H   H4005     1.0  0.61512  0.63666  0.11087  1.0000
  H   H4006     1.0  0.63749  0.94290  0.99967  1.0000
  C   C5013     1.0  0.72679  0.63310  0.21310  1.0000
  H   H4007     1.0  0.73175  0.53205  0.27387  1.0000
  Fe  Fe346     1.0  0.75950  0.98555  0.21697  1.0000
  H   H4008     1.0  0.64926  0.76128  0.46543  1.0000
  H   H4009     1.0  0.77358  0.93038  0.05933  1.0000
  C   C5014     1.0  0.70242  0.50916  0.24833  1.0000
  C   C5015     1.0  0.72262  0.83004  0.39157  1.0000
  H   H4010     1.0  0.58836  0.71606  0.26226  1.0000
  H   H4011     1.0  0.74629  0.61257  0.45193  1.0000
  C   C5016     1.0  0.62665  0.49016  0.28326  1.0000
  C   C5017     1.0  0.59539  0.58355  0.12774  1.0000
  C   C5018     1.0  0.63460  0.93454  0.04427  1.0000
  C   C5019     1.0  0.73898  0.76842  0.36515  1.0000
  C   C5020     1.0  0.72369  0.82593  0.36607  1.0000
  H   H4012     1.0  0.75481  0.78620  0.09792  1.0000
  H   H4013     1.0  0.63643  0.52944  0.25629  1.0000
  C   C5021     1.0  0.62509  0.50543  0.27720  1.0000
  C   C5022     1.0  0.69915  0.50241  0.22694  1.0000
  C   C5023     1.0  0.76210  0.66435  0.28839  1.0000
  C   C5024     1.0  0.76834  0.67364  0.26063  1.0000
  C   C5025     1.0  0.69640  0.73037  0.98627  1.0000
  C   C5026     1.0  0.58643  0.76372  0.38905  1.0000
  H   H4014     1.0  0.74267  0.71575  0.17180  1.0000
  H   H4015     1.0  0.77580  0.81852  0.18588  1.0000
  H   H4016     1.0  0.70178  0.96550  0.09397  1.0000
  C   C5027     1.0  0.77875  0.82235  0.99596  1.0000
  H   H4017     1.0  0.68845  0.53843  0.00048  1.0000
  H   H4018     1.0  0.61859  0.57166  0.00791  1.0000
  H   H4019     1.0  0.76787  0.87074  0.18467  1.0000
  C   C5028     1.0  0.70811  0.79992  0.39135  1.0000
  C   C5029     1.0  0.78059  0.59020  0.44445  1.0000
  H   H4020     1.0  0.66068  0.53638  0.01032  1.0000
  C   C5030     1.0  0.76038  0.97963  0.01335  1.0000
  H   H4021     1.0  0.58583  0.93179  0.05072  1.0000
  H   H4022     1.0  0.65823  0.72185  0.98889  1.0000
  C   C5031     1.0  0.78101  0.54170  0.05792  1.0000
  H   H4023     1.0  0.75217  0.65463  0.29310  1.0000
  H   H4024     1.0  0.76294  0.67110  0.24426  1.0000
  C   C5032     1.0  0.59492  0.80513  0.39070  1.0000
  C   C5033     1.0  0.75200  0.59505  0.39164  1.0000
  C   C5034     1.0  0.66288  0.55788  0.97960  1.0000
  S   S692      1.0  0.61486  0.49793  0.20752  1.0000
  H   H4025     1.0  0.59854  0.90393  0.04454  1.0000
  C   C5035     1.0  0.71337  0.97643  0.01633  1.0000
  C   C5036     1.0  0.65219  0.51496  0.25256  1.0000
  H   H4026     1.0  0.65874  0.66153  0.98958  1.0000
  H   H4027     1.0  0.60124  0.84396  0.38464  1.0000
  H   H4028     1.0  0.65787  0.80291  0.43232  1.0000
  C   C5037     1.0  0.76708  0.62650  0.37913  1.0000
  C   C5038     1.0  0.59955  0.64662  0.03961  1.0000
  C   C5039     1.0  0.65454  0.50334  0.03891  1.0000
  C   C5040     1.0  0.69429  0.49939  0.36274  1.0000
  H   H4029     1.0  0.70841  0.52127  0.24293  1.0000
  C   C5041     1.0  0.70195  0.98164  0.00518  1.0000
  C   C5042     1.0  0.74924  0.59045  0.47337  1.0000
  P   P167      1.0  0.61240  0.92347  0.98551  1.0000
  C   C5043     1.0  0.59132  0.60875  0.16843  1.0000
  C   C5044     1.0  0.70806  0.67612  0.10479  1.0000
  C   C5045     1.0  0.76005  0.54585  0.42205  1.0000
  C   C5046     1.0  0.61984  0.63324  0.03819  1.0000
  C   C5047     1.0  0.62562  0.92390  0.06951  1.0000
  C   C5048     1.0  0.78051  0.77013  0.31534  1.0000
  C   C5049     1.0  0.76515  0.53774  0.18231  1.0000
  C   C5050     1.0  0.74560  0.53646  0.43802  1.0000
  Fe  Fe347     1.0  0.71417  0.48975  0.44669  1.0000
  H   H4030     1.0  0.68435  0.52617  0.27048  1.0000
  H   H4031     1.0  0.60824  0.50477  0.04356  1.0000
  S   S693      1.0  0.72527  0.49902  0.40005  1.0000
  C   C5051     1.0  0.75428  0.88636  0.17195  1.0000
  C   C5052     1.0  0.71791  0.98180  0.03842  1.0000
  C   C5053     1.0  0.61188  0.62330  0.06482  1.0000
  C   C5054     1.0  0.76672  0.83855  0.29741  1.0000
  P   P168      1.0  0.77385  0.79698  0.28628  1.0000
  C   C5055     1.0  0.59717  0.83286  0.38058  1.0000
  C   C5056     1.0  0.72694  0.78071  0.30338  1.0000
  C   C5057     1.0  0.72536  0.76727  0.29397  1.0000
  C   C5058     1.0  0.73844  0.76286  0.28232  1.0000
  C   C5059     1.0  0.77543  0.80981  0.22969  1.0000
  C   C5060     1.0  0.75480  0.78525  0.28990  1.0000
  C   C5061     1.0  0.74156  0.78971  0.30132  1.0000
  C   C5062     1.0  0.70347  0.87734  0.46711  1.0000
  H   H4032     1.0  0.61257  0.58168  0.04973  1.0000
  P   P169      1.0  0.76077  0.58715  0.44218  1.0000
  H   H4033     1.0  0.72775  0.84183  0.39163  1.0000
  H   H4034     1.0  0.76415  0.66014  0.33129  1.0000
  H   H4035     1.0  0.62845  0.92444  0.08931  1.0000
  H   H4036     1.0  0.76244  0.70659  0.14281  1.0000
  C   C5063     1.0  0.74931  0.52165  0.28539  1.0000
  H   H4037     1.0  0.58730  0.84226  0.34735  1.0000
  C   C5064     1.0  0.64171  0.85986  0.44826  1.0000
  H   H4038     1.0  0.66193  0.52447  0.23986  1.0000
  H   H4039     1.0  0.66515  0.51047  0.02407  1.0000
  H   H4040     1.0  0.69820  0.97729  0.98852  1.0000
  S   S694      1.0  0.64512  0.68780  0.98959  1.0000
  H   H4041     1.0  0.60115  0.56163  0.13809  1.0000
  H   H4042     1.0  0.71686  0.78456  0.31119  1.0000
  H   H4043     1.0  0.71403  0.76062  0.29462  1.0000
  H   H4044     1.0  0.73728  0.75260  0.27449  1.0000
  H   H4045     1.0  0.74211  0.52456  0.43702  1.0000
  H   H4046     1.0  0.74235  0.80027  0.30808  1.0000
  C   C5065     1.0  0.61373  0.64497  0.02568  1.0000
  C   C5066     1.0  0.75158  0.71198  0.18055  1.0000
  C   C5067     1.0  0.65395  0.49987  0.25932  1.0000
  H   H4047     1.0  0.74612  0.74388  0.07254  1.0000
  C   C5068     1.0  0.71442  0.81913  0.41700  1.0000
  C   C5069     1.0  0.75261  0.50855  0.30059  1.0000
  C   C5070     1.0  0.63567  0.49750  0.08368  1.0000
  H   H4048     1.0  0.59295  0.97722  0.15718  1.0000
  H   H4049     1.0  0.62877  0.76124  0.22382  1.0000
  C   C5071     1.0  0.69411  0.84527  0.47766  1.0000
  H   H4050     1.0  0.70074  0.79604  0.43697  1.0000
  C   C5072     1.0  0.75148  0.95116  0.00112  1.0000
  C   C5073     1.0  0.72389  0.93473  0.11542  1.0000
  C   C5074     1.0  0.62148  0.77647  0.19346  1.0000
  H   H4051     1.0  0.77383  0.71822  0.28045  1.0000
  C   C5075     1.0  0.69049  0.54966  0.27279  1.0000
  C   C5076     1.0  0.69880  0.56021  0.28422  1.0000
  C   C5077     1.0  0.70716  0.55511  0.30308  1.0000
  C   C5078     1.0  0.70776  0.53960  0.30963  1.0000
  H   H4052     1.0  0.61018  0.77796  0.46094  1.0000
  H   H4053     1.0  0.77014  0.80026  0.34390  1.0000
  P   P170      1.0  0.76751  0.79193  0.99443  1.0000
  H   H4054     1.0  0.70934  0.68781  0.09236  1.0000
  H   H4055     1.0  0.68400  0.55363  0.25816  1.0000
  H   H4056     1.0  0.69885  0.57236  0.27829  1.0000
  H   H4057     1.0  0.71347  0.56325  0.31223  1.0000
  H   H4058     1.0  0.71446  0.53592  0.32402  1.0000
  C   C5079     1.0  0.59200  0.95933  0.98937  1.0000
  H   H4059     1.0  0.77924  0.95881  0.03935  1.0000
  C   C5080     1.0  0.58866  0.56272  0.10595  1.0000
  C   C5081     1.0  0.76369  0.52796  0.20879  1.0000
  C   C5082     1.0  0.63324  0.83599  0.43552  1.0000
  C   C5083     1.0  0.63615  0.84437  0.40732  1.0000
  C   C5084     1.0  0.64183  0.86047  0.39958  1.0000
  C   C5085     1.0  0.64465  0.86820  0.42002  1.0000
  H   H4060     1.0  0.74612  0.58292  0.39585  1.0000
  H   H4061     1.0  0.75862  0.53162  0.27277  1.0000
  C   C5086     1.0  0.58369  0.77937  0.44247  1.0000
  C   C5087     1.0  0.65711  0.82089  0.47440  1.0000
  C   C5088     1.0  0.58822  0.59272  0.11109  1.0000
  H   H4062     1.0  0.76520  0.84906  0.28468  1.0000
  H   H4063     1.0  0.62879  0.82352  0.44130  1.0000
  H   H4064     1.0  0.63421  0.83843  0.39129  1.0000
  H   H4065     1.0  0.64428  0.86692  0.37764  1.0000
  H   H4066     1.0  0.64926  0.88068  0.41390  1.0000
  H   H4067     1.0  0.67609  0.72993  0.01725  1.0000
  C   C5089     1.0  0.62941  0.57318  0.06830  1.0000
  C   C5090     1.0  0.70096  0.94420  0.12280  1.0000
  H   H4068     1.0  0.76404  0.81125  0.23735  1.0000
  H   H4069     1.0  0.74490  0.87720  0.17133  1.0000
  H   H4070     1.0  0.73844  0.63931  0.21151  1.0000
  C   C5091     1.0  0.75338  0.90178  0.16547  1.0000
  C   C5092     1.0  0.69299  0.76353  0.44663  1.0000
  C   C5093     1.0  0.68640  0.77017  0.42565  1.0000
  C   C5094     1.0  0.67056  0.76939  0.43270  1.0000
  P   P171      1.0  0.69862  0.78064  0.39084  1.0000
  C   C5095     1.0  0.71254  0.76984  0.38144  1.0000
  C   C5096     1.0  0.73380  0.75270  0.36685  1.0000
  C   C5097     1.0  0.71807  0.74542  0.37645  1.0000
  C   C5098     1.0  0.70749  0.75390  0.38402  1.0000
  C   C5099     1.0  0.68697  0.78255  0.36577  1.0000
  C   C5100     1.0  0.67823  0.79355  0.36533  1.0000
  C   C5101     1.0  0.66885  0.79503  0.34666  1.0000
  C   C5102     1.0  0.66813  0.78553  0.32823  1.0000
  C   C5103     1.0  0.67686  0.77462  0.32833  1.0000
  C   C5104     1.0  0.68626  0.77312  0.34697  1.0000
  C   C5105     1.0  0.75429  0.81707  0.98402  1.0000
  H   H4071     1.0  0.77312  0.63864  0.37397  1.0000
  H   H4072     1.0  0.70407  0.73332  0.99926  1.0000
  H   H4073     1.0  0.66926  0.49277  0.32224  1.0000
  H   H4074     1.0  0.66511  0.77446  0.41719  1.0000
  H   H4075     1.0  0.74198  0.74617  0.36072  1.0000
  H   H4076     1.0  0.71407  0.73320  0.37789  1.0000
  H   H4077     1.0  0.69533  0.74806  0.39153  1.0000
  H   H4078     1.0  0.67857  0.80091  0.37966  1.0000
  H   H4079     1.0  0.66226  0.80366  0.34625  1.0000
  H   H4080     1.0  0.66098  0.78676  0.31356  1.0000
  H   H4081     1.0  0.67657  0.76753  0.31349  1.0000
  H   H4082     1.0  0.69300  0.76473  0.34623  1.0000
  C   C5106     1.0  0.72348  0.94630  0.17861  1.0000
  C   C5107     1.0  0.71475  0.93447  0.20246  1.0000
  C   C5108     1.0  0.72103  0.92252  0.21343  1.0000
  C   C5109     1.0  0.73604  0.92243  0.20063  1.0000
  C   C5110     1.0  0.74469  0.93395  0.17591  1.0000
  C   C5111     1.0  0.73839  0.94608  0.16540  1.0000
  P   P172      1.0  0.76398  0.93355  0.15896  1.0000
  C   C5112     1.0  0.68436  0.49162  0.38940  1.0000
  C   C5113     1.0  0.75385  0.83251  0.98195  1.0000
  C   C5114     1.0  0.67371  0.49223  0.34077  1.0000
  C   C5115     1.0  0.75185  0.60536  0.36670  1.0000
  H   H4083     1.0  0.71874  0.95570  0.17036  1.0000
  H   H4084     1.0  0.70328  0.93479  0.21295  1.0000
  H   H4085     1.0  0.71444  0.91359  0.23249  1.0000
  H   H4086     1.0  0.74089  0.91344  0.21034  1.0000
  H   H4087     1.0  0.74489  0.95546  0.14716  1.0000
  H   H4088     1.0  0.74326  0.90442  0.15971  1.0000
  H   H4089     1.0  0.61839  0.78338  0.20786  1.0000
  H   H4090     1.0  0.58744  0.66857  0.16246  1.0000
  H   H4091     1.0  0.76605  0.51337  0.37592  1.0000
  H   H4092     1.0  0.76385  0.70843  0.24061  1.0000
  H   H4093     1.0  0.66508  0.49777  0.25196  1.0000
  H   H4094     1.0  0.76765  0.54125  0.40840  1.0000
  H   H4095     1.0  0.58884  0.55113  0.10409  1.0000
  C   C5116     1.0  0.77639  0.49264  0.42048  1.0000
  C   C5117     1.0  0.76458  0.56119  0.42340  1.0000
  H   H4096     1.0  0.64384  0.86613  0.46371  1.0000
  C   C5118     1.0  0.76153  0.58652  0.15943  1.0000
  C   C5119     1.0  0.76032  0.78874  0.05293  1.0000
  C   C5120     1.0  0.64426  0.80745  0.40298  1.0000
  C   C5121     1.0  0.64652  0.80022  0.42871  1.0000
  C   C5122     1.0  0.75983  0.60041  0.41045  1.0000
  C   C5123     1.0  0.61956  0.78618  0.44453  1.0000
  C   C5124     1.0  0.61727  0.79324  0.41843  1.0000
  C   C5125     1.0  0.62972  0.80399  0.39790  1.0000
  P   P173      1.0  0.59891  0.78799  0.41021  1.0000
  C   C5126     1.0  0.59981  0.77468  0.38813  1.0000
  C   C5127     1.0  0.60089  0.94876  0.99438  1.0000
  C   C5128     1.0  0.60078  0.75519  0.35160  1.0000
  C   C5129     1.0  0.61405  0.76627  0.35011  1.0000
  C   C5130     1.0  0.61360  0.77597  0.36827  1.0000
  C   C5131     1.0  0.77604  0.51140  0.44847  1.0000
  C   C5132     1.0  0.68988  0.98222  0.13756  1.0000
  H   H4097     1.0  0.61944  0.53268  0.03620  1.0000
  P   P174      1.0  0.58416  0.72526  0.13685  1.0000
  H   H4098     1.0  0.65375  0.81590  0.38698  1.0000
  C   C5133     1.0  0.63414  0.78977  0.44967  1.0000
  H   H4099     1.0  0.76452  0.80120  0.04818  1.0000
  C   C5134     1.0  0.62256  0.52737  0.01921  1.0000
  H   H4100     1.0  0.62820  0.80965  0.37778  1.0000
  C   C5135     1.0  0.62146  0.57548  0.04745  1.0000
  C   C5136     1.0  0.76048  0.78113  0.03127  1.0000
  H   H4101     1.0  0.62458  0.76768  0.33418  1.0000
  H   H4102     1.0  0.62395  0.78472  0.36596  1.0000
  C   C5137     1.0  0.59842  0.61263  0.18906  1.0000
  H   H4103     1.0  0.77147  0.53620  0.33523  1.0000
  H   H4104     1.0  0.58865  0.75684  0.44907  1.0000
  C   C5138     1.0  0.58462  0.67142  0.08553  1.0000
  C   C5139     1.0  0.71634  0.81099  0.36583  1.0000
  C   C5140     1.0  0.63697  0.56233  0.02005  1.0000
  H   H4105     1.0  0.75572  0.75872  0.02225  1.0000
  H   H4106     1.0  0.74097  0.97725  0.10672  1.0000
  C   C5141     1.0  0.76883  0.66746  0.30989  1.0000
  H   H4107     1.0  0.68849  0.49164  0.40822  1.0000
  C   C5142     1.0  0.76732  0.61625  0.40403  1.0000
  S   S695      1.0  0.76279  0.74032  0.24576  1.0000
  H   H4108     1.0  0.75957  0.62887  0.34069  1.0000
  C   C5143     1.0  0.62328  0.77098  0.14786  1.0000
  C   C5144     1.0  0.61928  0.77995  0.16627  1.0000
  C   C5145     1.0  0.62759  0.76400  0.20233  1.0000
  C   C5146     1.0  0.63208  0.75520  0.18372  1.0000
  C   C5147     1.0  0.62969  0.75866  0.15648  1.0000
  P   P175      1.0  0.63995  0.73909  0.19570  1.0000
  C   C5148     1.0  0.65869  0.74545  0.20196  1.0000
  C   C5149     1.0  0.62656  0.72641  0.22782  1.0000
  C   C5150     1.0  0.63171  0.71654  0.24731  1.0000
  C   C5151     1.0  0.62129  0.70660  0.27201  1.0000
  C   C5152     1.0  0.61081  0.72605  0.23331  1.0000
  C   C5153     1.0  0.66892  0.73584  0.20085  1.0000
  C   C5154     1.0  0.68360  0.74068  0.20473  1.0000
  C   C5155     1.0  0.68821  0.75511  0.20988  1.0000
  C   C5156     1.0  0.67815  0.76472  0.21125  1.0000
  C   C5157     1.0  0.66346  0.75997  0.20722  1.0000
  C   C5158     1.0  0.64303  0.72849  0.16925  1.0000
  C   C5159     1.0  0.65522  0.73513  0.14475  1.0000
  C   C5160     1.0  0.65895  0.72648  0.12561  1.0000
  C   C5161     1.0  0.65058  0.71115  0.13078  1.0000
  C   C5162     1.0  0.63821  0.70457  0.15476  1.0000
  C   C5163     1.0  0.63443  0.71318  0.17398  1.0000
  H   H4109     1.0  0.62135  0.77357  0.12694  1.0000
  H   H4110     1.0  0.63260  0.75183  0.14193  1.0000
  H   H4111     1.0  0.64373  0.71647  0.24352  1.0000
  H   H4112     1.0  0.62534  0.69907  0.28702  1.0000
  H   H4113     1.0  0.60641  0.73340  0.21864  1.0000
  H   H4114     1.0  0.66570  0.72464  0.19665  1.0000
  H   H4115     1.0  0.69151  0.73332  0.20343  1.0000
  H   H4116     1.0  0.69963  0.75888  0.21267  1.0000
  H   H4117     1.0  0.68187  0.77591  0.21528  1.0000
  H   H4118     1.0  0.65608  0.76777  0.20803  1.0000
  H   H4119     1.0  0.66218  0.74684  0.14087  1.0000
  H   H4120     1.0  0.66853  0.73156  0.10696  1.0000
  H   H4121     1.0  0.65366  0.70440  0.11611  1.0000
  H   H4122     1.0  0.63164  0.69271  0.15852  1.0000
  H   H4123     1.0  0.62507  0.70770  0.19272  1.0000
  C   C5164     1.0  0.61432  0.83002  0.24541  1.0000
  C   C5165     1.0  0.60563  0.83694  0.22912  1.0000
  C   C5166     1.0  0.61214  0.85163  0.21035  1.0000
  C   C5167     1.0  0.62739  0.85935  0.20765  1.0000
  C   C5168     1.0  0.63628  0.85239  0.22373  1.0000
  C   C5169     1.0  0.62952  0.83775  0.24293  1.0000
  P   P176      1.0  0.65616  0.86199  0.22006  1.0000
  C   C5170     1.0  0.65764  0.87135  0.24816  1.0000
  C   C5171     1.0  0.66740  0.84779  0.22195  1.0000
  C   C5172     1.0  0.66369  0.83485  0.21131  1.0000
  C   C5173     1.0  0.67237  0.82386  0.21289  1.0000
  C   C5174     1.0  0.68489  0.82577  0.22484  1.0000
  C   C5175     1.0  0.68872  0.83866  0.23529  1.0000
  C   C5176     1.0  0.68004  0.84964  0.23382  1.0000
  C   C5177     1.0  0.66943  0.88483  0.24337  1.0000
  C   C5178     1.0  0.67092  0.89188  0.26518  1.0000
  C   C5179     1.0  0.66096  0.88535  0.29215  1.0000
  C   C5180     1.0  0.64932  0.87186  0.29720  1.0000
  C   C5181     1.0  0.64764  0.86485  0.27532  1.0000
  C   C5182     1.0  0.66376  0.87651  0.18644  1.0000
  C   C5183     1.0  0.66007  0.89091  0.18311  1.0000
  C   C5184     1.0  0.66611  0.90233  0.15742  1.0000
  C   C5185     1.0  0.67582  0.89946  0.13479  1.0000
  C   C5186     1.0  0.67949  0.88514  0.13784  1.0000
  C   C5187     1.0  0.67348  0.87369  0.16355  1.0000
  H   H4124     1.0  0.60928  0.81857  0.25981  1.0000
  H   H4125     1.0  0.59387  0.83089  0.23099  1.0000
  H   H4126     1.0  0.60535  0.85694  0.19772  1.0000
  H   H4127     1.0  0.63215  0.87064  0.19281  1.0000
  H   H4128     1.0  0.63607  0.83223  0.25576  1.0000
  H   H4129     1.0  0.65406  0.83318  0.20191  1.0000
  H   H4130     1.0  0.66934  0.81379  0.20499  1.0000
  H   H4131     1.0  0.69164  0.81726  0.22598  1.0000
  H   H4132     1.0  0.69841  0.84011  0.24468  1.0000
  H   H4133     1.0  0.68323  0.85952  0.24206  1.0000
  H   H4134     1.0  0.67770  0.88978  0.22301  1.0000
  H   H4135     1.0  0.68006  0.90224  0.26139  1.0000
  H   H4136     1.0  0.66256  0.89059  0.30922  1.0000
  H   H4137     1.0  0.64186  0.86654  0.31830  1.0000
  H   H4138     1.0  0.63882  0.85417  0.28000  1.0000
  H   H4139     1.0  0.65253  0.89332  0.20044  1.0000
  H   H4140     1.0  0.66321  0.91342  0.15503  1.0000
  H   H4141     1.0  0.68045  0.90832  0.11486  1.0000
  H   H4142     1.0  0.68697  0.88289  0.12025  1.0000
  H   H4143     1.0  0.67649  0.86270  0.16543  1.0000
  C   C5188     1.0  0.63320  0.98332  0.98932  1.0000
  H   H4144     1.0  0.73134  0.50078  0.21327  1.0000
  H   H4145     1.0  0.62014  0.65298  0.00541  1.0000
  H   H4146     1.0  0.61532  0.49191  0.00571  1.0000
  C   C5189     1.0  0.73402  0.52194  0.28637  1.0000
  C   C5190     1.0  0.58697  0.75395  0.37100  1.0000
  H   H4147     1.0  0.59762  0.69882  0.29663  1.0000
  Fe  Fe348     1.0  0.77269  0.57635  0.25236  1.0000
  H   H4148     1.0  0.74351  0.71676  0.22054  1.0000
  C   C5191     1.0  0.63324  0.53599  0.99358  1.0000
  C   C5192     1.0  0.61611  0.51153  0.02347  1.0000
  Fe  Fe349     1.0  0.59485  0.77915  0.27780  1.0000
  C   C5193     1.0  0.76810  0.94138  0.12101  1.0000
  S   S696      1.0  0.63403  0.98154  0.13020  1.0000
  H   H4149     1.0  0.76017  0.54828  0.07181  1.0000
  H   H4150     1.0  0.76408  0.82087  0.36579  1.0000
  H   H4151     1.0  0.73011  0.92627  0.12191  1.0000
  C   C5194     1.0  0.68060  0.72841  0.99652  1.0000
  H   H4152     1.0  0.72193  0.62255  0.25779  1.0000
  H   H4153     1.0  0.63100  0.63220  0.02757  1.0000
  C   C5195     1.0  0.76580  0.84282  0.98705  1.0000
  C   C5196     1.0  0.60877  0.91242  0.04387  1.0000
  C   C5197     1.0  0.76723  0.88271  0.17950  1.0000
  H   H4154     1.0  0.58455  0.73590  0.18884  1.0000
  H   H4155     1.0  0.70594  0.50549  0.36133  1.0000
  C   C5198     1.0  0.58259  0.74316  0.14588  1.0000
  C   C5199     1.0  0.76590  0.96121  0.98674  1.0000
  C   C5200     1.0  0.59135  0.70892  0.18396  1.0000
  H   H4156     1.0  0.74600  0.60114  0.35202  1.0000
  H   H4157     1.0  0.60677  0.94900  0.01099  1.0000
  H   H4158     1.0  0.73457  0.77659  0.00834  1.0000
  H   H4159     1.0  0.76310  0.76871  0.26954  1.0000
  C   C5201     1.0  0.76541  0.91368  0.16669  1.0000
  C   C5202     1.0  0.76944  0.81098  0.33060  1.0000
  H   H4160     1.0  0.60041  0.50963  0.16381  1.0000
  H   H4161     1.0  0.70718  0.88983  0.46278  1.0000
  H   H4162     1.0  0.60105  0.58781  0.14252  1.0000
  C   C5203     1.0  0.58942  0.69598  0.20636  1.0000
  C   C5204     1.0  0.62505  0.56990  0.02362  1.0000
  H   H4163     1.0  0.71698  0.80818  0.34569  1.0000
  H   H4164     1.0  0.76236  0.94005  0.21457  1.0000
  C   C5205     1.0  0.60568  0.70644  0.27742  1.0000
  H   H4165     1.0  0.63584  0.78449  0.46994  1.0000
  H   H4166     1.0  0.63146  0.50022  0.10337  1.0000
  H   H4167     1.0  0.76667  0.91924  0.11079  1.0000
  S   S697      1.0  0.77517  0.58705  0.28842  1.0000
  H   H4168     1.0  0.59368  0.60612  0.21100  1.0000
  H   H4169     1.0  0.59496  0.65589  0.03006  1.0000
  H   H4170     1.0  0.62752  0.64329  0.14718  1.0000
  H   H4171     1.0  0.77736  0.97599  0.07121  1.0000
  H   H4172     1.0  0.58939  0.97026  0.09552  1.0000
  H   H4173     1.0  0.77588  0.60942  0.13777  1.0000
  C   C5206     1.0  0.76276  0.70683  0.16422  1.0000
  C   C5207     1.0  0.77270  0.93790  0.07337  1.0000
  C   C5208     1.0  0.59147  0.63660  0.06612  1.0000
  C   C5209     1.0  0.77970  0.74243  0.25813  1.0000
  C   C5210     1.0  0.77826  0.83773  0.99401  1.0000
  C   C5211     1.0  0.66642  0.81055  0.47750  1.0000
  C   C5212     1.0  0.75200  0.71245  0.20809  1.0000
  C   C5213     1.0  0.73110  0.94754  0.09217  1.0000
  C   C5214     1.0  0.76356  0.70774  0.21938  1.0000
  H   H4174     1.0  0.77980  0.54260  0.03660  1.0000
  C   C5215     1.0  0.77032  0.97542  0.99284  1.0000
  H   H4175     1.0  0.74286  0.94881  0.08086  1.0000
  C   C5216     1.0  0.73965  0.77685  0.98665  1.0000
  H   H4176     1.0  0.71508  0.51903  0.09831  1.0000
  H   H4177     1.0  0.77351  0.62063  0.41812  1.0000
  H   H4178     1.0  0.76543  0.85475  0.98564  1.0000
  H   H4179     1.0  0.74486  0.80925  0.98027  1.0000
  C   C5217     1.0  0.77489  0.70264  0.20307  1.0000
  C   C5218     1.0  0.77930  0.89449  0.18049  1.0000
  C   C5219     1.0  0.77441  0.70221  0.17537  1.0000
  C   C5220     1.0  0.58345  0.92906  0.07348  1.0000
  C   C5221     1.0  0.77116  0.54326  0.10597  1.0000
  C   C5222     1.0  0.77166  0.81307  0.30127  1.0000
  H   H4180     1.0  0.76990  0.76338  0.31340  1.0000
  C   C5223     1.0  0.76592  0.82259  0.34314  1.0000
  H   H4181     1.0  0.73167  0.56248  0.46827  1.0000
  C   C5224     1.0  0.58677  0.80422  0.36995  1.0000
  H   H4182     1.0  0.76144  0.84523  0.33629  1.0000
  C   C5225     1.0  0.76878  0.93164  0.10270  1.0000
  H   H4183     1.0  0.77853  0.57496  0.09168  1.0000
  C   C5226     1.0  0.77131  0.95747  0.10936  1.0000
  S   S698      1.0  0.77332  0.80514  0.13122  1.0000
  H   H4184     1.0  0.77138  0.96535  0.12285  1.0000
  H   H4185     1.0  0.59608  0.49164  0.26417  1.0000
  C   C5227     1.0  0.77586  0.95389  0.06206  1.0000
  C   C5228     1.0  0.77768  0.94489  0.17268  1.0000
  H   H4186     1.0  0.58259  0.79326  0.36548  1.0000
  C   C5229     1.0  0.58404  0.81758  0.35441  1.0000
  H   H4187     1.0  0.67720  0.81272  0.46171  1.0000
  C   C5230     1.0  0.77493  0.96362  0.08006  1.0000
  H   H4188     1.0  0.77867  0.52329  0.44983  1.0000
  C   C5231     1.0  0.76447  0.83634  0.32656  1.0000
  C   C5232     1.0  0.77843  0.90993  0.17411  1.0000
  C   C5233     1.0  0.76980  0.54473  0.07810  1.0000
  C   C5234     1.0  0.77359  0.57804  0.11063  1.0000
  C   C5235     1.0  0.77548  0.51502  0.35759  1.0000
  C   C5236     1.0  0.58326  0.74510  0.17268  1.0000
  C   C5237     1.0  0.77042  0.82705  0.28474  1.0000
  C   C5238     1.0  0.78016  0.50802  0.42236  1.0000
  C   C5239     1.0  0.59937  0.90526  0.98797  1.0000
  C   C5240     1.0  0.73985  0.55797  0.45569  1.0000
  H   H4189     1.0  0.77208  0.53077  0.22059  1.0000
  C   C5241     1.0  0.77836  0.52786  0.33447  1.0000
  C   C5242     1.0  0.77822  0.59336  0.11208  1.0000
  H   H4190     1.0  0.78153  0.95483  0.23328  1.0000
  H   H4191     1.0  0.71808  0.76521  0.98089  1.0000
  C   C5243     1.0  0.78163  0.68587  0.25399  1.0000
  H   H4192     1.0  0.78153  0.98321  0.98170  1.0000
  H   H4193     1.0  0.58212  0.76025  0.20014  1.0000
  C   C5244     1.0  0.74458  0.98864  0.09204  1.0000
  C   C5245     1.0  0.59102  0.98834  0.15922  1.0000
  C   C5246     1.0  0.59268  0.85726  0.66626  1.0000
  C   C5247     1.0  0.59006  0.93961  0.79325  1.0000
  Fe  Fe350     1.0  0.76539  0.56774  0.58919  1.0000
  S   S699      1.0  0.75869  0.55301  0.63393  1.0000
  S   S700      1.0  0.76413  0.55821  0.55075  1.0000
  Fe  Fe351     1.0  0.75192  0.57355  0.64575  1.0000
  S   S701      1.0  0.73153  0.56973  0.68279  1.0000
  C   C5248     1.0  0.77518  0.66209  0.72102  1.0000
  S   S702      1.0  0.75702  0.58781  0.60069  1.0000
  C   C5249     1.0  0.59193  0.65892  0.80443  1.0000
  S   S703      1.0  0.60503  0.80514  0.58175  1.0000
  Fe  Fe352     1.0  0.64272  0.54773  0.70730  1.0000
  S   S704      1.0  0.62259  0.55853  0.71236  1.0000
  S   S705      1.0  0.66319  0.55774  0.66900  1.0000
  Fe  Fe353     1.0  0.62710  0.52107  0.75950  1.0000
  S   S706      1.0  0.60598  0.52971  0.76900  1.0000
  H   H4194     1.0  0.59423  0.67706  0.63488  1.0000
  Fe  Fe354     1.0  0.60782  0.53416  0.72250  1.0000
  C   C5250     1.0  0.65343  0.85245  0.50895  1.0000
  Fe  Fe355     1.0  0.62247  0.55318  0.75828  1.0000
  S   S707      1.0  0.61685  0.56811  0.78761  1.0000
  S   S708      1.0  0.62791  0.52381  0.71353  1.0000
  S   S709      1.0  0.64360  0.54414  0.75266  1.0000
  C   C5251     1.0  0.62493  0.98532  0.96871  1.0000
  S   S710      1.0  0.62979  0.49869  0.78485  1.0000
  H   H4195     1.0  0.66962  0.98338  0.66608  1.0000
  Fe  Fe356     1.0  0.60607  0.96082  0.84120  1.0000
  S   S711      1.0  0.62581  0.97022  0.80239  1.0000
  C   C5252     1.0  0.70267  0.52750  0.64385  1.0000
  Fe  Fe357     1.0  0.64088  0.96589  0.83191  1.0000
  S   S712      1.0  0.65971  0.95366  0.82208  1.0000
  C   C5253     1.0  0.76982  0.63803  0.62769  1.0000
  S   S713      1.0  0.62086  0.95448  0.87010  1.0000
  H   H4196     1.0  0.76932  0.60888  0.50182  1.0000
  Fe  Fe358     1.0  0.65336  0.64891  0.80147  1.0000
  S   S714      1.0  0.64514  0.66933  0.78245  1.0000
  S   S715      1.0  0.66148  0.63343  0.77482  1.0000
  Fe  Fe359     1.0  0.65059  0.65688  0.85811  1.0000
  S   S716      1.0  0.64191  0.67780  0.84367  1.0000
  S   S717      1.0  0.65523  0.64812  0.90071  1.0000
  Fe  Fe360     1.0  0.62727  0.66256  0.82395  1.0000
  S   S718      1.0  0.60196  0.66236  0.83010  1.0000
  Fe  Fe361     1.0  0.66051  0.68285  0.80353  1.0000
  S   S719      1.0  0.67446  0.70741  0.77952  1.0000
  S   S720      1.0  0.63448  0.64118  0.84174  1.0000
  S   S721      1.0  0.67023  0.66296  0.81911  1.0000
  C   C5254     1.0  0.59677  0.73204  0.70061  1.0000
  S   S722      1.0  0.75121  0.93687  0.70840  1.0000
  C   C5255     1.0  0.65580  0.50204  0.54248  1.0000
  H   H4197     1.0  0.61674  0.92586  0.74307  1.0000
  S   S723      1.0  0.75007  0.96248  0.76377  1.0000
  Fe  Fe362     1.0  0.75270  0.76348  0.78553  1.0000
  S   S724      1.0  0.73578  0.73990  0.80714  1.0000
  S   S725      1.0  0.75182  0.81736  0.73151  1.0000
  S   S726      1.0  0.74991  0.78550  0.79669  1.0000
  Fe  Fe363     1.0  0.67438  0.85374  0.62415  1.0000
  S   S727      1.0  0.68537  0.87834  0.59818  1.0000
  S   S728      1.0  0.64817  0.84449  0.64109  1.0000
  Fe  Fe364     1.0  0.70564  0.84675  0.62218  1.0000
  S   S729      1.0  0.71874  0.87067  0.59460  1.0000
  S   S730      1.0  0.71611  0.82644  0.63492  1.0000
  Fe  Fe365     1.0  0.70266  0.87932  0.62481  1.0000
  S   S731      1.0  0.70905  0.90175  0.63999  1.0000
  Fe  Fe366     1.0  0.70054  0.86792  0.57016  1.0000
  S   S732      1.0  0.70493  0.87735  0.52185  1.0000
  S   S733      1.0  0.69025  0.85535  0.65319  1.0000
  S   S734      1.0  0.68881  0.84339  0.59533  1.0000
  C   C5256     1.0  0.74146  0.81917  0.70521  1.0000
  C   C5257     1.0  0.73852  0.80786  0.69066  1.0000
  C   C5258     1.0  0.73058  0.81015  0.66938  1.0000
  C   C5259     1.0  0.72538  0.82365  0.66274  1.0000
  C   C5260     1.0  0.72782  0.83463  0.67805  1.0000
  C   C5261     1.0  0.73600  0.83250  0.69889  1.0000
  H   H4198     1.0  0.74251  0.79748  0.69553  1.0000
  H   H4199     1.0  0.72856  0.80148  0.65788  1.0000
  H   H4200     1.0  0.72349  0.84481  0.67370  1.0000
  H   H4201     1.0  0.73805  0.84122  0.71028  1.0000
  C   C5262     1.0  0.64207  0.92843  0.78380  1.0000
  C   C5263     1.0  0.69653  0.85201  0.49987  1.0000
  H   H4202     1.0  0.69069  0.83281  0.48203  1.0000
  C   C5264     1.0  0.64332  0.81850  0.49497  1.0000
  H   H4203     1.0  0.69483  0.84472  0.52090  1.0000
  C   C5265     1.0  0.73962  0.92752  0.68864  1.0000
  C   C5266     1.0  0.73123  0.93511  0.67238  1.0000
  C   C5267     1.0  0.72216  0.92710  0.65756  1.0000
  C   C5268     1.0  0.72119  0.91133  0.65868  1.0000
  C   C5269     1.0  0.72965  0.90378  0.67480  1.0000
  C   C5270     1.0  0.73880  0.91181  0.68946  1.0000
  H   H4204     1.0  0.73179  0.94719  0.67115  1.0000
  H   H4205     1.0  0.71587  0.93321  0.64502  1.0000
  H   H4206     1.0  0.72899  0.89167  0.67636  1.0000
  H   H4207     1.0  0.74518  0.90570  0.70184  1.0000
  C   C5271     1.0  0.65184  0.65876  0.92597  1.0000
  C   C5272     1.0  0.64436  0.67064  0.92158  1.0000
  C   C5273     1.0  0.64215  0.67927  0.94153  1.0000
  C   C5274     1.0  0.66209  0.79784  0.50122  1.0000
  H   H4208     1.0  0.66299  0.91522  0.94498  1.0000
  C   C5275     1.0  0.65673  0.65531  0.95086  1.0000
  H   H4209     1.0  0.64022  0.67315  0.90289  1.0000
  H   H4210     1.0  0.63644  0.68852  0.93787  1.0000
  C   C5276     1.0  0.76465  0.93639  0.59556  1.0000
  H   H4211     1.0  0.58384  0.58808  0.65006  1.0000
  C   C5277     1.0  0.69182  0.71609  0.78669  1.0000
  C   C5278     1.0  0.70032  0.73102  0.77026  1.0000
  C   C5279     1.0  0.71400  0.73842  0.77582  1.0000
  C   C5280     1.0  0.71922  0.73092  0.79798  1.0000
  C   C5281     1.0  0.71088  0.71589  0.81402  1.0000
  C   C5282     1.0  0.69724  0.70849  0.80845  1.0000
  H   H4212     1.0  0.69622  0.73689  0.75331  1.0000
  H   H4213     1.0  0.72041  0.74995  0.76329  1.0000
  H   H4214     1.0  0.71487  0.71002  0.83114  1.0000
  H   H4215     1.0  0.69079  0.69702  0.82129  1.0000
  H   H4216     1.0  0.59776  0.87200  0.96662  1.0000
  C   C5283     1.0  0.76773  0.50645  0.83890  1.0000
  P   P177      1.0  0.58406  0.60106  0.74877  1.0000
  Fe  Fe367     1.0  0.76071  0.79695  0.75039  1.0000
  H   H4217     1.0  0.66179  0.85188  0.49067  1.0000
  Fe  Fe368     1.0  0.62320  0.97841  0.87605  1.0000
  H   H4218     1.0  0.62488  0.94547  0.92852  1.0000
  C   C5284     1.0  0.67870  0.96518  0.80646  1.0000
  H   H4219     1.0  0.59697  0.65315  0.73848  1.0000
  H   H4220     1.0  0.66948  0.79004  0.50383  1.0000
  H   H4221     1.0  0.77599  0.68416  0.73066  1.0000
  C   C5285     1.0  0.70525  0.96759  0.78151  1.0000
  C   C5286     1.0  0.69026  0.95839  0.79559  1.0000
  C   C5287     1.0  0.63988  0.85966  0.73465  1.0000
  H   H4222     1.0  0.64900  0.62314  0.70270  1.0000
  H   H4223     1.0  0.71406  0.96238  0.77273  1.0000
  H   H4224     1.0  0.68754  0.94604  0.79765  1.0000
  C   C5288     1.0  0.59945  0.65723  0.77842  1.0000
  H   H4225     1.0  0.77546  0.64578  0.60686  1.0000
  C   C5289     1.0  0.66523  0.51354  0.69719  1.0000
  H   H4226     1.0  0.72735  0.50110  0.61704  1.0000
  H   H4227     1.0  0.61169  0.65816  0.77354  1.0000
  H   H4228     1.0  0.72412  0.50406  0.85036  1.0000
  C   C5290     1.0  0.66214  0.49466  0.74130  1.0000
  H   H4229     1.0  0.62766  0.86658  0.76947  1.0000
  H   H4230     1.0  0.59612  0.84778  0.65910  1.0000
  H   H4231     1.0  0.77992  0.81075  0.88843  1.0000
  C   C5291     1.0  0.69555  0.51414  0.63718  1.0000
  C   C5292     1.0  0.76563  0.56858  0.75444  1.0000
  H   H4232     1.0  0.67415  0.96142  0.74527  1.0000
  H   H4233     1.0  0.60103  0.94776  0.78963  1.0000
  H   H4234     1.0  0.66101  0.96937  0.95478  1.0000
  S   S735      1.0  0.77499  0.58392  0.65199  1.0000
  H   H4235     1.0  0.59288  0.86963  0.62441  1.0000
  C   C5293     1.0  0.76795  0.63041  0.67809  1.0000
  C   C5294     1.0  0.61830  0.50570  0.83442  1.0000
  H   H4236     1.0  0.60958  0.51100  0.87356  1.0000
  H   H4237     1.0  0.61375  0.51402  0.82203  1.0000
  C   C5295     1.0  0.62975  0.58591  0.78424  1.0000
  C   C5296     1.0  0.62568  0.59489  0.80267  1.0000
  C   C5297     1.0  0.63520  0.60956  0.79968  1.0000
  C   C5298     1.0  0.64908  0.61519  0.77866  1.0000
  C   C5299     1.0  0.65347  0.60593  0.76091  1.0000
  C   C5300     1.0  0.64379  0.59134  0.76358  1.0000
  H   H4238     1.0  0.61498  0.59058  0.81908  1.0000
  H   H4239     1.0  0.63179  0.61647  0.81368  1.0000
  H   H4240     1.0  0.66428  0.61014  0.74480  1.0000
  H   H4241     1.0  0.64708  0.58441  0.74945  1.0000
  S   S736      1.0  0.76199  0.77454  0.73866  1.0000
  S   S737      1.0  0.58303  0.94409  0.84677  1.0000
  P   P178      1.0  0.67485  0.50870  0.64400  1.0000
  H   H4242     1.0  0.64757  0.51686  0.56690  1.0000
  H   H4243     1.0  0.60067  0.50387  0.70300  1.0000
  H   H4244     1.0  0.66941  0.70008  0.91150  1.0000
  C   C5301     1.0  0.61677  0.81484  0.60028  1.0000
  C   C5302     1.0  0.61050  0.81965  0.62386  1.0000
  C   C5303     1.0  0.62025  0.82848  0.63636  1.0000
  C   C5304     1.0  0.63637  0.83263  0.62553  1.0000
  C   C5305     1.0  0.64264  0.82744  0.60247  1.0000
  C   C5306     1.0  0.63291  0.81861  0.58999  1.0000
  H   H4245     1.0  0.59813  0.81693  0.63199  1.0000
  H   H4246     1.0  0.61523  0.83235  0.65417  1.0000
  H   H4247     1.0  0.65499  0.83054  0.59375  1.0000
  H   H4248     1.0  0.63798  0.81510  0.57171  1.0000
  C   C5307     1.0  0.74823  0.54449  0.54750  1.0000
  C   C5308     1.0  0.73331  0.54202  0.56427  1.0000
  C   C5309     1.0  0.72081  0.53199  0.55957  1.0000
  C   C5310     1.0  0.72305  0.52409  0.53842  1.0000
  C   C5311     1.0  0.73802  0.52636  0.52190  1.0000
  C   C5312     1.0  0.75050  0.53665  0.52620  1.0000
  H   H4249     1.0  0.73133  0.54810  0.58046  1.0000
  C   C5313     1.0  0.73580  0.60679  0.49625  1.0000
  H   H4250     1.0  0.76195  0.53861  0.51283  1.0000
  C   C5314     1.0  0.71266  0.56598  0.67837  1.0000
  C   C5315     1.0  0.70988  0.56835  0.65153  1.0000
  C   C5316     1.0  0.69465  0.56576  0.64892  1.0000
  C   C5317     1.0  0.68214  0.56064  0.67308  1.0000
  C   C5318     1.0  0.68495  0.55804  0.69986  1.0000
  C   C5319     1.0  0.70017  0.56079  0.70247  1.0000
  H   H4251     1.0  0.71945  0.57237  0.63283  1.0000
  H   H4252     1.0  0.69252  0.56777  0.62815  1.0000
  H   H4253     1.0  0.67544  0.55416  0.71856  1.0000
  H   H4254     1.0  0.70227  0.55898  0.72322  1.0000
  C   C5320     1.0  0.59767  0.79979  0.70703  1.0000
  C   C5321     1.0  0.62210  0.49352  0.87981  1.0000
  H   H4255     1.0  0.62339  0.84267  0.69031  1.0000
  H   H4256     1.0  0.70931  0.53036  0.57241  1.0000
  C   C5322     1.0  0.61225  0.62318  0.73294  1.0000
  H   H4257     1.0  0.73491  0.90154  0.51516  1.0000
  C   C5323     1.0  0.64751  0.67619  0.96588  1.0000
  H   H4258     1.0  0.72059  0.91339  0.75533  1.0000
  C   C5324     1.0  0.61153  0.82323  0.50241  1.0000
  H   H4259     1.0  0.75861  0.82619  0.78305  1.0000
  C   C5325     1.0  0.63157  0.98205  0.71921  1.0000
  C   C5326     1.0  0.76961  0.94832  0.63294  1.0000
  C   C5327     1.0  0.76607  0.96169  0.61947  1.0000
  C   C5328     1.0  0.76161  0.78393  0.94589  1.0000
  C   C5329     1.0  0.61211  0.85537  0.74860  1.0000
  C   C5330     1.0  0.62649  0.49662  0.82142  1.0000
  H   H4260     1.0  0.68015  0.51379  0.94191  1.0000
  H   H4261     1.0  0.77691  0.67704  0.63732  1.0000
  H   H4262     1.0  0.73189  0.61730  0.49490  1.0000
  H   H4263     1.0  0.62485  0.54988  0.94627  1.0000
  C   C5331     1.0  0.67023  0.54931  0.59716  1.0000
  C   C5332     1.0  0.72746  0.52185  0.63100  1.0000
  C   C5333     1.0  0.72043  0.50840  0.62473  1.0000
  S   S738      1.0  0.75307  0.98326  0.69929  1.0000
  Fe  Fe369     1.0  0.75786  0.96066  0.71888  1.0000
  H   H4264     1.0  0.58286  0.50294  0.81482  1.0000
  C   C5334     1.0  0.59695  0.70693  0.76952  1.0000
  H   H4265     1.0  0.73981  0.52491  0.62809  1.0000
  H   H4266     1.0  0.60888  0.81673  0.72494  1.0000
  S   S739      1.0  0.61958  0.49220  0.91609  1.0000
  H   H4267     1.0  0.64617  0.97276  0.91849  1.0000
  H   H4268     1.0  0.70370  0.74078  0.85707  1.0000
  C   C5335     1.0  0.75770  0.53783  0.75163  1.0000
  C   C5336     1.0  0.62924  0.49746  0.56854  1.0000
  C   C5337     1.0  0.69558  0.66531  0.93643  1.0000
  C   C5338     1.0  0.69668  0.67299  0.90853  1.0000
  C   C5339     1.0  0.69837  0.68901  0.90095  1.0000
  C   C5340     1.0  0.69861  0.69742  0.92141  1.0000
  C   C5341     1.0  0.69761  0.68961  0.94939  1.0000
  P   P179      1.0  0.69948  0.71789  0.91181  1.0000
  C   C5342     1.0  0.69213  0.72321  0.94380  1.0000
  C   C5343     1.0  0.71897  0.72953  0.89540  1.0000
  C   C5344     1.0  0.73077  0.72277  0.88566  1.0000
  C   C5345     1.0  0.74407  0.62839  0.73838  1.0000
  C   C5346     1.0  0.65467  0.66406  0.97072  1.0000
  H   H4269     1.0  0.72624  0.59815  0.54139  1.0000
  H   H4270     1.0  0.64885  0.85228  0.69779  1.0000
  H   H4271     1.0  0.58361  0.86994  0.72545  1.0000
  C   C5347     1.0  0.68748  0.72057  0.88756  1.0000
  C   C5348     1.0  0.67337  0.70966  0.89263  1.0000
  C   C5349     1.0  0.66459  0.71065  0.87288  1.0000
  C   C5350     1.0  0.66981  0.72254  0.84784  1.0000
  C   C5351     1.0  0.68372  0.73358  0.84275  1.0000
  C   C5352     1.0  0.69260  0.73257  0.86237  1.0000
  C   C5353     1.0  0.67634  0.97390  0.74050  1.0000
  H   H4272     1.0  0.61770  0.92662  0.79196  1.0000
  H   H4273     1.0  0.69577  0.66647  0.89293  1.0000
  H   H4274     1.0  0.69897  0.69473  0.87932  1.0000
  C   C5354     1.0  0.73633  0.50480  0.84714  1.0000
  H   H4275     1.0  0.72844  0.71044  0.88764  1.0000
  C   C5355     1.0  0.60102  0.98458  0.73212  1.0000
  C   C5356     1.0  0.59397  0.73828  0.67461  1.0000
  H   H4276     1.0  0.60520  0.79228  0.71080  1.0000
  P   P180      1.0  0.59208  0.84127  0.72082  1.0000
  H   H4277     1.0  0.75471  0.62257  0.61220  1.0000
  H   H4278     1.0  0.72035  0.62447  0.76102  1.0000
  C   C5357     1.0  0.63752  0.52847  0.97256  1.0000
  H   H4279     1.0  0.66336  0.72290  0.83197  1.0000
  C   C5358     1.0  0.67559  0.81024  0.67423  1.0000
  C   C5359     1.0  0.65191  0.79924  0.71123  1.0000
  C   C5360     1.0  0.65872  0.78850  0.72501  1.0000
  C   C5361     1.0  0.67402  0.78850  0.71329  1.0000
  C   C5362     1.0  0.68245  0.79959  0.68796  1.0000
  P   P181      1.0  0.68302  0.77466  0.73056  1.0000
  C   C5363     1.0  0.69482  0.78318  0.75087  1.0000
  C   C5364     1.0  0.66831  0.75811  0.75418  1.0000
  C   C5365     1.0  0.66383  0.74455  0.74568  1.0000
  C   C5366     1.0  0.65238  0.73189  0.76413  1.0000
  C   C5367     1.0  0.64538  0.73260  0.79119  1.0000
  C   C5368     1.0  0.64975  0.74604  0.79983  1.0000
  C   C5369     1.0  0.66116  0.75876  0.78141  1.0000
  C   C5370     1.0  0.69887  0.77352  0.77245  1.0000
  C   C5371     1.0  0.70873  0.77986  0.78729  1.0000
  C   C5372     1.0  0.71443  0.79593  0.78096  1.0000
  C   C5373     1.0  0.71026  0.80562  0.75985  1.0000
  C   C5374     1.0  0.70062  0.79930  0.74460  1.0000
  C   C5375     1.0  0.69486  0.76833  0.70395  1.0000
  C   C5376     1.0  0.69005  0.76635  0.67975  1.0000
  C   C5377     1.0  0.69899  0.76109  0.65947  1.0000
  C   C5378     1.0  0.71270  0.75760  0.66334  1.0000
  C   C5379     1.0  0.71753  0.75952  0.68736  1.0000
  C   C5380     1.0  0.70877  0.76503  0.70741  1.0000
  H   H4280     1.0  0.68216  0.81869  0.65457  1.0000
  H   H4281     1.0  0.65198  0.78024  0.74465  1.0000
  H   H4282     1.0  0.69434  0.80000  0.67873  1.0000
  H   H4283     1.0  0.66925  0.74354  0.72509  1.0000
  H   H4284     1.0  0.64931  0.72130  0.75775  1.0000
  H   H4285     1.0  0.63677  0.72260  0.80560  1.0000
  H   H4286     1.0  0.64440  0.74654  0.82092  1.0000
  H   H4287     1.0  0.66443  0.76910  0.78843  1.0000
  H   H4288     1.0  0.69477  0.76105  0.77718  1.0000
  H   H4289     1.0  0.71224  0.77232  0.80324  1.0000
  H   H4290     1.0  0.72240  0.80090  0.79187  1.0000
  H   H4291     1.0  0.69808  0.80705  0.72760  1.0000
  H   H4292     1.0  0.67938  0.76885  0.67658  1.0000
  H   H4293     1.0  0.69528  0.75971  0.64076  1.0000
  H   H4294     1.0  0.71961  0.75347  0.64771  1.0000
  H   H4295     1.0  0.72806  0.75674  0.69060  1.0000
  H   H4296     1.0  0.71292  0.76660  0.72555  1.0000
  C   C5381     1.0  0.72112  0.91787  0.56675  1.0000
  C   C5382     1.0  0.72144  0.91093  0.54440  1.0000
  C   C5383     1.0  0.73488  0.90732  0.53201  1.0000
  C   C5384     1.0  0.74802  0.91061  0.54198  1.0000
  C   C5385     1.0  0.74784  0.91770  0.56435  1.0000
  C   C5386     1.0  0.73423  0.92120  0.57676  1.0000
  H   H4297     1.0  0.71053  0.92014  0.57708  1.0000
  H   H4298     1.0  0.71116  0.90794  0.53710  1.0000
  C   C5387     1.0  0.76185  0.96249  0.59403  1.0000
  C   C5388     1.0  0.69097  0.98324  0.72560  1.0000
  H   H4299     1.0  0.69486  0.66759  0.97861  1.0000
  H   H4300     1.0  0.69932  0.49365  0.62418  1.0000
  H   H4301     1.0  0.65901  0.51766  0.73830  1.0000
  H   H4302     1.0  0.74840  0.84876  0.78939  1.0000
  Fe  Fe370     1.0  0.77410  0.78939  0.80209  1.0000
  H   H4303     1.0  0.64870  0.94979  0.89127  1.0000
  C   C5389     1.0  0.60208  0.93811  0.97802  1.0000
  C   C5390     1.0  0.73743  0.58237  0.52411  1.0000
  C   C5391     1.0  0.58667  0.93289  0.77175  1.0000
  H   H4304     1.0  0.74417  0.83645  0.97660  1.0000
  C   C5392     1.0  0.68156  0.53700  0.91836  1.0000
  C   C5393     1.0  0.67583  0.54613  0.89892  1.0000
  C   C5394     1.0  0.66372  0.53923  0.88875  1.0000
  C   C5395     1.0  0.65837  0.52300  0.89659  1.0000
  P   P182      1.0  0.65622  0.55052  0.86312  1.0000
  C   C5396     1.0  0.66132  0.57119  0.85941  1.0000
  C   C5397     1.0  0.66388  0.54612  0.83043  1.0000
  C   C5398     1.0  0.67849  0.55461  0.81308  1.0000
  C   C5399     1.0  0.68476  0.55063  0.78851  1.0000
  C   C5400     1.0  0.67669  0.53790  0.78155  1.0000
  C   C5401     1.0  0.66236  0.52913  0.79921  1.0000
  C   C5402     1.0  0.65593  0.53325  0.82348  1.0000
  C   C5403     1.0  0.66211  0.57697  0.88309  1.0000
  C   C5404     1.0  0.66579  0.59297  0.88013  1.0000
  C   C5405     1.0  0.66815  0.60330  0.85377  1.0000
  C   C5406     1.0  0.66692  0.59763  0.83032  1.0000
  C   C5407     1.0  0.66332  0.58166  0.83313  1.0000
  C   C5408     1.0  0.63541  0.54501  0.87260  1.0000
  C   C5409     1.0  0.62752  0.55075  0.85316  1.0000
  C   C5410     1.0  0.61142  0.54724  0.86068  1.0000
  C   C5411     1.0  0.60307  0.53798  0.88758  1.0000
  C   C5412     1.0  0.61082  0.53218  0.90703  1.0000
  C   C5413     1.0  0.62691  0.53573  0.89964  1.0000
  H   H4305     1.0  0.70017  0.97800  0.71860  1.0000
  H   H4306     1.0  0.58772  0.73079  0.66436  1.0000
  H   H4307     1.0  0.69074  0.54234  0.92648  1.0000
  H   H4308     1.0  0.68105  0.55845  0.89164  1.0000
  H   H4309     1.0  0.64959  0.51728  0.88795  1.0000
  H   H4310     1.0  0.68507  0.56425  0.81854  1.0000
  H   H4311     1.0  0.69592  0.55736  0.77492  1.0000
  H   H4312     1.0  0.68151  0.53480  0.76251  1.0000
  H   H4313     1.0  0.65615  0.51917  0.79398  1.0000
  H   H4314     1.0  0.64487  0.52628  0.83697  1.0000
  H   H4315     1.0  0.65965  0.56914  0.90389  1.0000
  H   H4316     1.0  0.66650  0.59744  0.89834  1.0000
  H   H4317     1.0  0.67062  0.61570  0.85155  1.0000
  H   H4318     1.0  0.66852  0.60565  0.80998  1.0000
  H   H4319     1.0  0.66185  0.57756  0.81480  1.0000
  H   H4320     1.0  0.63377  0.55795  0.83215  1.0000
  H   H4321     1.0  0.59060  0.53508  0.89316  1.0000
  H   H4322     1.0  0.60439  0.52462  0.92765  1.0000
  H   H4323     1.0  0.63254  0.53109  0.91517  1.0000
  C   C5414     1.0  0.65843  0.86111  0.52681  1.0000
  H   H4324     1.0  0.68904  0.75101  0.49018  1.0000
  C   C5415     1.0  0.66426  0.51392  0.91570  1.0000
  H   H4325     1.0  0.75860  0.86395  0.66082  1.0000
  P   P183      1.0  0.76411  0.92030  0.57965  1.0000
  C   C5416     1.0  0.63860  0.85295  0.71233  1.0000
  C   C5417     1.0  0.62410  0.84738  0.70824  1.0000
  H   H4326     1.0  0.69587  0.53482  0.65189  1.0000
  C   C5418     1.0  0.62877  0.58805  0.91732  1.0000
  C   C5419     1.0  0.64848  0.79551  0.52198  1.0000
  C   C5420     1.0  0.63919  0.80587  0.51897  1.0000
  C   C5421     1.0  0.62749  0.84497  0.53935  1.0000
  C   C5422     1.0  0.63252  0.85374  0.55704  1.0000
  C   C5423     1.0  0.64799  0.86173  0.55087  1.0000
  C   C5424     1.0  0.69465  0.56008  0.96815  1.0000
  H   H4327     1.0  0.77270  0.94765  0.65286  1.0000
  H   H4328     1.0  0.64333  0.98104  0.71456  1.0000
  C   C5425     1.0  0.75969  0.87479  0.64565  1.0000
  C   C5426     1.0  0.75949  0.84814  0.79320  1.0000
  P   P184      1.0  0.63196  0.83252  0.49241  1.0000
  H   H4329     1.0  0.61569  0.83813  0.54568  1.0000
  H   H4330     1.0  0.62456  0.85370  0.57633  1.0000
  H   H4331     1.0  0.65198  0.86805  0.56515  1.0000
  H   H4332     1.0  0.61817  0.56704  0.90821  1.0000
  H   H4333     1.0  0.73764  0.89468  0.61377  1.0000
  C   C5427     1.0  0.76795  0.54206  0.76771  1.0000
  C   C5428     1.0  0.68917  0.57162  0.95319  1.0000
  C   C5429     1.0  0.67558  0.49391  0.60078  1.0000
  H   H4334     1.0  0.77984  0.50681  0.83617  1.0000
  C   C5430     1.0  0.66464  0.98064  0.75020  1.0000
  C   C5431     1.0  0.59896  0.75422  0.66182  1.0000
  S   S740      1.0  0.77601  0.76625  0.79469  1.0000
  H   H4335     1.0  0.74405  0.54572  0.72384  1.0000
  H   H4336     1.0  0.66943  0.57969  0.94721  1.0000
  H   H4337     1.0  0.64012  0.60695  0.93130  1.0000
  C   C5432     1.0  0.75872  0.67828  0.67110  1.0000
  Fe  Fe371     1.0  0.78083  0.59665  0.60610  1.0000
  C   C5433     1.0  0.65089  0.97377  0.95877  1.0000
  H   H4338     1.0  0.60133  0.60541  0.79059  1.0000
  C   C5434     1.0  0.67334  0.57055  0.95887  1.0000
  C   C5435     1.0  0.76521  0.83540  0.78964  1.0000
  C   C5436     1.0  0.76807  0.86002  0.80161  1.0000
  C   C5437     1.0  0.76851  0.72725  0.76999  1.0000
  H   H4339     1.0  0.75926  0.77388  0.62786  1.0000
  H   H4340     1.0  0.74905  0.60489  0.80868  1.0000
  H   H4341     1.0  0.71440  0.72882  0.95292  1.0000
  H   H4342     1.0  0.74251  0.52130  0.80674  1.0000
  C   C5438     1.0  0.73024  0.77045  0.97111  1.0000
  C   C5439     1.0  0.64098  0.91901  0.96255  1.0000
  C   C5440     1.0  0.59984  0.81380  0.71465  1.0000
  H   H4343     1.0  0.58492  0.89159  0.63990  1.0000
  C   C5441     1.0  0.64117  0.58479  0.95571  1.0000
  H   H4344     1.0  0.60203  0.85689  0.76223  1.0000
  C   C5442     1.0  0.59394  0.88033  0.97705  1.0000
  H   H4345     1.0  0.67754  0.55939  0.58087  1.0000
  C   C5443     1.0  0.59100  0.70062  0.69124  1.0000
  H   H4346     1.0  0.60678  0.73763  0.73400  1.0000
  C   C5444     1.0  0.65464  0.54845  0.60756  1.0000
  H   H4347     1.0  0.76506  0.50203  0.49309  1.0000
  H   H4348     1.0  0.77394  0.84797  0.86256  1.0000
  C   C5445     1.0  0.73151  0.62249  0.76220  1.0000
  C   C5446     1.0  0.75805  0.76276  0.64229  1.0000
  C   C5447     1.0  0.70134  0.86813  0.49474  1.0000
  H   H4349     1.0  0.77124  0.92533  0.63249  1.0000
  C   C5448     1.0  0.61603  0.50407  0.86359  1.0000
  H   H4350     1.0  0.64011  0.79922  0.72022  1.0000
  H   H4351     1.0  0.73986  0.76736  0.87507  1.0000
  H   H4352     1.0  0.78038  0.59546  0.53791  1.0000
  H   H4353     1.0  0.58384  0.78441  0.68932  1.0000
  C   C5449     1.0  0.62934  0.98119  0.94339  1.0000
  H   H4354     1.0  0.64526  0.78594  0.54083  1.0000
  C   C5450     1.0  0.67568  0.52091  0.92696  1.0000
  C   C5451     1.0  0.59449  0.93839  0.95631  1.0000
  C   C5452     1.0  0.58595  0.94925  0.95088  1.0000
  H   H4355     1.0  0.75090  0.60880  0.70110  1.0000
  C   C5453     1.0  0.65727  0.93272  0.91570  1.0000
  H   H4356     1.0  0.60541  0.55164  0.84549  1.0000
  C   C5454     1.0  0.62999  0.92736  0.95808  1.0000
  C   C5455     1.0  0.64648  0.94116  0.91120  1.0000
  H   H4357     1.0  0.69758  0.69567  0.96575  1.0000
  H   H4358     1.0  0.61592  0.89686  0.96165  1.0000
  C   C5456     1.0  0.73731  0.75487  0.87857  1.0000
  C   C5457     1.0  0.77409  0.88533  0.63345  1.0000
  C   C5458     1.0  0.65456  0.92169  0.94142  1.0000
  C   C5459     1.0  0.68233  0.98111  0.80391  1.0000
  H   H4359     1.0  0.77708  0.92143  0.83234  1.0000
  H   H4360     1.0  0.74249  0.63497  0.71892  1.0000
  C   C5460     1.0  0.77246  0.68431  0.64976  1.0000
  C   C5461     1.0  0.74576  0.73201  0.87269  1.0000
  C   C5462     1.0  0.72235  0.74566  0.89182  1.0000
  C   C5463     1.0  0.60450  0.60838  0.73231  1.0000
  H   H4361     1.0  0.65115  0.86409  0.73761  1.0000
  C   C5464     1.0  0.64524  0.53553  0.62884  1.0000
  C   C5465     1.0  0.77176  0.55752  0.76921  1.0000
  H   H4362     1.0  0.73995  0.52042  0.50547  1.0000
  C   C5466     1.0  0.73257  0.59601  0.52242  1.0000
  H   H4363     1.0  0.71333  0.75111  0.89875  1.0000
  C   C5467     1.0  0.66033  0.81006  0.68579  1.0000
  C   C5468     1.0  0.66870  0.50283  0.68206  1.0000
  C   C5469     1.0  0.78048  0.85081  0.90020  1.0000
  C   C5470     1.0  0.71856  0.53134  0.64077  1.0000
  H   H4364     1.0  0.77507  0.57801  0.48897  1.0000
  C   C5471     1.0  0.75952  0.76202  0.66973  1.0000
  H   H4365     1.0  0.59664  0.61573  0.83240  1.0000
  C   C5472     1.0  0.59058  0.60844  0.79702  1.0000
  H   H4366     1.0  0.63420  0.63966  0.72384  1.0000
  H   H4367     1.0  0.78049  0.90883  0.89371  1.0000
  C   C5473     1.0  0.60695  0.76410  0.67480  1.0000
  H   H4368     1.0  0.62494  0.69302  0.79356  1.0000
  C   C5474     1.0  0.75851  0.62575  0.73966  1.0000
  H   H4369     1.0  0.60470  0.84433  0.50524  1.0000
  C   C5475     1.0  0.58574  0.86977  0.70344  1.0000
  C   C5476     1.0  0.58791  0.61417  0.82085  1.0000
  H   H4370     1.0  0.58623  0.78848  0.51137  1.0000
  H   H4371     1.0  0.75909  0.97287  0.58361  1.0000
  Fe  Fe372     1.0  0.77449  0.97578  0.75945  1.0000
  C   C5477     1.0  0.66803  0.49346  0.62841  1.0000
  H   H4372     1.0  0.67358  0.98641  0.81234  1.0000
  H   H4373     1.0  0.74902  0.56877  0.50155  1.0000
  C   C5478     1.0  0.60314  0.70604  0.66648  1.0000
  C   C5479     1.0  0.74559  0.57954  0.49973  1.0000
  H   H4374     1.0  0.64247  0.92872  0.80520  1.0000
  H   H4375     1.0  0.64612  0.53478  0.95304  1.0000
  P   P185      1.0  0.58946  0.71149  0.71754  1.0000
  C   C5480     1.0  0.61369  0.70021  0.73241  1.0000
  C   C5481     1.0  0.62248  0.69586  0.75101  1.0000
  H   H4376     1.0  0.65944  0.49152  0.76423  1.0000
  C   C5482     1.0  0.60427  0.97080  0.72744  1.0000
  H   H4377     1.0  0.76329  0.86965  0.80467  1.0000
  H   H4378     1.0  0.63408  0.50692  0.96044  1.0000
  H   H4379     1.0  0.61081  0.77646  0.66475  1.0000
  C   C5483     1.0  0.74767  0.61143  0.78902  1.0000
  H   H4380     1.0  0.67048  0.86712  0.52230  1.0000
  H   H4381     1.0  0.66107  0.74953  0.50218  1.0000
  H   H4382     1.0  0.61360  0.70189  0.62708  1.0000
  C   C5484     1.0  0.62858  0.56227  0.94298  1.0000
  H   H4383     1.0  0.77130  0.61524  0.76684  1.0000
  C   C5485     1.0  0.69289  0.98105  0.65647  1.0000
  C   C5486     1.0  0.75172  0.54894  0.73671  1.0000
  C   C5487     1.0  0.76026  0.61730  0.76521  1.0000
  C   C5488     1.0  0.60082  0.83208  0.50688  1.0000
  H   H4384     1.0  0.61691  0.69908  0.71108  1.0000
  H   H4385     1.0  0.63223  0.69134  0.74404  1.0000
  H   H4386     1.0  0.69721  0.58151  0.93745  1.0000
  C   C5489     1.0  0.58565  0.79536  0.69488  1.0000
  C   C5490     1.0  0.61843  0.69689  0.77888  1.0000
  C   C5491     1.0  0.62665  0.86103  0.75259  1.0000
  C   C5492     1.0  0.75545  0.78356  0.97423  1.0000
  C   C5493     1.0  0.78127  0.61330  0.50130  1.0000
  C   C5494     1.0  0.75571  0.56431  0.73803  1.0000
  C   C5495     1.0  0.66187  0.50941  0.72670  1.0000
  C   C5496     1.0  0.60616  0.80758  0.50301  1.0000
  C   C5497     1.0  0.60425  0.89446  0.97436  1.0000
  H   H4387     1.0  0.66812  0.71718  0.94302  1.0000
  C   C5498     1.0  0.73330  0.61400  0.78750  1.0000
  C   C5499     1.0  0.66717  0.52448  0.63000  1.0000
  H   H4388     1.0  0.62891  0.80418  0.53562  1.0000
  H   H4389     1.0  0.64406  0.51367  0.65662  1.0000
  C   C5500     1.0  0.75719  0.49673  0.86365  1.0000
  C   C5501     1.0  0.77545  0.89925  0.61368  1.0000
  H   H4390     1.0  0.68799  0.74249  0.82297  1.0000
  C   C5502     1.0  0.59336  0.68364  0.65052  1.0000
  C   C5503     1.0  0.74902  0.74804  0.86916  1.0000
  C   C5504     1.0  0.65145  0.52354  0.63993  1.0000
  H   H4391     1.0  0.75246  0.66630  0.67509  1.0000
  C   C5505     1.0  0.70266  0.90625  0.73538  1.0000
  C   C5506     1.0  0.71097  0.91623  0.74777  1.0000
  C   C5507     1.0  0.70731  0.93020  0.74937  1.0000
  C   C5508     1.0  0.69538  0.93426  0.73846  1.0000
  C   C5509     1.0  0.68706  0.92437  0.72565  1.0000
  C   C5510     1.0  0.69076  0.91027  0.72433  1.0000
  P   P186      1.0  0.67245  0.93025  0.70961  1.0000
  C   C5511     1.0  0.68033  0.95008  0.68839  1.0000
  C   C5512     1.0  0.66807  0.91806  0.68659  1.0000
  C   C5513     1.0  0.65569  0.90471  0.69648  1.0000
  C   C5514     1.0  0.65250  0.89521  0.67873  1.0000
  C   C5515     1.0  0.66198  0.89858  0.65140  1.0000
  C   C5516     1.0  0.67453  0.91160  0.64165  1.0000
  C   C5517     1.0  0.67756  0.92133  0.65909  1.0000
  C   C5518     1.0  0.67075  0.96017  0.68452  1.0000
  H   H4392     1.0  0.77489  0.93038  0.78345  1.0000
  Fe  Fe373     1.0  0.74673  0.98562  0.74381  1.0000
  C   C5519     1.0  0.70248  0.97106  0.65998  1.0000
  C   C5520     1.0  0.69624  0.95565  0.67578  1.0000
  C   C5521     1.0  0.65514  0.92898  0.73599  1.0000
  C   C5522     1.0  0.64105  0.92802  0.72859  1.0000
  H   H4393     1.0  0.75450  0.52597  0.75026  1.0000
  H   H4394     1.0  0.66234  0.64600  0.95457  1.0000
  H   H4395     1.0  0.75109  0.57287  0.72623  1.0000
  C   C5523     1.0  0.65553  0.92921  0.76382  1.0000
  H   H4396     1.0  0.70582  0.89563  0.73342  1.0000
  C   C5524     1.0  0.59100  0.86972  0.64644  1.0000
  H   H4397     1.0  0.71402  0.93805  0.75846  1.0000
  H   H4398     1.0  0.69292  0.94527  0.73947  1.0000
  H   H4399     1.0  0.68486  0.90253  0.71406  1.0000
  H   H4400     1.0  0.64855  0.90151  0.71795  1.0000
  H   H4401     1.0  0.64279  0.88511  0.68619  1.0000
  H   H4402     1.0  0.65978  0.89096  0.63795  1.0000
  H   H4403     1.0  0.68219  0.91390  0.62080  1.0000
  H   H4404     1.0  0.68756  0.93111  0.65126  1.0000
  H   H4405     1.0  0.65848  0.95626  0.69391  1.0000
  S   S741      1.0  0.60688  0.98409  0.84993  1.0000
  H   H4406     1.0  0.77368  0.95804  0.97081  1.0000
  H   H4407     1.0  0.71480  0.97527  0.65062  1.0000
  H   H4408     1.0  0.70386  0.94810  0.67825  1.0000
  C   C5525     1.0  0.77851  0.91982  0.78972  1.0000
  H   H4409     1.0  0.70691  0.56100  0.96408  1.0000
  H   H4410     1.0  0.59643  0.75890  0.64197  1.0000
  H   H4411     1.0  0.66614  0.93008  0.77032  1.0000
  C   C5526     1.0  0.63695  0.59445  0.93454  1.0000
  H   H4412     1.0  0.76416  0.65662  0.73613  1.0000
  C   C5527     1.0  0.62457  0.57197  0.92156  1.0000
  C   C5528     1.0  0.74685  0.51458  0.82237  1.0000
  H   H4413     1.0  0.72394  0.54168  0.64602  1.0000
  H   H4414     1.0  0.62570  0.59557  0.90065  1.0000
  C   C5529     1.0  0.67649  0.53733  0.60824  1.0000
  H   H4415     1.0  0.76185  0.77257  0.67658  1.0000
  H   H4416     1.0  0.59509  0.93578  0.75168  1.0000
  H   H4417     1.0  0.61175  0.71676  0.66291  1.0000
  C   C5530     1.0  0.67626  0.72129  0.95431  1.0000
  C   C5531     1.0  0.62760  0.92700  0.74876  1.0000
  C   C5532     1.0  0.70450  0.50440  0.62825  1.0000
  C   C5533     1.0  0.58980  0.85710  0.69498  1.0000
  C   C5534     1.0  0.67704  0.97560  0.66867  1.0000
  H   H4418     1.0  0.73350  0.92594  0.59492  1.0000
  H   H4419     1.0  0.68857  0.53820  0.59993  1.0000
  H   H4420     1.0  0.64991  0.55794  0.59957  1.0000
  H   H4421     1.0  0.76056  0.75524  0.85863  1.0000
  C   C5535     1.0  0.62822  0.62850  0.72220  1.0000
  H   H4422     1.0  0.75704  0.77809  0.90840  1.0000
  H   H4423     1.0  0.65508  0.81836  0.67502  1.0000
  H   H4424     1.0  0.77253  0.84005  0.91338  1.0000
  C   C5536     1.0  0.63714  0.56860  0.95997  1.0000
  C   C5537     1.0  0.58467  0.95969  0.96747  1.0000
  C   C5538     1.0  0.73648  0.77085  0.94297  1.0000
  C   C5539     1.0  0.75215  0.77764  0.93033  1.0000
  C   C5540     1.0  0.58500  0.82512  0.51396  1.0000
  H   H4425     1.0  0.60599  0.63041  0.74260  1.0000
  C   C5541     1.0  0.60981  0.75802  0.70075  1.0000
  C   C5542     1.0  0.60080  0.70571  0.74156  1.0000
  C   C5543     1.0  0.63290  0.93855  0.93231  1.0000
  H   H4426     1.0  0.75477  0.72682  0.86464  1.0000
  H   H4427     1.0  0.77967  0.89995  0.55323  1.0000
  H   H4428     1.0  0.61595  0.76568  0.71086  1.0000
  C   C5544     1.0  0.58662  0.88214  0.65512  1.0000
  H   H4429     1.0  0.58710  0.71118  0.77707  1.0000
  H   H4430     1.0  0.72917  0.76595  0.93095  1.0000
  P   P187      1.0  0.77639  0.52781  0.78563  1.0000
  H   H4431     1.0  0.66533  0.52518  0.68630  1.0000
  H   H4432     1.0  0.66001  0.50143  0.92154  1.0000
  C   C5545     1.0  0.70218  0.72781  0.96000  1.0000
  H   H4433     1.0  0.69392  0.65285  0.94240  1.0000
  H   H4434     1.0  0.77793  0.60344  0.69851  1.0000
  C   C5546     1.0  0.76120  0.70321  0.68232  1.0000
  C   C5547     1.0  0.75313  0.68764  0.68744  1.0000
  P   P188      1.0  0.75423  0.71560  0.70316  1.0000
  C   C5548     1.0  0.76567  0.71906  0.72774  1.0000
  C   C5549     1.0  0.75530  0.73402  0.67959  1.0000
  C   C5550     1.0  0.75797  0.74771  0.68843  1.0000
  C   C5551     1.0  0.75502  0.74915  0.63352  1.0000
  C   C5552     1.0  0.75363  0.73483  0.65208  1.0000
  C   C5553     1.0  0.75932  0.72315  0.75230  1.0000
  H   H4435     1.0  0.65343  0.97327  0.76213  1.0000
  C   C5554     1.0  0.77978  0.91476  0.81730  1.0000
  C   C5555     1.0  0.58409  0.88221  0.68358  1.0000
  H   H4436     1.0  0.63323  0.53501  0.63733  1.0000
  C   C5556     1.0  0.73447  0.70652  0.72282  1.0000
  C   C5557     1.0  0.73121  0.69465  0.74786  1.0000
  C   C5558     1.0  0.71596  0.68705  0.76259  1.0000
  C   C5559     1.0  0.70389  0.69122  0.75243  1.0000
  C   C5560     1.0  0.70702  0.70320  0.72786  1.0000
  C   C5561     1.0  0.72225  0.71082  0.71300  1.0000
  H   H4437     1.0  0.72354  0.60943  0.80593  1.0000
  H   H4438     1.0  0.65392  0.70194  0.87669  1.0000
  H   H4439     1.0  0.64749  0.58996  0.96892  1.0000
  C   C5562     1.0  0.64247  0.97560  0.93825  1.0000
  H   H4440     1.0  0.74249  0.68267  0.70385  1.0000
  H   H4441     1.0  0.75910  0.74744  0.70960  1.0000
  H   H4442     1.0  0.75393  0.74973  0.61220  1.0000
  H   H4443     1.0  0.75137  0.72442  0.64487  1.0000
  H   H4444     1.0  0.74741  0.72373  0.75741  1.0000
  H   H4445     1.0  0.76365  0.73077  0.78850  1.0000
  C   C5563     1.0  0.59034  0.80067  0.51000  1.0000
  H   H4446     1.0  0.60747  0.58749  0.72010  1.0000
  C   C5564     1.0  0.62812  0.92729  0.77633  1.0000
  H   H4447     1.0  0.74046  0.69124  0.75595  1.0000
  H   H4448     1.0  0.71342  0.67800  0.78205  1.0000
  H   H4449     1.0  0.69206  0.68542  0.76395  1.0000
  H   H4450     1.0  0.69754  0.70668  0.72070  1.0000
  H   H4451     1.0  0.72438  0.72003  0.69401  1.0000
  C   C5565     1.0  0.59108  0.65429  0.75867  1.0000
  H   H4452     1.0  0.66775  0.93482  0.89921  1.0000
  C   C5566     1.0  0.75131  0.61451  0.65723  1.0000
  H   H4453     1.0  0.59512  0.96088  0.72931  1.0000
  C   C5567     1.0  0.77487  0.70917  0.66055  1.0000
  S   S742      1.0  0.70671  0.51204  0.53287  1.0000
  H   H4454     1.0  0.62183  0.95879  0.71785  1.0000
  H   H4455     1.0  0.58963  0.82698  0.78045  1.0000
  H   H4456     1.0  0.74240  0.60418  0.65947  1.0000
  H   H4457     1.0  0.63548  0.59713  0.70074  1.0000
  C   C5568     1.0  0.76270  0.51559  0.81808  1.0000
  C   C5569     1.0  0.63657  0.61919  0.71030  1.0000
  C   C5570     1.0  0.62894  0.60453  0.70923  1.0000
  C   C5571     1.0  0.61299  0.59910  0.72029  1.0000
  S   S743      1.0  0.61835  0.98378  0.91852  1.0000
  C   C5572     1.0  0.75617  0.61722  0.68085  1.0000
  C   C5573     1.0  0.76237  0.90268  0.60598  1.0000
  C   C5574     1.0  0.61070  0.84799  0.72699  1.0000
  C   C5575     1.0  0.59024  0.82370  0.70935  1.0000
  H   H4458     1.0  0.71501  0.81805  0.75457  1.0000
  Fe  Fe374     1.0  0.70702  0.49518  0.50504  1.0000
  C   C5576     1.0  0.78127  0.71891  0.72154  1.0000
  C   C5577     1.0  0.63787  0.84442  0.51491  1.0000
  P   P189      1.0  0.77461  0.63333  0.70869  1.0000
  H   H4459     1.0  0.73544  0.87023  0.64783  1.0000
  H   H4460     1.0  0.68569  0.50318  0.58890  1.0000
  H   H4461     1.0  0.73492  0.57397  0.54438  1.0000
  H   H4462     1.0  0.64043  0.92799  0.70723  1.0000
  H   H4463     1.0  0.75809  0.90728  0.53254  1.0000
  H   H4464     1.0  0.75798  0.95075  0.56222  1.0000
  H   H4465     1.0  0.78126  0.72111  0.65596  1.0000
  H   H4466     1.0  0.61409  0.80063  0.49829  1.0000
  C   C5578     1.0  0.77478  0.64075  0.65122  1.0000
  C   C5579     1.0  0.70875  0.98359  0.77841  1.0000
  C   C5580     1.0  0.58968  0.50112  0.69805  1.0000
  C   C5581     1.0  0.60464  0.74207  0.71375  1.0000
  C   C5582     1.0  0.60426  0.69761  0.64617  1.0000
  H   H4467     1.0  0.58408  0.57661  0.79766  1.0000
  C   C5583     1.0  0.69609  0.67361  0.95682  1.0000
  H   H4468     1.0  0.77369  0.78904  0.93556  1.0000
  C   C5584     1.0  0.61948  0.96956  0.72099  1.0000
  H   H4469     1.0  0.77662  0.92525  0.92688  1.0000
  C   C5585     1.0  0.74795  0.89218  0.61876  1.0000
  C   C5586     1.0  0.74665  0.87826  0.63833  1.0000
  H   H4470     1.0  0.59085  0.62883  0.70107  1.0000
  C   C5587     1.0  0.75817  0.62488  0.63065  1.0000
  C   C5588     1.0  0.77944  0.83447  0.79475  1.0000
  H   H4471     1.0  0.60232  0.70271  0.81002  1.0000
  C   C5589     1.0  0.78167  0.92415  0.55214  1.0000
  H   H4472     1.0  0.76866  0.58048  0.75556  1.0000
  S   S744      1.0  0.58588  0.52897  0.70800  1.0000
  C   C5590     1.0  0.76879  0.93566  0.62123  1.0000
  C   C5591     1.0  0.60567  0.70239  0.78814  1.0000
  C   C5592     1.0  0.66812  0.75529  0.48088  1.0000
  H   H4473     1.0  0.59530  0.93032  0.94335  1.0000
  H   H4474     1.0  0.77952  0.56111  0.78158  1.0000
  S   S745      1.0  0.77729  0.79735  0.84188  1.0000
  H   H4475     1.0  0.66764  0.50898  0.53585  1.0000
  H   H4476     1.0  0.62079  0.50124  0.58196  1.0000
  C   C5593     1.0  0.74149  0.49589  0.86779  1.0000
  C   C5594     1.0  0.78053  0.69975  0.64453  1.0000
  C   C5595     1.0  0.64449  0.50645  0.55995  1.0000
  C   C5596     1.0  0.76118  0.94992  0.58205  1.0000
  H   H4477     1.0  0.76653  0.97137  0.62893  1.0000
  H   H4478     1.0  0.78118  0.49621  0.79625  1.0000
  C   C5597     1.0  0.63084  0.51271  0.97672  1.0000
  H   H4479     1.0  0.78034  0.91494  0.74914  1.0000
  C   C5598     1.0  0.78135  0.85537  0.87129  1.0000
  C   C5599     1.0  0.78167  0.91115  0.77036  1.0000
  C   C5600     1.0  0.78194  0.51595  0.76250  1.0000
  H   H4480     1.0  0.76123  0.48980  0.87962  1.0000
  C   C5601     1.0  0.59072  0.48936  0.60257  1.0000
  C   C5602     1.0  0.78188  0.67775  0.71807  1.0000
  C   C5603     1.0  0.82438  0.48132  0.37926  1.0000
  C   C5604     1.0  0.96101  0.09250  0.08078  1.0000
  C   C5605     1.0  0.86607  0.15872  0.42552  1.0000
  C   C5606     1.0  0.97994  0.27601  0.24962  1.0000
  H   H4481     1.0  0.92434  0.44952  0.39413  1.0000
  C   C5607     1.0  0.80596  0.34358  0.32113  1.0000
  Fe  Fe375     1.0  0.90162  0.45910  0.27790  1.0000
  S   S746      1.0  0.89558  0.45590  0.23780  1.0000
  S   S747      1.0  0.88422  0.46052  0.31590  1.0000
  Fe  Fe376     1.0  0.93623  0.46333  0.25515  1.0000
  S   S748      1.0  0.93290  0.45995  0.21316  1.0000
  S   S749      1.0  0.96012  0.46637  0.26473  1.0000
  Fe  Fe377     1.0  0.91676  0.47540  0.21657  1.0000
  H   H4482     1.0  0.79119  0.36510  0.38307  1.0000
  Fe  Fe378     1.0  0.91178  0.44048  0.23692  1.0000
  S   S750      1.0  0.90758  0.41777  0.22329  1.0000
  S   S751      1.0  0.92147  0.48015  0.25669  1.0000
  S   S752      1.0  0.91653  0.44232  0.27880  1.0000
  C   C5608     1.0  0.91660  0.47601  0.12354  1.0000
  C   C5609     1.0  0.91393  0.44405  0.46559  1.0000
  Fe  Fe379     1.0  0.81815  0.39724  0.42912  1.0000
  C   C5610     1.0  0.78419  0.18011  0.39099  1.0000
  S   S753      1.0  0.83691  0.39769  0.39157  1.0000
  C   C5611     1.0  0.89105  0.07202  0.02524  1.0000
  H   H4483     1.0  0.85821  0.39617  0.47791  1.0000
  S   S754      1.0  0.79346  0.38808  0.42978  1.0000
  S   S755      1.0  0.81391  0.41681  0.44772  1.0000
  S   S756      1.0  0.94885  0.32573  0.12478  1.0000
  S   S757      1.0  0.96309  0.18564  0.15587  1.0000
  Fe  Fe380     1.0  0.96604  0.18084  0.19999  1.0000
  S   S758      1.0  0.94557  0.17090  0.23899  1.0000
  Fe  Fe381     1.0  0.86201  0.11417  0.28737  1.0000
  S   S759      1.0  0.84677  0.09451  0.32432  1.0000
  S   S760      1.0  0.88671  0.11417  0.26734  1.0000
  Fe  Fe382     1.0  0.83610  0.12993  0.28339  1.0000
  S   S761      1.0  0.81917  0.11159  0.31959  1.0000
  S   S762      1.0  0.83229  0.15188  0.25810  1.0000
  Fe  Fe383     1.0  0.83835  0.11311  0.34198  1.0000
  S   S763      1.0  0.83234  0.11705  0.38694  1.0000
  Fe  Fe384     1.0  0.82886  0.09457  0.29904  1.0000
  S   S764      1.0  0.81348  0.07173  0.29668  1.0000
  S   S765      1.0  0.85468  0.13256  0.30628  1.0000
  S   S766      1.0  0.84466  0.11300  0.26144  1.0000
  H   H4484     1.0  0.79074  0.30248  0.09214  1.0000
  S   S767      1.0  0.95917  0.10640  0.99599  1.0000
  S   S768      1.0  0.94921  0.13937  0.03418  1.0000
  H   H4485     1.0  0.81038  0.31263  0.35832  1.0000
  C   C5612     1.0  0.95605  0.06369  0.99529  1.0000
  H   H4486     1.0  0.83102  0.45987  0.39000  1.0000
  Fe  Fe385     1.0  0.83577  0.32427  0.17546  1.0000
  S   S769      1.0  0.84322  0.32532  0.12919  1.0000
  S   S770      1.0  0.82000  0.30366  0.21097  1.0000
  Fe  Fe386     1.0  0.85016  0.35915  0.16664  1.0000
  S   S771      1.0  0.85793  0.36280  0.11955  1.0000
  S   S772      1.0  0.85089  0.37874  0.18922  1.0000
  Fe  Fe387     1.0  0.83515  0.34708  0.12180  1.0000
  S   S773      1.0  0.82229  0.35392  0.08845  1.0000
  Fe  Fe388     1.0  0.86561  0.34078  0.12992  1.0000
  S   S774      1.0  0.88787  0.34155  0.09902  1.0000
  S   S775      1.0  0.82653  0.34539  0.16796  1.0000
  S   S776      1.0  0.85899  0.33784  0.17716  1.0000
  C   C5613     1.0  0.96572  0.28021  0.16923  1.0000
  C   C5614     1.0  0.80881  0.34079  0.07814  1.0000
  C   C5615     1.0  0.80182  0.34661  0.05706  1.0000
  H   H4487     1.0  0.93833  0.47898  0.39276  1.0000
  C   C5616     1.0  0.79252  0.04259  0.25570  1.0000
  C   C5617     1.0  0.79379  0.31481  0.08227  1.0000
  C   C5618     1.0  0.80479  0.32481  0.09060  1.0000
  H   H4488     1.0  0.80478  0.35895  0.04739  1.0000
  C   C5619     1.0  0.81392  0.99409  0.04199  1.0000
  C   C5620     1.0  0.79429  0.44601  0.04582  1.0000
  H   H4489     1.0  0.81010  0.32015  0.10675  1.0000
  H   H4490     1.0  0.91735  0.16701  0.38472  1.0000
  C   C5621     1.0  0.79342  0.00716  0.04496  1.0000
  H   H4491     1.0  0.85040  0.46311  0.45069  1.0000
  C   C5622     1.0  0.94178  0.21095  0.23166  1.0000
  C   C5623     1.0  0.89859  0.47465  0.47735  1.0000
  C   C5624     1.0  0.80697  0.06440  0.26942  1.0000
  C   C5625     1.0  0.81035  0.07336  0.24143  1.0000
  C   C5626     1.0  0.80494  0.06694  0.22079  1.0000
  C   C5627     1.0  0.96561  0.05008  0.14494  1.0000
  C   C5628     1.0  0.79798  0.04899  0.27631  1.0000
  H   H4492     1.0  0.81716  0.08523  0.23568  1.0000
  H   H4493     1.0  0.80773  0.07400  0.19926  1.0000
  C   C5629     1.0  0.80421  0.34297  0.40821  1.0000
  C   C5630     1.0  0.96362  0.15957  0.09320  1.0000
  C   C5631     1.0  0.95481  0.15388  0.07571  1.0000
  C   C5632     1.0  0.96104  0.14695  0.05492  1.0000
  H   H4494     1.0  0.95864  0.16492  0.10890  1.0000
  H   H4495     1.0  0.94310  0.15492  0.07826  1.0000
  C   C5633     1.0  0.90285  0.13048  0.25656  1.0000
  C   C5634     1.0  0.91769  0.12834  0.24827  1.0000
  C   C5635     1.0  0.93086  0.14080  0.24153  1.0000
  C   C5636     1.0  0.92931  0.15562  0.24267  1.0000
  C   C5637     1.0  0.91444  0.15782  0.25040  1.0000
  C   C5638     1.0  0.90127  0.14535  0.25699  1.0000
  H   H4496     1.0  0.91904  0.11689  0.24776  1.0000
  H   H4497     1.0  0.94223  0.13887  0.23612  1.0000
  H   H4498     1.0  0.91315  0.16920  0.25155  1.0000
  H   H4499     1.0  0.88988  0.14711  0.26279  1.0000
  H   H4500     1.0  0.78650  0.08914  0.32401  1.0000
  C   C5639     1.0  0.83048  0.12213  0.44021  1.0000
  C   C5640     1.0  0.83869  0.11679  0.41876  1.0000
  C   C5641     1.0  0.85143  0.11134  0.42348  1.0000
  C   C5642     1.0  0.85577  0.11117  0.44909  1.0000
  C   C5643     1.0  0.80979  0.34576  0.37879  1.0000
  H   H4501     1.0  0.85783  0.10701  0.40766  1.0000
  C   C5644     1.0  0.87032  0.28964  0.98176  1.0000
  C   C5645     1.0  0.93202  0.33053  0.11783  1.0000
  C   C5646     1.0  0.93187  0.33805  0.09058  1.0000
  C   C5647     1.0  0.91822  0.34127  0.08522  1.0000
  C   C5648     1.0  0.90469  0.33735  0.10720  1.0000
  C   C5649     1.0  0.90488  0.33001  0.13462  1.0000
  C   C5650     1.0  0.91850  0.32654  0.13987  1.0000
  H   H4502     1.0  0.94231  0.34147  0.07369  1.0000
  H   H4503     1.0  0.91819  0.34700  0.06398  1.0000
  H   H4504     1.0  0.89451  0.32692  0.15167  1.0000
  H   H4505     1.0  0.91854  0.32077  0.16106  1.0000
  S   S777      1.0  0.98104  0.35380  0.05622  1.0000
  Fe  Fe389     1.0  0.78880  0.40616  0.45257  1.0000
  H   H4506     1.0  0.82634  0.35400  0.24062  1.0000
  H   H4507     1.0  0.94812  0.26789  0.23982  1.0000
  C   C5651     1.0  0.79598  0.05150  0.22769  1.0000
  C   C5652     1.0  0.80063  0.99669  0.08777  1.0000
  C   C5653     1.0  0.78497  0.26786  0.34298  1.0000
  C   C5654     1.0  0.92917  0.42658  0.45275  1.0000
  H   H4508     1.0  0.82060  0.12634  0.43703  1.0000
  C   C5655     1.0  0.80637  0.45612  0.39953  1.0000
  H   H4509     1.0  0.78568  0.03073  0.26152  1.0000
  C   C5656     1.0  0.89165  0.40735  0.21356  1.0000
  C   C5657     1.0  0.87701  0.41018  0.21934  1.0000
  C   C5658     1.0  0.86473  0.40125  0.21192  1.0000
  C   C5659     1.0  0.86685  0.38951  0.19836  1.0000
  C   C5660     1.0  0.88149  0.38674  0.19247  1.0000
  C   C5661     1.0  0.89373  0.39552  0.20017  1.0000
  H   H4510     1.0  0.87511  0.41915  0.22972  1.0000
  H   H4511     1.0  0.85346  0.40341  0.21681  1.0000
  H   H4512     1.0  0.88339  0.37777  0.18209  1.0000
  H   H4513     1.0  0.90495  0.39315  0.19563  1.0000
  H   H4514     1.0  0.92822  0.10422  0.07740  1.0000
  H   H4515     1.0  0.95854  0.24297  0.17665  1.0000
  H   H4516     1.0  0.78541  0.34124  0.03275  1.0000
  C   C5662     1.0  0.82047  0.35111  0.26296  1.0000
  C   C5663     1.0  0.84946  0.41539  0.37011  1.0000
  C   C5664     1.0  0.86063  0.41527  0.34645  1.0000
  C   C5665     1.0  0.87114  0.42912  0.32935  1.0000
  C   C5666     1.0  0.87068  0.44313  0.33613  1.0000
  C   C5667     1.0  0.85943  0.44329  0.35967  1.0000
  C   C5668     1.0  0.84872  0.42946  0.37646  1.0000
  H   H4517     1.0  0.86108  0.40443  0.34124  1.0000
  H   H4518     1.0  0.87961  0.42899  0.31092  1.0000
  H   H4519     1.0  0.85900  0.45412  0.36492  1.0000
  H   H4520     1.0  0.84002  0.42967  0.39441  1.0000
  C   C5669     1.0  0.79868  0.25704  0.19535  1.0000
  C   C5670     1.0  0.79495  0.25951  0.22229  1.0000
  C   C5671     1.0  0.80150  0.27385  0.22676  1.0000
  C   C5672     1.0  0.81175  0.28589  0.20435  1.0000
  C   C5673     1.0  0.81524  0.28349  0.17734  1.0000
  C   C5674     1.0  0.80878  0.26912  0.17291  1.0000
  H   H4521     1.0  0.86633  0.29813  0.01899  1.0000
  H   H4522     1.0  0.79870  0.27553  0.24771  1.0000
  H   H4523     1.0  0.82306  0.29262  0.15988  1.0000
  H   H4524     1.0  0.81169  0.26734  0.15198  1.0000
  H   H4525     1.0  0.80102  0.10690  0.23705  1.0000
  C   C5675     1.0  0.79706  0.17251  0.25680  1.0000
  C   C5676     1.0  0.81158  0.16929  0.25101  1.0000
  C   C5677     1.0  0.81387  0.15544  0.26595  1.0000
  C   C5678     1.0  0.80154  0.14481  0.28677  1.0000
  H   H4526     1.0  0.78721  0.25030  0.23974  1.0000
  H   H4527     1.0  0.79542  0.18323  0.24523  1.0000
  H   H4528     1.0  0.82107  0.17757  0.23489  1.0000
  H   H4529     1.0  0.80317  0.13414  0.29843  1.0000
  H   H4530     1.0  0.94532  0.27865  0.11036  1.0000
  H   H4531     1.0  0.86504  0.04561  0.99418  1.0000
  P   P190      1.0  0.90628  0.46624  0.42679  1.0000
  C   C5679     1.0  0.79274  0.29236  0.38373  1.0000
  H   H4532     1.0  0.89291  0.47649  0.37924  1.0000
  H   H4533     1.0  0.86785  0.06766  0.02123  1.0000
  S   S778      1.0  0.80601  0.00452  0.99198  1.0000
  C   C5680     1.0  0.80070  0.43328  0.04903  1.0000
  H   H4534     1.0  0.98117  0.14036  0.03630  1.0000
  S   S779      1.0  0.96672  0.22874  0.13260  1.0000
  P   P191      1.0  0.79681  0.33907  0.35865  1.0000
  H   H4535     1.0  0.84609  0.36724  0.37132  1.0000
  C   C5681     1.0  0.87707  0.17063  0.37530  1.0000
  H   H4536     1.0  0.80407  0.44368  0.40805  1.0000
  H   H4537     1.0  0.81847  0.16580  0.45683  1.0000
  H   H4538     1.0  0.90782  0.21177  0.27308  1.0000
  C   C5682     1.0  0.87475  0.46462  0.44005  1.0000
  C   C5683     1.0  0.90535  0.48001  0.37175  1.0000
  C   C5684     1.0  0.94259  0.28068  0.06811  1.0000
  C   C5685     1.0  0.93977  0.28354  0.09480  1.0000
  C   C5686     1.0  0.93001  0.29295  0.10123  1.0000
  C   C5687     1.0  0.92288  0.29933  0.08116  1.0000
  C   C5688     1.0  0.92542  0.29630  0.05444  1.0000
  C   C5689     1.0  0.93552  0.28710  0.04788  1.0000
  P   P192      1.0  0.91628  0.30494  0.02869  1.0000
  C   C5690     1.0  0.85357  0.99271  0.04530  1.0000
  C   C5691     1.0  0.89699  0.30411  0.04776  1.0000
  C   C5692     1.0  0.89151  0.31752  0.04555  1.0000
  C   C5693     1.0  0.87675  0.31678  0.06118  1.0000
  C   C5694     1.0  0.86749  0.30279  0.07961  1.0000
  C   C5695     1.0  0.87295  0.28946  0.08236  1.0000
  C   C5696     1.0  0.88767  0.29012  0.06666  1.0000
  H   H4539     1.0  0.88174  0.32492  0.99387  1.0000
  S   S780      1.0  0.81642  0.38085  0.47073  1.0000
  H   H4540     1.0  0.95632  0.32339  0.18932  1.0000
  C   C5697     1.0  0.78477  0.16188  0.27764  1.0000
  H   H4541     1.0  0.82250  0.98987  0.02971  1.0000
  H   H4542     1.0  0.80860  0.03909  0.01317  1.0000
  C   C5698     1.0  0.90181  0.06613  0.03738  1.0000
  C   C5699     1.0  0.83484  0.12196  0.46588  1.0000
  H   H4543     1.0  0.81298  0.43514  0.04057  1.0000
  H   H4544     1.0  0.96416  0.18256  0.33447  1.0000
  H   H4545     1.0  0.79939  0.16043  0.19283  1.0000
  H   H4546     1.0  0.95043  0.27362  0.06301  1.0000
  H   H4547     1.0  0.91551  0.30679  0.08644  1.0000
  H   H4548     1.0  0.92523  0.36611  0.43584  1.0000
  C   C5700     1.0  0.95075  0.27422  0.21780  1.0000
  H   H4549     1.0  0.87276  0.32726  0.06003  1.0000
  H   H4550     1.0  0.85626  0.30242  0.09234  1.0000
  H   H4551     1.0  0.86589  0.27870  0.09723  1.0000
  H   H4552     1.0  0.89192  0.27980  0.06964  1.0000
  C   C5701     1.0  0.80567  0.28361  0.30263  1.0000
  Fe  Fe390     1.0  0.97717  0.20970  0.15043  1.0000
  H   H4553     1.0  0.93945  0.37079  0.34650  1.0000
  H   H4554     1.0  0.79524  0.04190  0.29782  1.0000
  H   H4555     1.0  0.83613  0.48842  0.37191  1.0000
  H   H4556     1.0  0.94138  0.32650  0.04019  1.0000
  H   H4557     1.0  0.78341  0.30073  0.23083  1.0000
  C   C5702     1.0  0.79201  0.12513  0.37095  1.0000
  C   C5703     1.0  0.79685  0.47904  0.38730  1.0000
  C   C5704     1.0  0.83005  0.04510  0.98138  1.0000
  C   C5705     1.0  0.90825  0.47901  0.44977  1.0000
  C   C5706     1.0  0.85552  0.42112  0.09825  1.0000
  C   C5707     1.0  0.86194  0.40874  0.10600  1.0000
  C   C5708     1.0  0.87119  0.40916  0.12487  1.0000
  C   C5709     1.0  0.87423  0.42204  0.13571  1.0000
  C   C5710     1.0  0.86804  0.43470  0.12776  1.0000
  C   C5711     1.0  0.85826  0.43389  0.10952  1.0000
  P   P193      1.0  0.87146  0.45112  0.14284  1.0000
  C   C5712     1.0  0.86075  0.44535  0.17949  1.0000
  C   C5713     1.0  0.89168  0.45719  0.14165  1.0000
  C   C5714     1.0  0.90108  0.47142  0.12373  1.0000
  H   H4558     1.0  0.89288  0.26676  0.98210  1.0000
  C   C5715     1.0  0.92287  0.46646  0.14117  1.0000
  C   C5716     1.0  0.91357  0.45241  0.15929  1.0000
  C   C5717     1.0  0.89801  0.44793  0.15991  1.0000
  C   C5718     1.0  0.86541  0.45364  0.19822  1.0000
  C   C5719     1.0  0.85717  0.44933  0.22665  1.0000
  C   C5720     1.0  0.84422  0.43671  0.23657  1.0000
  C   C5721     1.0  0.83943  0.42847  0.21798  1.0000
  C   C5722     1.0  0.84765  0.43277  0.18950  1.0000
  C   C5723     1.0  0.86563  0.46716  0.12360  1.0000
  C   C5724     1.0  0.85639  0.47507  0.13800  1.0000
  C   C5725     1.0  0.94764  0.21603  0.25271  1.0000
  C   C5726     1.0  0.94435  0.29160  0.18080  1.0000
  C   C5727     1.0  0.95751  0.23086  0.24639  1.0000
  C   C5728     1.0  0.87034  0.47184  0.09386  1.0000
  H   H4559     1.0  0.84809  0.42062  0.08402  1.0000
  H   H4560     1.0  0.85953  0.39867  0.09782  1.0000
  H   H4561     1.0  0.87582  0.39935  0.13156  1.0000
  H   H4562     1.0  0.88119  0.42180  0.15068  1.0000
  H   H4563     1.0  0.85257  0.44297  0.10412  1.0000
  H   H4564     1.0  0.91350  0.07320  0.03271  1.0000
  C   C5729     1.0  0.92695  0.32471  0.01115  1.0000
  P   P194      1.0  0.97469  0.25976  0.20934  1.0000
  H   H4565     1.0  0.91830  0.44509  0.17337  1.0000
  H   H4566     1.0  0.89091  0.43740  0.17519  1.0000
  H   H4567     1.0  0.87543  0.46346  0.19085  1.0000
  H   H4568     1.0  0.86090  0.45576  0.24099  1.0000
  H   H4569     1.0  0.82945  0.41863  0.22571  1.0000
  H   H4570     1.0  0.84387  0.42616  0.17549  1.0000
  H   H4571     1.0  0.85288  0.47211  0.16087  1.0000
  C   C5730     1.0  0.96840  0.32466  0.18875  1.0000
  C   C5731     1.0  0.94702  0.09328  0.07394  1.0000
  H   H4572     1.0  0.87769  0.46610  0.08233  1.0000
  C   C5732     1.0  0.92451  0.37086  0.41454  1.0000
  C   C5733     1.0  0.93348  0.36740  0.39171  1.0000
  C   C5734     1.0  0.93251  0.37345  0.36425  1.0000
  C   C5735     1.0  0.92261  0.38299  0.35958  1.0000
  C   C5736     1.0  0.91360  0.38660  0.38238  1.0000
  C   C5737     1.0  0.91460  0.38041  0.40995  1.0000
  P   P195      1.0  0.90112  0.39919  0.37550  1.0000
  C   C5738     1.0  0.89174  0.39253  0.35023  1.0000
  C   C5739     1.0  0.88732  0.39835  0.40768  1.0000
  C   C5740     1.0  0.89239  0.40474  0.42837  1.0000
  C   C5741     1.0  0.88197  0.40392  0.45367  1.0000
  C   C5742     1.0  0.96658  0.10206  0.09705  1.0000
  C   C5743     1.0  0.86115  0.39095  0.43748  1.0000
  C   C5744     1.0  0.87152  0.39178  0.41215  1.0000
  C   C5745     1.0  0.88382  0.37688  0.35606  1.0000
  C   C5746     1.0  0.87741  0.37143  0.33581  1.0000
  C   C5747     1.0  0.87900  0.38152  0.30953  1.0000
  C   C5748     1.0  0.88700  0.39705  0.30350  1.0000
  C   C5749     1.0  0.89337  0.40251  0.32372  1.0000
  C   C5750     1.0  0.91219  0.41912  0.36095  1.0000
  C   C5751     1.0  0.92823  0.42293  0.34951  1.0000
  C   C5752     1.0  0.93640  0.43840  0.33680  1.0000
  C   C5753     1.0  0.92868  0.45014  0.33554  1.0000
  C   C5754     1.0  0.91278  0.44644  0.34719  1.0000
  C   C5755     1.0  0.90455  0.43102  0.35982  1.0000
  H   H4573     1.0  0.86908  0.48751  0.05592  1.0000
  C   C5756     1.0  0.82152  0.46525  0.38954  1.0000
  H   H4574     1.0  0.80149  0.45756  0.03470  1.0000
  H   H4575     1.0  0.92204  0.38763  0.33810  1.0000
  H   H4576     1.0  0.90770  0.38276  0.42801  1.0000
  H   H4577     1.0  0.90444  0.41030  0.42495  1.0000
  C   C5757     1.0  0.78927  0.31851  0.37514  1.0000
  H   H4578     1.0  0.93715  0.29899  0.17409  1.0000
  C   C5758     1.0  0.78665  0.32061  0.06147  1.0000
  H   H4579     1.0  0.86704  0.38755  0.39607  1.0000
  H   H4580     1.0  0.88272  0.36889  0.37617  1.0000
  H   H4581     1.0  0.87134  0.35935  0.34032  1.0000
  H   H4582     1.0  0.87420  0.37736  0.29362  1.0000
  H   H4583     1.0  0.88840  0.40486  0.28297  1.0000
  H   H4584     1.0  0.89959  0.41450  0.31847  1.0000
  H   H4585     1.0  0.93447  0.41408  0.34961  1.0000
  H   H4586     1.0  0.94868  0.44131  0.32694  1.0000
  H   H4587     1.0  0.93497  0.46203  0.32469  1.0000
  H   H4588     1.0  0.90672  0.45547  0.34550  1.0000
  H   H4589     1.0  0.89214  0.42837  0.36780  1.0000
  C   C5759     1.0  0.78408  0.11131  0.36702  1.0000
  C   C5760     1.0  0.80842  0.40104  0.09672  1.0000
  H   H4590     1.0  0.82486  0.12801  0.22005  1.0000
  C   C5761     1.0  0.82245  0.39964  0.14192  1.0000
  C   C5762     1.0  0.81809  0.41302  0.13092  1.0000
  C   C5763     1.0  0.81119  0.41378  0.10832  1.0000
  C   C5764     1.0  0.81393  0.40346  0.03502  1.0000
  H   H4591     1.0  0.87769  0.47576  0.44457  1.0000
  C   C5765     1.0  0.79860  0.30829  0.37120  1.0000
  C   C5766     1.0  0.83563  0.39569  0.01029  1.0000
  C   C5767     1.0  0.82549  0.39543  0.03551  1.0000
  H   H4592     1.0  0.89258  0.28039  0.01954  1.0000
  H   H4593     1.0  0.82819  0.39914  0.15891  1.0000
  Fe  Fe391     1.0  0.95622  0.13036  0.99506  1.0000
  H   H4594     1.0  0.78906  0.17901  0.40895  1.0000
  H   H4595     1.0  0.94117  0.36002  0.39529  1.0000
  C   C5768     1.0  0.93042  0.43299  0.42418  1.0000
  C   C5769     1.0  0.81186  0.99145  0.07146  1.0000
  H   H4596     1.0  0.82660  0.38864  0.05511  1.0000
  P   P196      1.0  0.90023  0.16145  0.34190  1.0000
  C   C5770     1.0  0.89593  0.14169  0.33905  1.0000
  C   C5771     1.0  0.89653  0.17406  0.31238  1.0000
  C   C5772     1.0  0.88654  0.16809  0.29734  1.0000
  C   C5773     1.0  0.88444  0.17770  0.27343  1.0000
  C   C5774     1.0  0.89210  0.19344  0.26470  1.0000
  C   C5775     1.0  0.90182  0.19958  0.27996  1.0000
  C   C5776     1.0  0.90398  0.18996  0.30380  1.0000
  C   C5777     1.0  0.90737  0.13571  0.32516  1.0000
  C   C5778     1.0  0.90389  0.12035  0.32352  1.0000
  C   C5779     1.0  0.88896  0.11088  0.33543  1.0000
  C   C5780     1.0  0.87750  0.11674  0.34915  1.0000
  C   C5781     1.0  0.88092  0.13205  0.35097  1.0000
  C   C5782     1.0  0.92043  0.16820  0.34011  1.0000
  C   C5783     1.0  0.92545  0.16977  0.36427  1.0000
  H   H4597     1.0  0.80346  0.41731  0.00754  1.0000
  C   C5784     1.0  0.95197  0.17870  0.33603  1.0000
  C   C5785     1.0  0.94704  0.17731  0.31186  1.0000
  C   C5786     1.0  0.93136  0.17218  0.31386  1.0000
  H   H4598     1.0  0.89491  0.14319  0.40000  1.0000
  H   H4599     1.0  0.88070  0.15592  0.30361  1.0000
  H   H4600     1.0  0.87700  0.17287  0.26147  1.0000
  H   H4601     1.0  0.89057  0.20083  0.24600  1.0000
  H   H4602     1.0  0.91893  0.14280  0.31512  1.0000
  H   H4603     1.0  0.91264  0.11592  0.31212  1.0000
  H   H4604     1.0  0.88617  0.09915  0.33325  1.0000
  H   H4605     1.0  0.86588  0.10947  0.35803  1.0000
  H   H4606     1.0  0.87174  0.13631  0.36149  1.0000
  C   C5787     1.0  0.86658  0.43627  0.42707  1.0000
  C   C5788     1.0  0.97823  0.24753  0.11492  1.0000
  H   H4607     1.0  0.82028  0.42290  0.13963  1.0000
  H   H4608     1.0  0.95535  0.18001  0.29151  1.0000
  H   H4609     1.0  0.92778  0.17110  0.29487  1.0000
  C   C5789     1.0  0.97878  0.15824  0.09041  1.0000
  H   H4610     1.0  0.86338  0.42541  0.42161  1.0000
  C   C5790     1.0  0.94118  0.17499  0.36220  1.0000
  C   C5791     1.0  0.91475  0.47665  0.38995  1.0000
  C   C5792     1.0  0.78279  0.31153  0.23624  1.0000
  C   C5793     1.0  0.91531  0.45075  0.43690  1.0000
  H   H4611     1.0  0.97410  0.28406  0.24022  1.0000
  C   C5794     1.0  0.96631  0.07351  0.03928  1.0000
  H   H4612     1.0  0.93445  0.19933  0.23632  1.0000
  H   H4613     1.0  0.80765  0.17317  0.32127  1.0000
  H   H4614     1.0  0.97448  0.27845  0.15306  1.0000
  H   H4615     1.0  0.89452  0.08359  0.01106  1.0000
  C   C5795     1.0  0.98193  0.26332  0.23893  1.0000
  C   C5796     1.0  0.79166  0.00487  0.07430  1.0000
  H   H4616     1.0  0.81266  0.32681  0.26632  1.0000
  H   H4617     1.0  0.82322  0.37662  0.13884  1.0000
  H   H4618     1.0  0.86560  0.10684  0.45232  1.0000
  H   H4619     1.0  0.78244  0.45568  0.40718  1.0000
  C   C5797     1.0  0.92340  0.44490  0.41630  1.0000
  C   C5798     1.0  0.97114  0.25981  0.11107  1.0000
  H   H4620     1.0  0.89869  0.32868  0.03255  1.0000
  H   H4621     1.0  0.79615  0.35038  0.20651  1.0000
  H   H4622     1.0  0.80808  0.42433  0.10006  1.0000
  H   H4623     1.0  0.89072  0.43759  0.41624  1.0000
  C   C5799     1.0  0.97618  0.14567  0.05206  1.0000
  C   C5800     1.0  0.84374  0.04056  0.02677  1.0000
  C   C5801     1.0  0.82774  0.03859  0.03181  1.0000
  P   P197      1.0  0.85228  0.03583  0.05593  1.0000
  C   C5802     1.0  0.84107  0.03951  0.08690  1.0000
  C   C5803     1.0  0.85243  0.01559  0.06246  1.0000
  C   C5804     1.0  0.85189  0.00700  0.08965  1.0000
  C   C5805     1.0  0.95648  0.28983  0.16081  1.0000
  C   C5806     1.0  0.85199  0.99135  0.09464  1.0000
  H   H4624     1.0  0.84897  0.38601  0.44060  1.0000
  C   C5807     1.0  0.85339  0.00833  0.04027  1.0000
  C   C5808     1.0  0.84520  0.05368  0.09372  1.0000
  C   C5809     1.0  0.83642  0.05630  0.11782  1.0000
  C   C5810     1.0  0.82346  0.04486  0.13519  1.0000
  C   C5811     1.0  0.81923  0.03082  0.12838  1.0000
  C   C5812     1.0  0.82794  0.02819  0.10431  1.0000
  C   C5813     1.0  0.87177  0.04760  0.04801  1.0000
  C   C5814     1.0  0.87605  0.06285  0.03067  1.0000
  C   C5815     1.0  0.79131  0.41829  0.06291  1.0000
  C   C5816     1.0  0.91601  0.29459  0.00162  1.0000
  C   C5817     1.0  0.89762  0.05103  0.05482  1.0000
  C   C5818     1.0  0.88266  0.04179  0.06016  1.0000
  Fe  Fe392     1.0  0.79115  0.37274  0.47247  1.0000
  S   S781      1.0  0.97183  0.31652  0.05615  1.0000
  C   C5819     1.0  0.88205  0.44318  0.42417  1.0000
  C   C5820     1.0  0.79087  0.13324  0.46374  1.0000
  H   H4625     1.0  0.82035  0.03476  0.05311  1.0000
  H   H4626     1.0  0.85132  0.01234  0.10706  1.0000
  H   H4627     1.0  0.82412  0.15474  0.19820  1.0000
  H   H4628     1.0  0.84321  0.43800  0.43933  1.0000
  H   H4629     1.0  0.94406  0.05960  0.06598  1.0000
  H   H4630     1.0  0.85387  0.01460  0.01907  1.0000
  H   H4631     1.0  0.85513  0.06271  0.08055  1.0000
  H   H4632     1.0  0.83963  0.06721  0.12311  1.0000
  H   H4633     1.0  0.81665  0.04684  0.15392  1.0000
  H   H4634     1.0  0.80917  0.02193  0.14178  1.0000
  H   H4635     1.0  0.82444  0.01731  0.09924  1.0000
  C   C5821     1.0  0.85520  0.44342  0.43679  1.0000
  H   H4636     1.0  0.83588  0.36270  0.42289  1.0000
  C   C5822     1.0  0.94141  0.28371  0.20926  1.0000
  H   H4637     1.0  0.95575  0.35339  0.01565  1.0000
  H   H4638     1.0  0.87967  0.03014  0.07374  1.0000
  C   C5823     1.0  0.84027  0.15776  0.34655  1.0000
  C   C5824     1.0  0.84296  0.16689  0.31901  1.0000
  C   C5825     1.0  0.83121  0.17261  0.31031  1.0000
  C   C5826     1.0  0.81666  0.16912  0.32905  1.0000
  C   C5827     1.0  0.81385  0.16008  0.35692  1.0000
  C   C5828     1.0  0.82577  0.15431  0.36540  1.0000
  H   H4639     1.0  0.88595  0.40893  0.46951  1.0000
  H   H4640     1.0  0.93469  0.41742  0.45889  1.0000
  C   C5829     1.0  0.97108  0.06345  0.09513  1.0000
  C   C5830     1.0  0.97281  0.31621  0.21110  1.0000
  C   C5831     1.0  0.95828  0.11210  0.10643  1.0000
  H   H4641     1.0  0.81769  0.28680  0.29089  1.0000
  H   H4642     1.0  0.94271  0.08678  0.06032  1.0000
  H   H4643     1.0  0.85757  0.15736  0.44504  1.0000
  H   H4644     1.0  0.94137  0.21677  0.18783  1.0000
  C   C5832     1.0  0.81971  0.38695  0.13058  1.0000
  C   C5833     1.0  0.81284  0.33576  0.27758  1.0000
  H   H4645     1.0  0.96302  0.11998  0.11773  1.0000
  C   C5834     1.0  0.95163  0.06345  0.04480  1.0000
  C   C5835     1.0  0.78704  0.14803  0.29259  1.0000
  H   H4646     1.0  0.88813  0.48596  0.21644  1.0000
  C   C5836     1.0  0.94676  0.34759  0.00759  1.0000
  C   C5837     1.0  0.78843  0.13658  0.43665  1.0000
  H   H4647     1.0  0.81564  0.34535  0.99546  1.0000
  H   H4648     1.0  0.93803  0.28490  0.02725  1.0000
  H   H4649     1.0  0.84918  0.15279  0.35307  1.0000
  H   H4650     1.0  0.85396  0.16909  0.30405  1.0000
  H   H4651     1.0  0.83317  0.17919  0.28859  1.0000
  C   C5838     1.0  0.82098  0.04101  0.00917  1.0000
  H   H4652     1.0  0.82379  0.14665  0.38624  1.0000
  H   H4653     1.0  0.79153  0.28736  0.47353  1.0000
  H   H4654     1.0  0.79936  0.32007  0.31700  1.0000
  C   C5839     1.0  0.84753  0.11641  0.47062  1.0000
  H   H4655     1.0  0.80863  0.26673  0.33697  1.0000
  C   C5840     1.0  0.90299  0.27553  0.98122  1.0000
  H   H4656     1.0  0.83797  0.43330  0.25869  1.0000
  H   H4657     1.0  0.81454  0.17172  0.40865  1.0000
  H   H4658     1.0  0.80400  0.12658  0.37120  1.0000
  C   C5841     1.0  0.96178  0.24062  0.21874  1.0000
  C   C5842     1.0  0.79683  0.15054  0.41654  1.0000
  C   C5843     1.0  0.88764  0.16141  0.37485  1.0000
  C   C5844     1.0  0.88727  0.15084  0.40002  1.0000
  H   H4659     1.0  0.79622  0.32522  0.19492  1.0000
  H   H4660     1.0  0.78504  0.23032  0.13600  1.0000
  H   H4661     1.0  0.82997  0.35620  0.34325  1.0000
  H   H4662     1.0  0.96406  0.30847  0.22925  1.0000
  H   H4663     1.0  0.96863  0.02687  0.15407  1.0000
  C   C5845     1.0  0.94427  0.11259  0.09990  1.0000
  C   C5846     1.0  0.86635  0.39684  0.45836  1.0000
  H   H4664     1.0  0.94501  0.17605  0.38094  1.0000
  C   C5847     1.0  0.83453  0.36009  0.38166  1.0000
  C   C5848     1.0  0.80158  0.14384  0.47107  1.0000
  H   H4665     1.0  0.81318  0.36829  0.31651  1.0000
  C   C5849     1.0  0.87196  0.30098  0.99660  1.0000
  H   H4666     1.0  0.87627  0.14131  0.44460  1.0000
  H   H4667     1.0  0.89650  0.47928  0.11047  1.0000
  C   C5850     1.0  0.79968  0.14868  0.20220  1.0000
  C   C5851     1.0  0.94385  0.35521  0.98271  1.0000
  S   S782      1.0  0.78450  0.99884  0.19926  1.0000
  C   C5852     1.0  0.97264  0.48125  0.27376  1.0000
  H   H4668     1.0  0.79940  0.29874  0.27063  1.0000
  C   C5853     1.0  0.93853  0.33232  0.02154  1.0000
  P   P198      1.0  0.79967  0.40189  0.06719  1.0000
  C   C5854     1.0  0.86608  0.14820  0.20574  1.0000
  C   C5855     1.0  0.86192  0.15672  0.18318  1.0000
  C   C5856     1.0  0.86707  0.15514  0.15588  1.0000
  C   C5857     1.0  0.87633  0.14498  0.15115  1.0000
  C   C5858     1.0  0.88042  0.13629  0.17384  1.0000
  C   C5859     1.0  0.87527  0.13803  0.20113  1.0000
  P   P199      1.0  0.89217  0.12294  0.16881  1.0000
  C   C5860     1.0  0.88204  0.10495  0.19520  1.0000
  C   C5861     1.0  0.89491  0.12028  0.13349  1.0000
  C   C5862     1.0  0.88672  0.10690  0.12826  1.0000
  C   C5863     1.0  0.88956  0.10483  0.10090  1.0000
  C   C5864     1.0  0.90062  0.11605  0.07866  1.0000
  C   C5865     1.0  0.90883  0.12936  0.08371  1.0000
  C   C5866     1.0  0.90597  0.13151  0.11094  1.0000
  C   C5867     1.0  0.88953  0.09714  0.21321  1.0000
  C   C5868     1.0  0.88120  0.08384  0.23479  1.0000
  C   C5869     1.0  0.86537  0.07828  0.23864  1.0000
  C   C5870     1.0  0.85783  0.08596  0.22080  1.0000
  C   C5871     1.0  0.86610  0.09927  0.19925  1.0000
  C   C5872     1.0  0.91128  0.13069  0.17199  1.0000
  C   C5873     1.0  0.91526  0.14524  0.17744  1.0000
  C   C5874     1.0  0.93051  0.15191  0.17652  1.0000
  C   C5875     1.0  0.94189  0.14408  0.17051  1.0000
  C   C5876     1.0  0.93801  0.12954  0.16535  1.0000
  C   C5877     1.0  0.92279  0.12290  0.16585  1.0000
  H   H4669     1.0  0.86210  0.14939  0.22692  1.0000
  H   H4670     1.0  0.85472  0.16452  0.18698  1.0000
  H   H4671     1.0  0.86389  0.16180  0.13838  1.0000
  H   H4672     1.0  0.88019  0.14391  0.12990  1.0000
  H   H4673     1.0  0.87837  0.13147  0.21889  1.0000
  H   H4674     1.0  0.87827  0.09795  0.14517  1.0000
  H   H4675     1.0  0.88327  0.09446  0.09697  1.0000
  H   H4676     1.0  0.90297  0.11441  0.05750  1.0000
  H   H4677     1.0  0.91757  0.13796  0.06650  1.0000
  H   H4678     1.0  0.91255  0.14189  0.11442  1.0000
  H   H4679     1.0  0.90157  0.10166  0.21173  1.0000
  H   H4680     1.0  0.88692  0.07824  0.24934  1.0000
  H   H4681     1.0  0.85884  0.06825  0.25589  1.0000
  H   H4682     1.0  0.84548  0.08179  0.22427  1.0000
  H   H4683     1.0  0.85998  0.10535  0.18616  1.0000
  H   H4684     1.0  0.90676  0.15162  0.18213  1.0000
  H   H4685     1.0  0.93343  0.16308  0.18098  1.0000
  H   H4686     1.0  0.95370  0.14929  0.16994  1.0000
  H   H4687     1.0  0.94685  0.12351  0.16076  1.0000
  H   H4688     1.0  0.92001  0.11179  0.16109  1.0000
  H   H4689     1.0  0.93490  0.05157  0.02671  1.0000
  H   H4690     1.0  0.90602  0.04644  0.06396  1.0000
  H   H4691     1.0  0.79991  0.28450  0.38026  1.0000
  C   C5878     1.0  0.90290  0.28328  0.00255  1.0000
  H   H4692     1.0  0.80912  0.34712  0.44660  1.0000
  S   S783      1.0  0.79805  0.99252  0.12489  1.0000
  C   C5879     1.0  0.82049  0.36277  0.27708  1.0000
  C   C5880     1.0  0.81311  0.35907  0.30593  1.0000
  C   C5881     1.0  0.97518  0.46930  0.16631  1.0000
  S   S784      1.0  0.79120  0.23908  0.18874  1.0000
  P   P200      1.0  0.97258  0.08039  0.06741  1.0000
  H   H4693     1.0  0.93179  0.28487  0.22459  1.0000
  H   H4694     1.0  0.82639  0.37468  0.26556  1.0000
  C   C5882     1.0  0.81259  0.41149  0.00876  1.0000
  C   C5883     1.0  0.81364  0.14548  0.20503  1.0000
  C   C5884     1.0  0.79018  0.32547  0.21576  1.0000
  C   C5885     1.0  0.78526  0.16992  0.37358  1.0000
  H   H4695     1.0  0.95865  0.29588  0.13869  1.0000
  C   C5886     1.0  0.96327  0.27272  0.19797  1.0000
  H   H4696     1.0  0.91165  0.19486  0.31526  1.0000
  H   H4697     1.0  0.79237  0.33666  0.41882  1.0000
  C   C5887     1.0  0.81367  0.34888  0.42409  1.0000
  H   H4698     1.0  0.97611  0.34134  0.14811  1.0000
  H   H4699     1.0  0.97447  0.28443  0.09412  1.0000
  C   C5888     1.0  0.79408  0.46298  0.39874  1.0000
  H   H4700     1.0  0.87680  0.17859  0.35614  1.0000
  C   C5889     1.0  0.82877  0.35756  0.41078  1.0000
  H   H4701     1.0  0.96873  0.45795  0.21090  1.0000
  C   C5890     1.0  0.92916  0.29799  0.97901  1.0000
  H   H4702     1.0  0.95881  0.25756  0.11917  1.0000
  Fe  Fe393     1.0  0.96984  0.33069  0.08799  1.0000
  H   H4703     1.0  0.96176  0.23452  0.26312  1.0000
  C   C5891     1.0  0.80546  0.33199  0.30647  1.0000
  H   H4704     1.0  0.92815  0.29554  0.12164  1.0000
  H   H4705     1.0  0.94469  0.20833  0.27378  1.0000
  C   C5892     1.0  0.82269  0.41169  0.98358  1.0000
  C   C5893     1.0  0.79086  0.33658  0.04866  1.0000
  C   C5894     1.0  0.91194  0.48762  0.34313  1.0000
  C   C5895     1.0  0.97094  0.07303  0.98994  1.0000
  C   C5896     1.0  0.97995  0.27497  0.09688  1.0000
  C   C5897     1.0  0.82517  0.35406  0.36571  1.0000
  C   C5898     1.0  0.81209  0.48824  0.37854  1.0000
  C   C5899     1.0  0.81258  0.38759  0.10837  1.0000
  C   C5900     1.0  0.81403  0.13040  0.21750  1.0000
  C   C5901     1.0  0.79013  0.33959  0.22235  1.0000
  H   H4706     1.0  0.93684  0.42876  0.40806  1.0000
  C   C5902     1.0  0.88623  0.45728  0.43112  1.0000
  C   C5903     1.0  0.86630  0.16924  0.40057  1.0000
  H   H4707     1.0  0.96454  0.46334  0.16283  1.0000
  H   H4708     1.0  0.85796  0.17612  0.40074  1.0000
  H   H4709     1.0  0.93814  0.12081  0.10615  1.0000
  S   S785      1.0  0.97855  0.20547  0.19555  1.0000
  H   H4710     1.0  0.96351  0.07313  0.12998  1.0000
  C   C5904     1.0  0.94566  0.22076  0.20437  1.0000
  H   H4711     1.0  0.78471  0.12227  0.47892  1.0000
  C   C5905     1.0  0.78447  0.13679  0.37480  1.0000
  C   C5906     1.0  0.87663  0.14963  0.42527  1.0000
  C   C5907     1.0  0.80043  0.11853  0.22752  1.0000
  C   C5908     1.0  0.80458  0.00181  0.02864  1.0000
  C   C5909     1.0  0.80765  0.16108  0.42405  1.0000
  H   H4712     1.0  0.93478  0.47021  0.14155  1.0000
  C   C5910     1.0  0.88071  0.31606  0.98248  1.0000
  H   H4713     1.0  0.86337  0.27800  0.99267  1.0000
  C   C5911     1.0  0.86554  0.48395  0.07884  1.0000
  S   S786      1.0  0.78836  0.48412  0.00987  1.0000
  H   H4714     1.0  0.84440  0.38932  0.01096  1.0000
  C   C5912     1.0  0.85927  0.45760  0.44320  1.0000
  C   C5913     1.0  0.80994  0.15776  0.45125  1.0000
  C   C5914     1.0  0.80056  0.27227  0.32846  1.0000
  C   C5915     1.0  0.93867  0.10321  0.08366  1.0000
  C   C5916     1.0  0.96651  0.06325  0.12379  1.0000
  C   C5917     1.0  0.94646  0.05876  0.02277  1.0000
  C   C5918     1.0  0.85278  0.04466  0.99872  1.0000
  C   C5919     1.0  0.93084  0.48139  0.37913  1.0000
  C   C5920     1.0  0.95555  0.23555  0.19798  1.0000
  C   C5921     1.0  0.96935  0.03708  0.13766  1.0000
  C   C5922     1.0  0.97755  0.46622  0.19339  1.0000
  P   P201      1.0  0.79477  0.15442  0.38067  1.0000
  H   H4715     1.0  0.81028  0.37754  0.10026  1.0000
  C   C5923     1.0  0.79521  0.29045  0.29120  1.0000
  H   H4716     1.0  0.78995  0.10232  0.36445  1.0000
  C   C5924     1.0  0.92085  0.43205  0.47344  1.0000
  H   H4717     1.0  0.92366  0.48722  0.11047  1.0000
  H   H4718     1.0  0.96198  0.04995  0.16702  1.0000
  H   H4719     1.0  0.90815  0.05016  0.98892  1.0000
  C   C5925     1.0  0.97959  0.33482  0.16543  1.0000
  S   S787      1.0  0.78926  0.04419  0.20058  1.0000
  C   C5926     1.0  0.97610  0.07785  0.01185  1.0000
  H   H4720     1.0  0.97380  0.31565  0.99024  1.0000
  H   H4721     1.0  0.78302  0.08432  0.21592  1.0000
  H   H4722     1.0  0.78272  0.30666  0.16497  1.0000
  C   C5927     1.0  0.97491  0.05036  0.08801  1.0000
  C   C5928     1.0  0.97402  0.03723  0.10920  1.0000
  C   C5929     1.0  0.78628  0.12175  0.22554  1.0000
  H   H4723     1.0  0.81300  0.37222  0.99045  1.0000
  C   C5930     1.0  0.83426  0.40383  0.98433  1.0000
  C   C5931     1.0  0.92393  0.33249  0.98632  1.0000
  H   H4724     1.0  0.97694  0.02716  0.10353  1.0000
  H   H4725     1.0  0.78612  0.01314  0.03485  1.0000
  C   C5932     1.0  0.78606  0.13683  0.21206  1.0000
  H   H4726     1.0  0.97756  0.10208  0.10183  1.0000
  H   H4727     1.0  0.97862  0.05031  0.06603  1.0000
  H   H4728     1.0  0.78251  0.10890  0.28605  1.0000
  C   C5933     1.0  0.78509  0.38425  0.07206  1.0000
  H   H4729     1.0  0.78327  0.00922  0.08662  1.0000
  H   H4730     1.0  0.78262  0.35071  0.25462  1.0000
  H   H4731     1.0  0.78433  0.38943  0.02820  1.0000
  C   C5934     1.0  0.78251  0.33975  0.24946  1.0000
  C   C5935     1.0  0.85160  0.48714  0.12288  1.0000
  H   H4732     1.0  0.78845  0.38696  0.98129  1.0000
  C   C5936     1.0  0.84326  0.04009  0.59130  1.0000
  C   C5937     1.0  0.91321  0.07159  0.95655  1.0000
  H   H4733     1.0  0.78804  0.48006  0.76472  1.0000
  H   H4734     1.0  0.85120  0.36193  0.80429  1.0000
  C   C5938     1.0  0.78893  0.29288  0.51375  1.0000
  H   H4735     1.0  0.83963  0.47741  0.83085  1.0000
  S   S788      1.0  0.82070  0.40796  0.52523  1.0000
  Fe  Fe394     1.0  0.89258  0.45335  0.57783  1.0000
  S   S789      1.0  0.87590  0.45077  0.61902  1.0000
  S   S790      1.0  0.88512  0.44437  0.54117  1.0000
  Fe  Fe395     1.0  0.92036  0.46894  0.59925  1.0000
  S   S791      1.0  0.90491  0.46667  0.64187  1.0000
  S   S792      1.0  0.96559  0.11559  0.92674  1.0000
  Fe  Fe396     1.0  0.89339  0.44285  0.63991  1.0000
  S   S793      1.0  0.88403  0.42366  0.68079  1.0000
  Fe  Fe397     1.0  0.88860  0.47472  0.61778  1.0000
  S   S794      1.0  0.90983  0.44418  0.59887  1.0000
  C   C5939     1.0  0.84990  0.37031  0.84171  1.0000
  H   H4736     1.0  0.89070  0.44968  0.71665  1.0000
  Fe  Fe398     1.0  0.96426  0.32834  0.79956  1.0000
  S   S795      1.0  0.94721  0.33992  0.78204  1.0000
  S   S796      1.0  0.95912  0.30418  0.82756  1.0000
  H   H4737     1.0  0.91511  0.32676  0.97791  1.0000
  Fe  Fe399     1.0  0.82842  0.13823  0.58212  1.0000
  S   S797      1.0  0.85230  0.14491  0.55290  1.0000
  S   S798      1.0  0.81233  0.15414  0.57818  1.0000
  Fe  Fe400     1.0  0.83121  0.10624  0.60993  1.0000
  S   S799      1.0  0.85543  0.11085  0.58277  1.0000
  S   S800      1.0  0.81780  0.08583  0.64828  1.0000
  Fe  Fe401     1.0  0.85974  0.13450  0.59158  1.0000
  S   S801      1.0  0.88290  0.14678  0.59886  1.0000
  Fe  Fe402     1.0  0.84624  0.12105  0.54602  1.0000
  S   S802      1.0  0.85397  0.11608  0.50235  1.0000
  S   S803      1.0  0.83610  0.12929  0.62083  1.0000
  S   S804      1.0  0.82186  0.11497  0.57308  1.0000
  Fe  Fe403     1.0  0.94130  0.18911  0.68887  1.0000
  S   S805      1.0  0.91825  0.17538  0.68319  1.0000
  S   S806      1.0  0.93872  0.19352  0.73229  1.0000
  Fe  Fe404     1.0  0.96163  0.13874  0.93065  1.0000
  H   H4738     1.0  0.88396  0.08828  0.62330  1.0000
  Fe  Fe405     1.0  0.85960  0.02081  0.92672  1.0000
  S   S807      1.0  0.83612  0.02276  0.92157  1.0000
  S   S808      1.0  0.87775  0.04432  0.91816  1.0000
  Fe  Fe406     1.0  0.83643  0.00543  0.89542  1.0000
  S   S809      1.0  0.83053  0.01051  0.85213  1.0000
  S   S810      1.0  0.86064  0.00487  0.89771  1.0000
  Fe  Fe407     1.0  0.83380  0.32361  0.76733  1.0000
  S   S811      1.0  0.83799  0.30002  0.78034  1.0000
  S   S812      1.0  0.81390  0.33164  0.78890  1.0000
  Fe  Fe408     1.0  0.86059  0.33453  0.71561  1.0000
  S   S813      1.0  0.86713  0.31185  0.72385  1.0000
  S   S814      1.0  0.87344  0.35347  0.67581  1.0000
  Fe  Fe409     1.0  0.84175  0.30057  0.73433  1.0000
  S   S815      1.0  0.83537  0.27908  0.71872  1.0000
  Fe  Fe410     1.0  0.86304  0.31295  0.76899  1.0000
  S   S816      1.0  0.87782  0.30416  0.79676  1.0000
  S   S817      1.0  0.83559  0.32322  0.72200  1.0000
  S   S818      1.0  0.85843  0.33659  0.76014  1.0000
  C   C5940     1.0  0.90241  0.04616  0.62069  1.0000
  H   H4739     1.0  0.86152  0.36989  0.84262  1.0000
  P   P202      1.0  0.81353  0.38128  0.88871  1.0000
  S   S819      1.0  0.79992  0.31404  0.92224  1.0000
  H   H4740     1.0  0.88581  0.01103  0.75176  1.0000
  C   C5941     1.0  0.81033  0.32740  0.82591  1.0000
  C   C5942     1.0  0.79714  0.33007  0.84194  1.0000
  H   H4741     1.0  0.78993  0.18426  0.51507  1.0000
  C   C5943     1.0  0.80399  0.32000  0.88522  1.0000
  C   C5944     1.0  0.81742  0.31782  0.86912  1.0000
  C   C5945     1.0  0.82053  0.32139  0.83953  1.0000
  C   C5946     1.0  0.78578  0.17425  0.62690  1.0000
  C   C5947     1.0  0.82678  0.31127  0.62223  1.0000
  H   H4742     1.0  0.82522  0.31292  0.87963  1.0000
  H   H4743     1.0  0.83076  0.31936  0.82730  1.0000
  C   C5948     1.0  0.90955  0.07870  0.93199  1.0000
  C   C5949     1.0  0.89851  0.07026  0.92108  1.0000
  C   C5950     1.0  0.89107  0.05447  0.93409  1.0000
  H   H4744     1.0  0.91527  0.09070  0.92137  1.0000
  H   H4745     1.0  0.89574  0.07600  0.90230  1.0000
  C   C5951     1.0  0.96243  0.16120  0.86089  1.0000
  C   C5952     1.0  0.96221  0.14833  0.84992  1.0000
  C   C5953     1.0  0.96184  0.14963  0.82155  1.0000
  H   H4746     1.0  0.96228  0.13738  0.86334  1.0000
  H   H4747     1.0  0.78864  0.33602  0.74256  1.0000
  C   C5954     1.0  0.89233  0.15475  0.62280  1.0000
  C   C5955     1.0  0.88467  0.15374  0.65068  1.0000
  C   C5956     1.0  0.89277  0.16004  0.66867  1.0000
  C   C5957     1.0  0.90865  0.16762  0.65921  1.0000
  C   C5958     1.0  0.91626  0.16872  0.63129  1.0000
  C   C5959     1.0  0.90819  0.16231  0.61338  1.0000
  H   H4748     1.0  0.87252  0.14807  0.65846  1.0000
  H   H4749     1.0  0.88665  0.15909  0.69011  1.0000
  H   H4750     1.0  0.92841  0.17444  0.62347  1.0000
  H   H4751     1.0  0.91433  0.16323  0.59195  1.0000
  C   C5960     1.0  0.84355  0.35894  0.58213  1.0000
  C   C5961     1.0  0.81359  0.37640  0.94611  1.0000
  H   H4752     1.0  0.81258  0.42167  0.81596  1.0000
  H   H4753     1.0  0.90669  0.03991  0.60591  1.0000
  S   S820      1.0  0.95214  0.23996  0.71823  1.0000
  C   C5962     1.0  0.79895  0.03369  0.65690  1.0000
  C   C5963     1.0  0.79513  0.04009  0.67964  1.0000
  C   C5964     1.0  0.80082  0.05610  0.67641  1.0000
  C   C5965     1.0  0.81021  0.06596  0.65039  1.0000
  C   C5966     1.0  0.81368  0.05965  0.62744  1.0000
  C   C5967     1.0  0.80810  0.04361  0.63074  1.0000
  C   C5968     1.0  0.80507  0.35624  0.62657  1.0000
  H   H4754     1.0  0.79794  0.06087  0.69421  1.0000
  H   H4755     1.0  0.82082  0.06708  0.60727  1.0000
  H   H4756     1.0  0.81098  0.03883  0.61294  1.0000
  C   C5969     1.0  0.92798  0.32976  0.78614  1.0000
  C   C5970     1.0  0.92204  0.31439  0.80234  1.0000
  C   C5971     1.0  0.90674  0.30662  0.80490  1.0000
  C   C5972     1.0  0.89726  0.31409  0.79127  1.0000
  C   C5973     1.0  0.90313  0.32950  0.77526  1.0000
  C   C5974     1.0  0.91842  0.33733  0.77287  1.0000
  H   H4757     1.0  0.92923  0.30850  0.81292  1.0000
  H   H4758     1.0  0.90221  0.29478  0.81753  1.0000
  H   H4759     1.0  0.89589  0.33544  0.76490  1.0000
  H   H4760     1.0  0.92291  0.34925  0.76042  1.0000
  H   H4761     1.0  0.84202  0.40388  0.96480  1.0000
  C   C5975     1.0  0.96017  0.26612  0.73655  1.0000
  C   C5976     1.0  0.93242  0.34767  0.97206  1.0000
  H   H4762     1.0  0.95315  0.27075  0.72381  1.0000
  C   C5977     1.0  0.79387  0.37669  0.88606  1.0000
  H   H4763     1.0  0.88294  0.11456  0.62714  1.0000
  S   S821      1.0  0.94686  0.47937  0.58704  1.0000
  C   C5978     1.0  0.78357  0.28671  0.49325  1.0000
  C   C5979     1.0  0.84741  0.32937  0.63083  1.0000
  C   C5980     1.0  0.88195  0.40416  0.67966  1.0000
  C   C5981     1.0  0.87284  0.39228  0.70339  1.0000
  C   C5982     1.0  0.87042  0.37665  0.70272  1.0000
  C   C5983     1.0  0.87736  0.37281  0.67845  1.0000
  C   C5984     1.0  0.88704  0.38465  0.65524  1.0000
  C   C5985     1.0  0.88917  0.40030  0.65566  1.0000
  H   H4764     1.0  0.86738  0.39519  0.72215  1.0000
  H   H4765     1.0  0.86300  0.36763  0.72076  1.0000
  H   H4766     1.0  0.89265  0.38175  0.63660  1.0000
  H   H4767     1.0  0.89639  0.40936  0.63743  1.0000
  C   C5986     1.0  0.80264  0.43838  0.83263  1.0000
  C   C5987     1.0  0.83855  0.41950  0.52761  1.0000
  C   C5988     1.0  0.83895  0.42464  0.55219  1.0000
  C   C5989     1.0  0.85292  0.43248  0.55642  1.0000
  C   C5990     1.0  0.86691  0.43522  0.53626  1.0000
  H   H4768     1.0  0.82834  0.42261  0.56814  1.0000
  H   H4769     1.0  0.85284  0.43644  0.57530  1.0000
  C   C5991     1.0  0.81692  0.27068  0.71540  1.0000
  C   C5992     1.0  0.81504  0.25767  0.70443  1.0000
  C   C5993     1.0  0.80055  0.25045  0.70170  1.0000
  C   C5994     1.0  0.79600  0.33145  0.54603  1.0000
  H   H4770     1.0  0.85294  0.04993  0.95464  1.0000
  C   C5995     1.0  0.80419  0.27650  0.72356  1.0000
  H   H4771     1.0  0.82483  0.25306  0.69831  1.0000
  H   H4772     1.0  0.79913  0.24030  0.69364  1.0000
  H   H4773     1.0  0.88090  0.36729  0.54361  1.0000
  H   H4774     1.0  0.80550  0.28647  0.73213  1.0000
  C   C5996     1.0  0.79070  0.17228  0.65175  1.0000
  C   C5997     1.0  0.78476  0.36137  0.89629  1.0000
  C   C5998     1.0  0.79210  0.16808  0.60506  1.0000
  C   C5999     1.0  0.80368  0.16027  0.60746  1.0000
  C   C6000     1.0  0.80842  0.15804  0.63253  1.0000
  C   C6001     1.0  0.80182  0.16387  0.65471  1.0000
  H   H4775     1.0  0.79903  0.40226  0.91532  1.0000
  H   H4776     1.0  0.78800  0.16938  0.58617  1.0000
  H   H4777     1.0  0.81724  0.15196  0.63473  1.0000
  C   C6002     1.0  0.90056  0.48395  0.49586  1.0000
  S   S822      1.0  0.90443  0.47828  0.57469  1.0000
  H   H4778     1.0  0.86859  0.03720  0.69693  1.0000
  H   H4779     1.0  0.84776  0.29216  0.65914  1.0000
  S   S823      1.0  0.92701  0.08167  0.97174  1.0000
  H   H4780     1.0  0.84518  0.37827  0.87924  1.0000
  C   C6003     1.0  0.79389  0.32625  0.87161  1.0000
  H   H4781     1.0  0.96767  0.29931  0.95811  1.0000
  H   H4782     1.0  0.80107  0.29828  0.50996  1.0000
  H   H4783     1.0  0.80550  0.16204  0.67406  1.0000
  C   C6004     1.0  0.85829  0.33146  0.88605  1.0000
  C   C6005     1.0  0.86034  0.33347  0.85697  1.0000
  C   C6006     1.0  0.87315  0.33031  0.84106  1.0000
  C   C6007     1.0  0.88377  0.32484  0.85428  1.0000
  C   C6008     1.0  0.88178  0.32259  0.88353  1.0000
  C   C6009     1.0  0.86897  0.32609  0.89931  1.0000
  P   P203      1.0  0.89469  0.31380  0.90073  1.0000
  C   C6010     1.0  0.89660  0.29671  0.88891  1.0000
  C   C6011     1.0  0.91382  0.32652  0.89233  1.0000
  C   C6012     1.0  0.92266  0.32524  0.91220  1.0000
  C   C6013     1.0  0.93793  0.33396  0.90515  1.0000
  C   C6014     1.0  0.94462  0.34388  0.87808  1.0000
  C   C6015     1.0  0.93604  0.34505  0.85801  1.0000
  C   C6016     1.0  0.92070  0.33644  0.86507  1.0000
  C   C6017     1.0  0.91041  0.29204  0.88683  1.0000
  C   C6018     1.0  0.91198  0.27903  0.87707  1.0000
  C   C6019     1.0  0.89981  0.27056  0.86932  1.0000
  C   C6020     1.0  0.88601  0.27506  0.87149  1.0000
  C   C6021     1.0  0.88438  0.28807  0.88127  1.0000
  C   C6022     1.0  0.88639  0.30846  0.93853  1.0000
  H   H4784     1.0  0.97202  0.23160  0.57048  1.0000
  H   H4785     1.0  0.85951  0.45129  0.79220  1.0000
  C   C6023     1.0  0.82476  0.02510  0.70378  1.0000
  H   H4786     1.0  0.88334  0.47165  0.68905  1.0000
  C   C6024     1.0  0.88787  0.31981  0.95356  1.0000
  H   H4787     1.0  0.84820  0.33371  0.89842  1.0000
  H   H4788     1.0  0.85186  0.33718  0.84683  1.0000
  H   H4789     1.0  0.87465  0.33164  0.81854  1.0000
  H   H4790     1.0  0.89326  0.32186  0.84179  1.0000
  H   H4791     1.0  0.86685  0.32432  0.92194  1.0000
  H   H4792     1.0  0.91799  0.31708  0.93282  1.0000
  H   H4793     1.0  0.94477  0.33268  0.92040  1.0000
  H   H4794     1.0  0.95657  0.35036  0.87241  1.0000
  H   H4795     1.0  0.94140  0.35229  0.83664  1.0000
  H   H4796     1.0  0.91454  0.33727  0.84882  1.0000
  H   H4797     1.0  0.92010  0.29849  0.89232  1.0000
  H   H4798     1.0  0.92276  0.27566  0.87517  1.0000
  H   H4799     1.0  0.90116  0.26065  0.86127  1.0000
  H   H4800     1.0  0.87667  0.26871  0.86494  1.0000
  H   H4801     1.0  0.87367  0.29149  0.88237  1.0000
  H   H4802     1.0  0.87591  0.28446  0.94163  1.0000
  C   C6025     1.0  0.81652  0.34606  0.95186  1.0000
  H   H4803     1.0  0.96547  0.28656  0.75190  1.0000
  C   C6026     1.0  0.81418  0.42503  0.89767  1.0000
  H   H4804     1.0  0.89433  0.33164  0.94278  1.0000
  C   C6027     1.0  0.86999  0.05637  0.84899  1.0000
  C   C6028     1.0  0.85587  0.05669  0.86549  1.0000
  C   C6029     1.0  0.84394  0.05892  0.85288  1.0000
  C   C6030     1.0  0.84624  0.06117  0.82364  1.0000
  C   C6031     1.0  0.86048  0.06102  0.80687  1.0000
  C   C6032     1.0  0.87224  0.05834  0.81989  1.0000
  P   P204      1.0  0.86359  0.06316  0.76927  1.0000
  C   C6033     1.0  0.87043  0.04666  0.76283  1.0000
  C   C6034     1.0  0.84566  0.06289  0.75932  1.0000
  C   C6035     1.0  0.83618  0.04903  0.75813  1.0000
  C   C6036     1.0  0.82233  0.04901  0.75054  1.0000
  C   C6037     1.0  0.81785  0.06280  0.74397  1.0000
  C   C6038     1.0  0.82709  0.07661  0.74546  1.0000
  C   C6039     1.0  0.84091  0.07667  0.75321  1.0000
  C   C6040     1.0  0.88283  0.04837  0.73971  1.0000
  C   C6041     1.0  0.88832  0.03553  0.73568  1.0000
  H   H4805     1.0  0.86416  0.48329  0.71214  1.0000
  C   C6042     1.0  0.86917  0.01918  0.77783  1.0000
  C   C6043     1.0  0.86369  0.03197  0.78192  1.0000
  C   C6044     1.0  0.87748  0.08123  0.74906  1.0000
  C   C6045     1.0  0.88752  0.08958  0.76157  1.0000
  C   C6046     1.0  0.89791  0.10369  0.74578  1.0000
  C   C6047     1.0  0.89834  0.10963  0.71746  1.0000
  C   C6048     1.0  0.88851  0.10137  0.70477  1.0000
  C   C6049     1.0  0.87815  0.08722  0.72041  1.0000
  H   H4806     1.0  0.87906  0.05421  0.85899  1.0000
  H   H4807     1.0  0.85414  0.05490  0.88814  1.0000
  H   H4808     1.0  0.83281  0.05856  0.86592  1.0000
  H   H4809     1.0  0.83674  0.06260  0.81446  1.0000
  H   H4810     1.0  0.88312  0.05757  0.80759  1.0000
  H   H4811     1.0  0.83930  0.03817  0.76322  1.0000
  H   H4812     1.0  0.81498  0.03826  0.74990  1.0000
  H   H4813     1.0  0.80716  0.06276  0.73785  1.0000
  H   H4814     1.0  0.82351  0.08727  0.74053  1.0000
  H   H4815     1.0  0.84786  0.08747  0.75444  1.0000
  H   H4816     1.0  0.88840  0.05957  0.72497  1.0000
  H   H4817     1.0  0.82639  0.48642  0.68442  1.0000
  H   H4818     1.0  0.86386  0.00792  0.79279  1.0000
  H   H4819     1.0  0.97838  0.07699  0.96859  1.0000
  H   H4820     1.0  0.85419  0.03037  0.80015  1.0000
  H   H4821     1.0  0.88738  0.08537  0.78347  1.0000
  H   H4822     1.0  0.90564  0.11010  0.75548  1.0000
  H   H4823     1.0  0.90626  0.12068  0.70533  1.0000
  H   H4824     1.0  0.88888  0.10607  0.68280  1.0000
  H   H4825     1.0  0.87055  0.08104  0.71023  1.0000
  C   C6050     1.0  0.81448  0.37015  0.92262  1.0000
  C   C6051     1.0  0.86650  0.43045  0.51129  1.0000
  C   C6052     1.0  0.84859  0.04141  0.61515  1.0000
  H   H4826     1.0  0.79482  0.39995  0.86273  1.0000
  C   C6053     1.0  0.78781  0.25617  0.71004  1.0000
  P   P205      1.0  0.84478  0.47542  0.77085  1.0000
  C   C6054     1.0  0.82821  0.46080  0.79465  1.0000
  C   C6055     1.0  0.85946  0.46738  0.75365  1.0000
  C   C6056     1.0  0.86680  0.47346  0.72469  1.0000
  C   C6057     1.0  0.87794  0.46704  0.71149  1.0000
  C   C6058     1.0  0.88216  0.45474  0.72714  1.0000
  C   C6059     1.0  0.87549  0.44911  0.75625  1.0000
  C   C6060     1.0  0.86434  0.45555  0.76955  1.0000
  C   C6061     1.0  0.81661  0.46528  0.81165  1.0000
  C   C6062     1.0  0.85462  0.48805  0.78846  1.0000
  C   C6063     1.0  0.83775  0.42713  0.86323  1.0000
  S   S824      1.0  0.78519  0.39037  0.49589  1.0000
  H   H4827     1.0  0.80362  0.14111  0.49196  1.0000
  H   H4828     1.0  0.78475  0.31150  0.72782  1.0000
  C   C6064     1.0  0.85247  0.42275  0.50694  1.0000
  H   H4829     1.0  0.89794  0.03689  0.71790  1.0000
  C   C6065     1.0  0.83153  0.29890  0.63650  1.0000
  C   C6066     1.0  0.84943  0.48653  0.81760  1.0000
  H   H4830     1.0  0.78921  0.21304  0.58883  1.0000
  H   H4831     1.0  0.93025  0.35356  0.95266  1.0000
  C   C6067     1.0  0.81124  0.34002  0.53400  1.0000
  C   C6068     1.0  0.88731  0.04773  0.62449  1.0000
  H   H4832     1.0  0.78721  0.36620  0.64434  1.0000
  H   H4833     1.0  0.87906  0.43980  0.76841  1.0000
  H   H4834     1.0  0.84118  0.40606  0.85386  1.0000
  H   H4835     1.0  0.81303  0.20608  0.56817  1.0000
  H   H4836     1.0  0.86167  0.31919  0.65458  1.0000
  C   C6069     1.0  0.96234  0.17538  0.84319  1.0000
  C   C6070     1.0  0.86747  0.38401  0.54636  1.0000
  H   H4837     1.0  0.78803  0.03267  0.69985  1.0000
  H   H4838     1.0  0.85246  0.41909  0.48782  1.0000
  H   H4839     1.0  0.83457  0.44120  0.78169  1.0000
  C   C6071     1.0  0.79127  0.41259  0.63490  1.0000
  H   H4840     1.0  0.81742  0.47742  0.81054  1.0000
  H   H4841     1.0  0.94009  0.07048  0.86789  1.0000
  H   H4842     1.0  0.80172  0.00305  0.78065  1.0000
  H   H4843     1.0  0.83275  0.34987  0.54134  1.0000
  C   C6072     1.0  0.97132  0.31180  0.95005  1.0000
  C   C6073     1.0  0.81426  0.00606  0.81232  1.0000
  C   C6074     1.0  0.81758  0.99907  0.83754  1.0000
  C   C6075     1.0  0.83122  0.01679  0.72293  1.0000
  H   H4844     1.0  0.80815  0.37100  0.83844  1.0000
  H   H4845     1.0  0.81320  0.19149  0.53154  1.0000
  C   C6076     1.0  0.82639  0.44500  0.79570  1.0000
  C   C6077     1.0  0.78937  0.20680  0.57264  1.0000
  H   H4846     1.0  0.82521  0.28704  0.63938  1.0000
  C   C6078     1.0  0.84422  0.30176  0.64778  1.0000
  H   H4847     1.0  0.84851  0.43418  0.84861  1.0000
  H   H4848     1.0  0.83860  0.09599  0.68649  1.0000
  H   H4849     1.0  0.79531  0.45764  0.84436  1.0000
  H   H4850     1.0  0.82736  0.33939  0.66399  1.0000
  H   H4851     1.0  0.83760  0.02879  0.58973  1.0000
  C   C6079     1.0  0.88149  0.02095  0.75474  1.0000
  H   H4852     1.0  0.78542  0.28914  0.83338  1.0000
  H   H4853     1.0  0.95185  0.06047  0.97806  1.0000
  H   H4854     1.0  0.80422  0.39408  0.58621  1.0000
  C   C6080     1.0  0.97736  0.33477  0.91121  1.0000
  H   H4855     1.0  0.87712  0.43264  0.49522  1.0000
  C   C6081     1.0  0.81593  0.35487  0.92579  1.0000
  C   C6082     1.0  0.97941  0.33716  0.95805  1.0000
  C   C6083     1.0  0.83356  0.41111  0.86642  1.0000
  C   C6084     1.0  0.97120  0.24528  0.75392  1.0000
  H   H4856     1.0  0.90756  0.44801  0.48212  1.0000
  C   C6085     1.0  0.85211  0.31698  0.64505  1.0000
  H   H4857     1.0  0.82132  0.41777  0.96351  1.0000
  S   S825      1.0  0.84981  0.00089  0.96613  1.0000
  H   H4858     1.0  0.84040  0.05235  0.55166  1.0000
  C   C6086     1.0  0.82555  0.37561  0.86131  1.0000
  H   H4859     1.0  0.80662  0.43040  0.90980  1.0000
  C   C6087     1.0  0.79056  0.32569  0.57539  1.0000
  S   S826      1.0  0.94013  0.12832  0.96649  1.0000
  C   C6088     1.0  0.97260  0.31863  0.92148  1.0000
  H   H4860     1.0  0.83933  0.06964  0.68321  1.0000
  C   C6089     1.0  0.80282  0.20301  0.56079  1.0000
  H   H4861     1.0  0.82469  0.04633  0.96394  1.0000
  C   C6090     1.0  0.79597  0.36028  0.64849  1.0000
  C   C6091     1.0  0.79193  0.40614  0.61186  1.0000
  C   C6092     1.0  0.96168  0.16378  0.80389  1.0000
  Fe  Fe411     1.0  0.97962  0.11816  0.95855  1.0000
  C   C6093     1.0  0.96194  0.17668  0.81481  1.0000
  C   C6094     1.0  0.83475  0.32664  0.61910  1.0000
  H   H4862     1.0  0.82454  0.36240  0.80264  1.0000
  C   C6095     1.0  0.80996  0.40904  0.90089  1.0000
  C   C6096     1.0  0.86982  0.36912  0.55247  1.0000
  S   S827      1.0  0.95668  0.21333  0.66696  1.0000
  C   C6097     1.0  0.97830  0.25434  0.76960  1.0000
  Fe  Fe412     1.0  0.81095  0.40006  0.48977  1.0000
  C   C6098     1.0  0.96198  0.25109  0.73742  1.0000
  H   H4863     1.0  0.87673  0.39379  0.53303  1.0000
  C   C6099     1.0  0.83361  0.48135  0.72294  1.0000
  H   H4864     1.0  0.79587  0.32434  0.61555  1.0000
  H   H4865     1.0  0.82890  0.04421  0.66744  1.0000
  S   S828      1.0  0.96754  0.30664  0.89968  1.0000
  H   H4866     1.0  0.81531  0.34464  0.51122  1.0000
  S   S829      1.0  0.79209  0.48285  0.86874  1.0000
  H   H4867     1.0  0.81679  0.30874  0.61408  1.0000
  H   H4868     1.0  0.86240  0.08070  0.59726  1.0000
  H   H4869     1.0  0.88727  0.06858  0.67353  1.0000
  C   C6100     1.0  0.90554  0.05588  0.96990  1.0000
  H   H4870     1.0  0.95063  0.36689  0.97157  1.0000
  C   C6101     1.0  0.81963  0.40190  0.88540  1.0000
  H   H4871     1.0  0.89325  0.48023  0.51732  1.0000
  S   S830      1.0  0.79339  0.01336  0.66057  1.0000
  C   C6102     1.0  0.80436  0.99741  0.79969  1.0000
  H   H4872     1.0  0.97272  0.23375  0.75484  1.0000
  H   H4873     1.0  0.91985  0.42714  0.49566  1.0000
  C   C6103     1.0  0.80400  0.45410  0.83078  1.0000
  C   C6104     1.0  0.79821  0.35679  0.67566  1.0000
  H   H4874     1.0  0.78268  0.26189  0.63084  1.0000
  H   H4875     1.0  0.96177  0.13965  0.81314  1.0000
  C   C6105     1.0  0.97616  0.26924  0.76923  1.0000
  H   H4876     1.0  0.85285  0.07825  0.55569  1.0000
  C   C6106     1.0  0.84479  0.05334  0.56989  1.0000
  S   S831      1.0  0.96173  0.17930  0.69215  1.0000
  H   H4877     1.0  0.81723  0.33414  0.95425  1.0000
  C   C6107     1.0  0.80291  0.19485  0.54007  1.0000
  C   C6108     1.0  0.81982  0.37107  0.83952  1.0000
  H   H4878     1.0  0.83021  0.37600  0.58348  1.0000
  C   C6109     1.0  0.80033  0.32867  0.59280  1.0000
  C   C6110     1.0  0.81564  0.33749  0.58089  1.0000
  C   C6111     1.0  0.81643  0.34852  0.63175  1.0000
  H   H4879     1.0  0.78930  0.33487  0.83151  1.0000
  H   H4880     1.0  0.88909  0.03529  0.96921  1.0000
  C   C6112     1.0  0.91610  0.27903  0.95879  1.0000
  Fe  Fe413     1.0  0.94483  0.10517  0.96424  1.0000
  C   C6113     1.0  0.81864  0.34515  0.65915  1.0000
  C   C6114     1.0  0.82106  0.34300  0.55128  1.0000
  H   H4881     1.0  0.93947  0.30660  0.97784  1.0000
  H   H4882     1.0  0.83474  0.46998  0.72118  1.0000
  H   H4883     1.0  0.91623  0.27300  0.94231  1.0000
  C   C6115     1.0  0.81374  0.43384  0.81487  1.0000
  C   C6116     1.0  0.84700  0.02139  0.72056  1.0000
  H   H4884     1.0  0.85344  0.34105  0.62976  1.0000
  C   C6117     1.0  0.87750  0.29334  0.95281  1.0000
  H   H4885     1.0  0.81238  0.38804  0.94463  1.0000
  C   C6118     1.0  0.80961  0.34933  0.68094  1.0000
  H   H4886     1.0  0.79732  0.39173  0.70157  1.0000
  H   H4887     1.0  0.85984  0.34512  0.57404  1.0000
  C   C6119     1.0  0.84412  0.36585  0.82009  1.0000
  Fe  Fe414     1.0  0.82647  0.00228  0.95973  1.0000
  H   H4888     1.0  0.79294  0.42977  0.84776  1.0000
  Fe  Fe415     1.0  0.95983  0.18480  0.73426  1.0000
  P   P206      1.0  0.82774  0.34275  0.60355  1.0000
  C   C6120     1.0  0.83759  0.48703  0.74514  1.0000
  H   H4889     1.0  0.81160  0.34685  0.70187  1.0000
  H   H4890     1.0  0.98027  0.23831  0.51798  1.0000
  H   H4891     1.0  0.96181  0.18762  0.80145  1.0000
  C   C6121     1.0  0.84167  0.18655  0.57504  1.0000
  C   C6122     1.0  0.85389  0.18158  0.56140  1.0000
  C   C6123     1.0  0.86555  0.17905  0.57452  1.0000
  C   C6124     1.0  0.86509  0.18167  0.60115  1.0000
  C   C6125     1.0  0.85311  0.18719  0.61459  1.0000
  C   C6126     1.0  0.84122  0.18929  0.60157  1.0000
  P   P207      1.0  0.85206  0.18976  0.64966  1.0000
  C   C6127     1.0  0.84245  0.20493  0.65398  1.0000
  C   C6128     1.0  0.84136  0.17167  0.67513  1.0000
  C   C6129     1.0  0.84094  0.15752  0.66803  1.0000
  C   C6130     1.0  0.83221  0.14358  0.68747  1.0000
  C   C6131     1.0  0.82392  0.14363  0.71416  1.0000
  C   C6132     1.0  0.82450  0.15762  0.72158  1.0000
  C   C6133     1.0  0.83324  0.17159  0.70222  1.0000
  C   C6134     1.0  0.85096  0.22028  0.64942  1.0000
  C   C6135     1.0  0.84339  0.23197  0.65226  1.0000
  C   C6136     1.0  0.82731  0.22844  0.65953  1.0000
  C   C6137     1.0  0.81878  0.21322  0.66424  1.0000
  C   C6138     1.0  0.82630  0.20153  0.66143  1.0000
  C   C6139     1.0  0.87124  0.19542  0.65429  1.0000
  C   C6140     1.0  0.88329  0.20531  0.63163  1.0000
  C   C6141     1.0  0.89814  0.20969  0.63514  1.0000
  C   C6142     1.0  0.90102  0.20439  0.66134  1.0000
  C   C6143     1.0  0.88906  0.19474  0.68407  1.0000
  C   C6144     1.0  0.87422  0.19023  0.68061  1.0000
  H   H4892     1.0  0.83222  0.18766  0.56553  1.0000
  H   H4893     1.0  0.85401  0.17915  0.54110  1.0000
  H   H4894     1.0  0.87471  0.17457  0.56450  1.0000
  H   H4895     1.0  0.87392  0.17903  0.61140  1.0000
  H   H4896     1.0  0.83136  0.19262  0.61207  1.0000
  H   H4897     1.0  0.84717  0.15719  0.64740  1.0000
  H   H4898     1.0  0.83168  0.13275  0.68160  1.0000
  H   H4899     1.0  0.81696  0.13284  0.72899  1.0000
  H   H4900     1.0  0.81801  0.15768  0.74222  1.0000
  H   H4901     1.0  0.83351  0.18234  0.70826  1.0000
  H   H4902     1.0  0.86340  0.22333  0.64363  1.0000
  H   H4903     1.0  0.84998  0.24377  0.64879  1.0000
  H   H4904     1.0  0.82146  0.23751  0.66146  1.0000
  H   H4905     1.0  0.80630  0.21040  0.67004  1.0000
  H   H4906     1.0  0.81943  0.18986  0.66489  1.0000
  H   H4907     1.0  0.88125  0.20955  0.61118  1.0000
  H   H4908     1.0  0.90748  0.21699  0.61745  1.0000
  H   H4909     1.0  0.91262  0.20739  0.66392  1.0000
  H   H4910     1.0  0.89149  0.19033  0.70412  1.0000
  H   H4911     1.0  0.86521  0.18255  0.69839  1.0000
  C   C6145     1.0  0.86907  0.26780  0.73798  1.0000
  C   C6146     1.0  0.86153  0.26724  0.76554  1.0000
  C   C6147     1.0  0.86991  0.26833  0.78573  1.0000
  C   C6148     1.0  0.88584  0.27005  0.77838  1.0000
  C   C6149     1.0  0.89347  0.27047  0.75079  1.0000
  C   C6150     1.0  0.88498  0.26954  0.73053  1.0000
  P   P208      1.0  0.91421  0.27460  0.74020  1.0000
  C   C6151     1.0  0.91989  0.26598  0.71161  1.0000
  C   C6152     1.0  0.92205  0.29541  0.72921  1.0000
  C   C6153     1.0  0.91277  0.30541  0.72237  1.0000
  C   C6154     1.0  0.91879  0.32148  0.71511  1.0000
  C   C6155     1.0  0.93403  0.32769  0.71499  1.0000
  C   C6156     1.0  0.94334  0.31784  0.72174  1.0000
  C   C6157     1.0  0.93744  0.30177  0.72853  1.0000
  C   C6158     1.0  0.91173  0.25102  0.71257  1.0000
  C   C6159     1.0  0.91656  0.24390  0.69140  1.0000
  C   C6160     1.0  0.92953  0.25169  0.66906  1.0000
  C   C6161     1.0  0.93756  0.26667  0.66768  1.0000
  C   C6162     1.0  0.93275  0.27383  0.68881  1.0000
  C   C6163     1.0  0.92136  0.26644  0.76965  1.0000
  C   C6164     1.0  0.92432  0.25171  0.77324  1.0000
  C   C6165     1.0  0.93111  0.24618  0.79461  1.0000
  C   C6166     1.0  0.93498  0.25525  0.81259  1.0000
  C   C6167     1.0  0.93175  0.26973  0.80960  1.0000
  C   C6168     1.0  0.92487  0.27524  0.78841  1.0000
  H   H4912     1.0  0.86260  0.26735  0.72220  1.0000
  H   H4913     1.0  0.84928  0.26644  0.77095  1.0000
  H   H4914     1.0  0.86417  0.26859  0.80676  1.0000
  H   H4915     1.0  0.89221  0.27164  0.79395  1.0000
  H   H4916     1.0  0.89069  0.27061  0.70877  1.0000
  H   H4917     1.0  0.90078  0.30095  0.72322  1.0000
  H   H4918     1.0  0.91146  0.32914  0.71056  1.0000
  H   H4919     1.0  0.93849  0.34013  0.71051  1.0000
  H   H4920     1.0  0.95502  0.32267  0.72244  1.0000
  H   H4921     1.0  0.94478  0.29431  0.73395  1.0000
  H   H4922     1.0  0.90190  0.24467  0.73016  1.0000
  H   H4923     1.0  0.91052  0.23217  0.69277  1.0000
  H   H4924     1.0  0.93359  0.24597  0.65320  1.0000
  H   H4925     1.0  0.94780  0.27257  0.65067  1.0000
  H   H4926     1.0  0.93936  0.28528  0.68761  1.0000
  H   H4927     1.0  0.92214  0.24471  0.75890  1.0000
  H   H4928     1.0  0.93404  0.23514  0.79630  1.0000
  H   H4929     1.0  0.94088  0.25125  0.82827  1.0000
  H   H4930     1.0  0.93506  0.27694  0.82307  1.0000
  H   H4931     1.0  0.92281  0.28663  0.78601  1.0000
  C   C6169     1.0  0.86756  0.09918  0.88518  1.0000
  C   C6170     1.0  0.85967  0.09492  0.86580  1.0000
  C   C6171     1.0  0.86749  0.09818  0.83732  1.0000
  C   C6172     1.0  0.88316  0.10579  0.82817  1.0000
  C   C6173     1.0  0.89111  0.11051  0.84736  1.0000
  C   C6174     1.0  0.88321  0.10689  0.87605  1.0000
  P   P209      1.0  0.91166  0.11917  0.83600  1.0000
  C   C6175     1.0  0.92119  0.10386  0.84394  1.0000
  C   C6176     1.0  0.91751  0.12876  0.79853  1.0000
  C   C6177     1.0  0.93157  0.12830  0.78163  1.0000
  C   C6178     1.0  0.93630  0.13623  0.75289  1.0000
  C   C6179     1.0  0.92710  0.14475  0.74085  1.0000
  C   C6180     1.0  0.91314  0.14536  0.75752  1.0000
  C   C6181     1.0  0.90837  0.13746  0.78627  1.0000
  C   C6182     1.0  0.93560  0.10711  0.85001  1.0000
  C   C6183     1.0  0.94242  0.09512  0.85844  1.0000
  C   C6184     1.0  0.93499  0.07981  0.86060  1.0000
  C   C6185     1.0  0.92084  0.07651  0.85391  1.0000
  C   C6186     1.0  0.91398  0.08849  0.84547  1.0000
  C   C6187     1.0  0.91663  0.13328  0.85537  1.0000
  C   C6188     1.0  0.91774  0.12832  0.88329  1.0000
  C   C6189     1.0  0.92185  0.13912  0.89823  1.0000
  C   C6190     1.0  0.92483  0.15495  0.88554  1.0000
  C   C6191     1.0  0.92381  0.16001  0.85779  1.0000
  C   C6192     1.0  0.91982  0.14926  0.84267  1.0000
  H   H4932     1.0  0.86160  0.09633  0.90740  1.0000
  H   H4933     1.0  0.84757  0.08887  0.87297  1.0000
  H   H4934     1.0  0.86143  0.09460  0.82241  1.0000
  H   H4935     1.0  0.88908  0.10782  0.80621  1.0000
  H   H4936     1.0  0.88910  0.10976  0.89159  1.0000
  H   H4937     1.0  0.93916  0.12226  0.79068  1.0000
  H   H4938     1.0  0.94744  0.13635  0.74019  1.0000
  H   H4939     1.0  0.93098  0.15126  0.71876  1.0000
  H   H4940     1.0  0.90629  0.15235  0.74814  1.0000
  H   H4941     1.0  0.89776  0.13846  0.79909  1.0000
  H   H4942     1.0  0.94138  0.11885  0.84896  1.0000
  H   H4943     1.0  0.95332  0.09767  0.86393  1.0000
  H   H4944     1.0  0.91493  0.06458  0.85625  1.0000
  H   H4945     1.0  0.90283  0.08558  0.84113  1.0000
  H   H4946     1.0  0.91571  0.11612  0.89341  1.0000
  H   H4947     1.0  0.92313  0.13527  0.91944  1.0000
  H   H4948     1.0  0.92855  0.16331  0.89685  1.0000
  H   H4949     1.0  0.92667  0.17232  0.84765  1.0000
  H   H4950     1.0  0.91963  0.15358  0.82095  1.0000
  C   C6193     1.0  0.82909  0.36620  0.81906  1.0000
  H   H4951     1.0  0.88007  0.04256  0.61263  1.0000
  C   C6194     1.0  0.85638  0.03413  0.69876  1.0000
  C   C6195     1.0  0.84124  0.37389  0.57541  1.0000
  C   C6196     1.0  0.80349  0.39874  0.60453  1.0000
  C   C6197     1.0  0.81450  0.39789  0.62003  1.0000
  C   C6198     1.0  0.81406  0.40449  0.64302  1.0000
  C   C6199     1.0  0.80228  0.41177  0.65045  1.0000
  P   P210      1.0  0.82852  0.40372  0.66267  1.0000
  C   C6200     1.0  0.82074  0.38947  0.69660  1.0000
  C   C6201     1.0  0.84466  0.39918  0.64157  1.0000
  C   C6202     1.0  0.84535  0.38375  0.64385  1.0000
  C   C6203     1.0  0.85783  0.38042  0.62722  1.0000
  C   C6204     1.0  0.86953  0.39243  0.60776  1.0000
  C   C6205     1.0  0.86873  0.40777  0.60484  1.0000
  C   C6206     1.0  0.85633  0.41112  0.62164  1.0000
  C   C6207     1.0  0.83044  0.38201  0.70963  1.0000
  C   C6208     1.0  0.82450  0.37096  0.73577  1.0000
  C   C6209     1.0  0.80888  0.36753  0.74950  1.0000
  C   C6210     1.0  0.79917  0.37510  0.73704  1.0000
  C   C6211     1.0  0.80506  0.38603  0.71071  1.0000
  C   C6212     1.0  0.83557  0.42242  0.66866  1.0000
  C   C6213     1.0  0.84358  0.42352  0.68954  1.0000
  C   C6214     1.0  0.84967  0.43798  0.69354  1.0000
  C   C6215     1.0  0.84791  0.45147  0.67666  1.0000
  C   C6216     1.0  0.84013  0.45052  0.65560  1.0000
  C   C6217     1.0  0.83412  0.43609  0.65137  1.0000
  H   H4952     1.0  0.78708  0.37252  0.74787  1.0000
  C   C6218     1.0  0.78791  0.38816  0.87176  1.0000
  H   H4953     1.0  0.78911  0.35220  0.90688  1.0000
  H   H4954     1.0  0.82351  0.39239  0.61353  1.0000
  H   H4955     1.0  0.80178  0.41706  0.66794  1.0000
  H   H4956     1.0  0.83644  0.37431  0.65875  1.0000
  H   H4957     1.0  0.85870  0.36857  0.63000  1.0000
  H   H4958     1.0  0.87938  0.38988  0.59538  1.0000
  H   H4959     1.0  0.87786  0.41713  0.58992  1.0000
  H   H4960     1.0  0.85590  0.42303  0.61909  1.0000
  H   H4961     1.0  0.84263  0.38472  0.69958  1.0000
  H   H4962     1.0  0.83204  0.36504  0.74542  1.0000
  H   H4963     1.0  0.80434  0.35905  0.76986  1.0000
  C   C6219     1.0  0.84064  0.37509  0.86234  1.0000
  Fe  Fe416     1.0  0.97695  0.20369  0.67360  1.0000
  H   H4964     1.0  0.84574  0.41333  0.70199  1.0000
  H   H4965     1.0  0.85640  0.43872  0.70885  1.0000
  H   H4966     1.0  0.85323  0.46272  0.67889  1.0000
  H   H4967     1.0  0.83950  0.46109  0.64163  1.0000
  H   H4968     1.0  0.82890  0.43573  0.63392  1.0000
  C   C6220     1.0  0.89463  0.04738  0.95878  1.0000
  H   H4969     1.0  0.81254  0.02141  0.70537  1.0000
  H   H4970     1.0  0.79113  0.35991  0.69259  1.0000
  H   H4971     1.0  0.81918  0.01831  0.80272  1.0000
  S   S832      1.0  0.79761  0.46330  0.94364  1.0000
  H   H4972     1.0  0.85855  0.99230  0.84685  1.0000
  H   H4973     1.0  0.96235  0.18535  0.85161  1.0000
  H   H4974     1.0  0.91396  0.06588  0.66640  1.0000
  C   C6221     1.0  0.97478  0.32102  0.96828  1.0000
  H   H4975     1.0  0.85195  0.01491  0.73547  1.0000
  C   C6222     1.0  0.82806  0.43408  0.87884  1.0000
  C   C6223     1.0  0.91201  0.05270  0.63576  1.0000
  C   C6224     1.0  0.92918  0.29024  0.95773  1.0000
  H   H4976     1.0  0.88963  0.46391  0.48486  1.0000
  H   H4977     1.0  0.82398  0.00675  0.73948  1.0000
  C   C6225     1.0  0.85787  0.35660  0.57010  1.0000
  S   S833      1.0  0.96184  0.16476  0.76813  1.0000
  C   C6226     1.0  0.96710  0.27510  0.75250  1.0000
  H   H4978     1.0  0.78816  0.24432  0.80180  1.0000
  S   S834      1.0  0.97740  0.14215  0.95931  1.0000
  H   H4979     1.0  0.84716  0.03099  0.63157  1.0000
  H   H4980     1.0  0.78350  0.32792  0.88394  1.0000
  H   H4981     1.0  0.78300  0.29698  0.55470  1.0000
  Fe  Fe417     1.0  0.95549  0.21686  0.71073  1.0000
  H   H4982     1.0  0.78841  0.32945  0.53248  1.0000
  C   C6227     1.0  0.90649  0.06076  0.65480  1.0000
  H   H4983     1.0  0.83124  0.44649  0.87633  1.0000
  H   H4984     1.0  0.81629  0.34955  0.90832  1.0000
  H   H4985     1.0  0.93941  0.29288  0.94046  1.0000
  C   C6228     1.0  0.88176  0.05600  0.64326  1.0000
  C   C6229     1.0  0.89140  0.06233  0.65867  1.0000
  P   P211      1.0  0.86217  0.05777  0.64895  1.0000
  C   C6230     1.0  0.86196  0.07683  0.65380  1.0000
  C   C6231     1.0  0.85545  0.05606  0.61786  1.0000
  C   C6232     1.0  0.85713  0.06928  0.59600  1.0000
  C   C6233     1.0  0.85178  0.06792  0.57219  1.0000
  C   C6234     1.0  0.85319  0.38634  0.55782  1.0000
  S   S835      1.0  0.96244  0.16010  0.89662  1.0000
  Fe  Fe418     1.0  0.97411  0.31542  0.85189  1.0000
  C   C6235     1.0  0.84925  0.07918  0.67177  1.0000
  C   C6236     1.0  0.84882  0.09416  0.67382  1.0000
  C   C6237     1.0  0.86100  0.10687  0.65794  1.0000
  C   C6238     1.0  0.87371  0.10462  0.64010  1.0000
  C   C6239     1.0  0.87424  0.08968  0.63807  1.0000
  C   C6240     1.0  0.84999  0.04245  0.67922  1.0000
  H   H4986     1.0  0.92374  0.05157  0.63259  1.0000
  H   H4987     1.0  0.80320  0.35912  0.60561  1.0000
  H   H4988     1.0  0.85145  0.39789  0.55347  1.0000
  H   H4989     1.0  0.86040  0.11853  0.65868  1.0000
  C   C6241     1.0  0.83406  0.03799  0.68226  1.0000
  C   C6242     1.0  0.81403  0.36748  0.97224  1.0000
  H   H4990     1.0  0.79399  0.29056  0.87644  1.0000
  C   C6243     1.0  0.78958  0.19058  0.53107  1.0000
  C   C6244     1.0  0.98063  0.34400  0.92951  1.0000
  C   C6245     1.0  0.81553  0.35233  0.97511  1.0000
  C   C6246     1.0  0.78968  0.26922  0.72092  1.0000
  Fe  Fe419     1.0  0.78315  0.47190  0.97611  1.0000
  S   S836      1.0  0.97634  0.20842  0.71593  1.0000
  S   S837      1.0  0.97753  0.33979  0.82616  1.0000
  H   H4991     1.0  0.82834  0.12606  0.48202  1.0000
  H   H4992     1.0  0.78237  0.41847  0.64037  1.0000
  S   S838      1.0  0.78538  0.41796  0.96721  1.0000
  Fe  Fe420     1.0  0.78279  0.47111  0.91566  1.0000
  H   H4993     1.0  0.78364  0.40709  0.59935  1.0000
  H   H4994     1.0  0.97842  0.34014  0.88923  1.0000
  Fe  Fe421     1.0  0.98115  0.30261  0.79984  1.0000
  H   H4995     1.0  0.98158  0.20472  0.87689  1.0000
  S   S839      1.0  0.78321  0.18017  0.67938  1.0000
  H   H4996     1.0  0.98004  0.48870  0.57559  1.0000
  C   C6247     1.0  0.84595  0.04702  0.97617  1.0000
  H   H4997     1.0  0.89343  0.85888  0.99515  1.0000
  Fe  Fe422     1.0  0.85102  0.53349  0.06755  1.0000
  S   S840      1.0  0.83511  0.52732  0.11108  1.0000
  S   S841      1.0  0.84940  0.52170  0.03195  1.0000
  Fe  Fe423     1.0  0.87378  0.55972  0.07969  1.0000
  S   S842      1.0  0.85957  0.55558  0.12410  1.0000
  S   S843      1.0  0.89705  0.57714  0.05816  1.0000
  Fe  Fe424     1.0  0.85673  0.53025  0.12630  1.0000
  S   S844      1.0  0.85684  0.51318  0.16617  1.0000
  Fe  Fe425     1.0  0.83918  0.55305  0.10554  1.0000
  S   S845      1.0  0.82025  0.56524  0.11463  1.0000
  S   S846      1.0  0.87242  0.53443  0.08324  1.0000
  S   S847      1.0  0.85357  0.55911  0.06061  1.0000
  Fe  Fe426     1.0  0.96996  0.67292  0.03688  1.0000
  S   S848      1.0  0.94733  0.67430  0.06227  1.0000
  H   H4998     1.0  0.78413  0.78336  0.10158  1.0000
  H   H4999     1.0  0.85134  0.98474  0.11573  1.0000
  S   S849      1.0  0.95806  0.66124  0.11836  1.0000
  H   H5000     1.0  0.78878  0.76688  0.23860  1.0000
  Fe  Fe427     1.0  0.94628  0.65090  0.08896  1.0000
  S   S850      1.0  0.92324  0.63293  0.10775  1.0000
  Fe  Fe428     1.0  0.96092  0.68456  0.08933  1.0000
  S   S851      1.0  0.95345  0.70415  0.10531  1.0000
  S   S852      1.0  0.96810  0.64871  0.06193  1.0000
  H   H5001     1.0  0.95658  0.49515  0.28023  1.0000
  C   C6248     1.0  0.83341  0.50477  0.00287  1.0000
  C   C6249     1.0  0.91977  0.49302  0.44092  1.0000
  C   C6250     1.0  0.89596  0.86173  0.06080  1.0000
  H   H5002     1.0  0.92277  0.65477  0.04656  1.0000
  H   H5003     1.0  0.81449  0.50072  0.37108  1.0000
  S   S853      1.0  0.97034  0.77920  0.16439  1.0000
  H   H5004     1.0  0.85236  0.50089  0.08178  1.0000
  H   H5005     1.0  0.78789  0.91884  0.17516  1.0000
  H   H5006     1.0  0.79599  0.95197  0.13385  1.0000
  Fe  Fe429     1.0  0.96814  0.78008  0.20950  1.0000
  S   S854      1.0  0.94474  0.77512  0.24133  1.0000
  C   C6251     1.0  0.98017  0.68451  0.16666  1.0000
  C   C6252     1.0  0.79054  0.75668  0.25173  1.0000
  C   C6253     1.0  0.91507  0.63613  0.98613  1.0000
  H   H5007     1.0  0.85598  0.57965  0.00138  1.0000
  C   C6254     1.0  0.80559  0.49442  0.01542  1.0000
  H   H5008     1.0  0.80370  0.79535  0.25184  1.0000
  H   H5009     1.0  0.80568  0.53388  0.09799  1.0000
  C   C6255     1.0  0.96671  0.87249  0.02352  1.0000
  H   H5010     1.0  0.88717  0.52110  0.12676  1.0000
  C   C6256     1.0  0.96778  0.72848  0.01397  1.0000
  C   C6257     1.0  0.97809  0.50502  0.28910  1.0000
  H   H5011     1.0  0.90070  0.63214  0.05646  1.0000
  H   H5012     1.0  0.79211  0.53979  0.29213  1.0000
  Fe  Fe430     1.0  0.82897  0.69161  0.33363  1.0000
  S   S855      1.0  0.81742  0.70725  0.35497  1.0000
  S   S856      1.0  0.81604  0.66636  0.33911  1.0000
  Fe  Fe431     1.0  0.86044  0.71582  0.31473  1.0000
  S   S857      1.0  0.85094  0.73289  0.33511  1.0000
  S   S858      1.0  0.88475  0.71804  0.28831  1.0000
  Fe  Fe432     1.0  0.83821  0.71236  0.37265  1.0000
  S   S859      1.0  0.83216  0.71015  0.42093  1.0000
  Fe  Fe433     1.0  0.83091  0.72642  0.31625  1.0000
  S   S860      1.0  0.82298  0.74633  0.29221  1.0000
  S   S861      1.0  0.84898  0.69560  0.35326  1.0000
  S   S862      1.0  0.84116  0.71048  0.29375  1.0000
  C   C6258     1.0  0.96454  0.74067  0.02527  1.0000
  C   C6259     1.0  0.80523  0.81253  0.04302  1.0000
  C   C6260     1.0  0.80182  0.82514  0.05239  1.0000
  C   C6261     1.0  0.80457  0.50069  0.03891  1.0000
  C   C6262     1.0  0.79865  0.51897  0.30874  1.0000
  H   H5013     1.0  0.78540  0.66313  0.38877  1.0000
  C   C6263     1.0  0.91652  0.70661  0.15154  1.0000
  H   H5014     1.0  0.80676  0.83677  0.03882  1.0000
  H   H5015     1.0  0.86374  0.68984  0.45036  1.0000
  S   S863      1.0  0.78662  0.55940  0.24214  1.0000
  H   H5016     1.0  0.95550  0.62379  0.11820  1.0000
  H   H5017     1.0  0.95893  0.70552  0.01009  1.0000
  C   C6264     1.0  0.79376  0.66995  0.20250  1.0000
  C   C6265     1.0  0.94647  0.71485  0.21929  1.0000
  C   C6266     1.0  0.80626  0.74447  0.27922  1.0000
  C   C6267     1.0  0.79540  0.73025  0.28564  1.0000
  H   H5018     1.0  0.78416  0.66359  0.22036  1.0000
  C   C6268     1.0  0.78404  0.58437  0.47009  1.0000
  H   H5019     1.0  0.79717  0.72004  0.29873  1.0000
  H   H5020     1.0  0.91108  0.51325  0.13163  1.0000
  H   H5021     1.0  0.88231  0.66081  0.21505  1.0000
  C   C6269     1.0  0.80197  0.57366  0.15627  1.0000
  C   C6270     1.0  0.88920  0.54212  0.99946  1.0000
  C   C6271     1.0  0.78552  0.80758  0.09734  1.0000
  C   C6272     1.0  0.78897  0.79499  0.08798  1.0000
  C   C6273     1.0  0.86663  0.58866  0.99243  1.0000
  H   H5022     1.0  0.80112  0.81399  0.16732  1.0000
  H   H5023     1.0  0.81172  0.75347  0.20219  1.0000
  C   C6274     1.0  0.92170  0.50233  0.45950  1.0000
  H   H5024     1.0  0.78721  0.58020  0.18873  1.0000
  H   H5025     1.0  0.84458  0.50645  0.98867  1.0000
  H   H5026     1.0  0.82921  0.54440  0.00150  1.0000
  C   C6275     1.0  0.78426  0.53944  0.11285  1.0000
  H   H5027     1.0  0.94129  0.82218  0.06543  1.0000
  C   C6276     1.0  0.90806  0.63700  0.03515  1.0000
  C   C6277     1.0  0.79281  0.59779  0.42025  1.0000
  C   C6278     1.0  0.91616  0.71885  0.12980  1.0000
  C   C6279     1.0  0.93977  0.83753  0.01554  1.0000
  C   C6280     1.0  0.92742  0.64925  0.98046  1.0000
  H   H5028     1.0  0.81202  0.76874  0.25746  1.0000
  H   H5029     1.0  0.78758  0.84565  0.99804  1.0000
  C   C6281     1.0  0.92803  0.75926  0.25312  1.0000
  C   C6282     1.0  0.91466  0.76075  0.27087  1.0000
  C   C6283     1.0  0.90123  0.74841  0.28141  1.0000
  C   C6284     1.0  0.90104  0.73433  0.27446  1.0000
  C   C6285     1.0  0.91428  0.73295  0.25618  1.0000
  C   C6286     1.0  0.92771  0.74531  0.24559  1.0000
  H   H5030     1.0  0.91478  0.77148  0.27686  1.0000
  H   H5031     1.0  0.89114  0.74969  0.29536  1.0000
  H   H5032     1.0  0.91423  0.72218  0.25047  1.0000
  H   H5033     1.0  0.93788  0.74399  0.23194  1.0000
  H   H5034     1.0  0.82037  0.70098  0.22898  1.0000
  H   H5035     1.0  0.88119  0.56221  0.47237  1.0000
  C   C6287     1.0  0.89727  0.72597  0.16260  1.0000
  C   C6288     1.0  0.86280  0.72539  0.46517  1.0000
  C   C6289     1.0  0.85648  0.72225  0.44281  1.0000
  C   C6290     1.0  0.84092  0.71457  0.44824  1.0000
  H   H5036     1.0  0.85632  0.65126  0.24745  1.0000
  C   C6291     1.0  0.94976  0.88164  0.99639  1.0000
  H   H5037     1.0  0.87484  0.73137  0.46052  1.0000
  H   H5038     1.0  0.86365  0.72583  0.42134  1.0000
  H   H5039     1.0  0.88440  0.53206  0.01749  1.0000
  C   C6292     1.0  0.96595  0.71716  0.11725  1.0000
  C   C6293     1.0  0.96009  0.72744  0.13105  1.0000
  C   C6294     1.0  0.96969  0.73790  0.14099  1.0000
  H   H5040     1.0  0.90613  0.73793  0.11837  1.0000
  H   H5041     1.0  0.91082  0.68217  0.26605  1.0000
  C   C6295     1.0  0.79263  0.95241  0.15563  1.0000
  H   H5042     1.0  0.94802  0.72713  0.13440  1.0000
  H   H5043     1.0  0.96508  0.74559  0.15203  1.0000
  H   H5044     1.0  0.82930  0.66434  0.39248  1.0000
  C   C6296     1.0  0.94057  0.84536  0.06908  1.0000
  C   C6297     1.0  0.88728  0.51331  0.14618  1.0000
  C   C6298     1.0  0.80808  0.60010  0.42203  1.0000
  C   C6299     1.0  0.86415  0.66151  0.24886  1.0000
  C   C6300     1.0  0.79936  0.68609  0.19660  1.0000
  C   C6301     1.0  0.83236  0.51105  0.02637  1.0000
  C   C6302     1.0  0.84284  0.65018  0.37601  1.0000
  H   H5045     1.0  0.84544  0.65724  0.35442  1.0000
  C   C6303     1.0  0.81786  0.50894  0.04441  1.0000
  H   H5046     1.0  0.81688  0.51362  0.06263  1.0000
  C   C6304     1.0  0.90440  0.59235  0.07257  1.0000
  C   C6305     1.0  0.91944  0.60177  0.05999  1.0000
  C   C6306     1.0  0.92551  0.61412  0.07069  1.0000
  C   C6307     1.0  0.91653  0.61717  0.09406  1.0000
  C   C6308     1.0  0.90152  0.60771  0.10664  1.0000
  C   C6309     1.0  0.89548  0.59538  0.09598  1.0000
  H   H5047     1.0  0.92641  0.59959  0.04177  1.0000
  H   H5048     1.0  0.93703  0.62138  0.06064  1.0000
  H   H5049     1.0  0.89445  0.61001  0.12463  1.0000
  H   H5050     1.0  0.88386  0.58828  0.10576  1.0000
  C   C6310     1.0  0.94445  0.71001  0.24851  1.0000
  H   H5051     1.0  0.81438  0.77274  0.99492  1.0000
  C   C6311     1.0  0.90709  0.70377  0.17896  1.0000
  C   C6312     1.0  0.87398  0.50771  0.16860  1.0000
  H   H5052     1.0  0.78626  0.51743  0.40381  1.0000
  C   C6313     1.0  0.94714  0.85126  0.11098  1.0000
  C   C6314     1.0  0.82960  0.72539  0.22267  1.0000
  H   H5053     1.0  0.78737  0.77244  0.01436  1.0000
  C   C6315     1.0  0.79634  0.56156  0.20665  1.0000
  C   C6316     1.0  0.91272  0.65681  0.16037  1.0000
  H   H5054     1.0  0.78680  0.74966  0.33466  1.0000
  C   C6317     1.0  0.81143  0.56383  0.15022  1.0000
  C   C6318     1.0  0.81337  0.55286  0.17249  1.0000
  C   C6319     1.0  0.80578  0.55169  0.20060  1.0000
  H   H5055     1.0  0.90705  0.55242  0.01691  1.0000
  H   H5056     1.0  0.82062  0.54520  0.16803  1.0000
  H   H5057     1.0  0.80725  0.54311  0.21770  1.0000
  H   H5058     1.0  0.80281  0.80704  0.30028  1.0000
  C   C6320     1.0  0.79386  0.78081  0.99467  1.0000
  C   C6321     1.0  0.81104  0.66508  0.28640  1.0000
  C   C6322     1.0  0.80873  0.65724  0.31471  1.0000
  C   C6323     1.0  0.80022  0.64161  0.32425  1.0000
  C   C6324     1.0  0.79355  0.63409  0.30608  1.0000
  H   H5059     1.0  0.81771  0.67702  0.27859  1.0000
  H   H5060     1.0  0.79873  0.63529  0.34588  1.0000
  C   C6325     1.0  0.89395  0.59777  0.98748  1.0000
  C   C6326     1.0  0.87432  0.49770  0.19381  1.0000
  H   H5061     1.0  0.93244  0.70300  0.03786  1.0000
  H   H5062     1.0  0.92741  0.49677  0.41988  1.0000
  C   C6327     1.0  0.82011  0.49650  0.99738  1.0000
  H   H5063     1.0  0.84448  0.49320  0.13411  1.0000
  C   C6328     1.0  0.90119  0.49895  0.17427  1.0000
  P   P212      1.0  0.81755  0.65005  0.45382  1.0000
  C   C6329     1.0  0.80557  0.66128  0.43903  1.0000
  C   C6330     1.0  0.82968  0.64491  0.42577  1.0000
  C   C6331     1.0  0.83592  0.63211  0.43177  1.0000
  C   C6332     1.0  0.84545  0.62833  0.40999  1.0000
  C   C6333     1.0  0.84881  0.63730  0.38209  1.0000
  H   H5064     1.0  0.82851  0.69143  0.13794  1.0000
  C   C6334     1.0  0.85282  0.98421  0.07247  1.0000
  H   H5065     1.0  0.78608  0.53891  0.13367  1.0000
  C   C6335     1.0  0.96113  0.89550  0.98326  1.0000
  H   H5066     1.0  0.98011  0.77096  0.11079  1.0000
  C   C6336     1.0  0.94130  0.71361  0.03394  1.0000
  C   C6337     1.0  0.84380  0.67217  0.45217  1.0000
  C   C6338     1.0  0.90812  0.66851  0.17136  1.0000
  C   C6339     1.0  0.81885  0.68543  0.15605  1.0000
  C   C6340     1.0  0.79551  0.53659  0.09254  1.0000
  C   C6341     1.0  0.97799  0.88640  0.01051  1.0000
  H   H5067     1.0  0.91847  0.80495  0.00527  1.0000
  H   H5068     1.0  0.86409  0.49339  0.21127  1.0000
  C   C6342     1.0  0.79002  0.76222  0.32782  1.0000
  H   H5069     1.0  0.78946  0.83246  0.08661  1.0000
  H   H5070     1.0  0.85028  0.61849  0.41473  1.0000
  C   C6343     1.0  0.88977  0.86160  0.03753  1.0000
  C   C6344     1.0  0.94250  0.83035  0.07812  1.0000
  C   C6345     1.0  0.78999  0.52988  0.31012  1.0000
  H   H5071     1.0  0.97930  0.72927  0.00219  1.0000
  C   C6346     1.0  0.92066  0.69133  0.25274  1.0000
  H   H5072     1.0  0.95354  0.83328  0.13804  1.0000
  C   C6347     1.0  0.80446  0.65753  0.26820  1.0000
  H   H5073     1.0  0.88953  0.86414  0.07936  1.0000
  C   C6348     1.0  0.81348  0.66931  0.16265  1.0000
  H   H5074     1.0  0.92933  0.66908  0.21991  1.0000
  C   C6349     1.0  0.92853  0.81377  0.00441  1.0000
  P   P213      1.0  0.97977  0.75782  0.02008  1.0000
  H   H5075     1.0  0.83565  0.75020  0.21571  1.0000
  C   C6350     1.0  0.97589  0.77296  0.09199  1.0000
  C   C6351     1.0  0.87896  0.66701  0.23047  1.0000
  S   S864      1.0  0.78667  0.63345  0.25431  1.0000
  C   C6352     1.0  0.80412  0.80477  0.20873  1.0000
  C   C6353     1.0  0.80849  0.78656  0.32072  1.0000
  H   H5076     1.0  0.89168  0.69850  0.25371  1.0000
  H   H5077     1.0  0.91508  0.85928  0.07809  1.0000
  C   C6354     1.0  0.85611  0.49153  0.09336  1.0000
  H   H5078     1.0  0.79797  0.69870  0.27199  1.0000
  H   H5079     1.0  0.84000  0.72395  0.22879  1.0000
  C   C6355     1.0  0.93548  0.70811  0.20684  1.0000
  C   C6356     1.0  0.92053  0.64983  0.02951  1.0000
  C   C6357     1.0  0.93021  0.65597  0.00217  1.0000
  C   C6358     1.0  0.79871  0.79747  0.06087  1.0000
  H   H5080     1.0  0.81602  0.70630  0.16721  1.0000
  H   H5081     1.0  0.79501  0.69504  0.43865  1.0000
  C   C6359     1.0  0.88030  0.58601  0.99811  1.0000
  C   C6360     1.0  0.80395  0.67494  0.44660  1.0000
  H   H5082     1.0  0.80257  0.49773  0.33017  1.0000
  C   C6361     1.0  0.95244  0.87001  0.01669  1.0000
  C   C6362     1.0  0.80337  0.96091  0.16643  1.0000
  H   H5083     1.0  0.79988  0.64661  0.41184  1.0000
  H   H5084     1.0  0.87854  0.86380  0.03804  1.0000
  H   H5085     1.0  0.93729  0.71203  0.18421  1.0000
  P   P214      1.0  0.93771  0.85219  0.03430  1.0000
  H   H5086     1.0  0.78698  0.68233  0.32034  1.0000
  C   C6363     1.0  0.91048  0.85891  0.06001  1.0000
  C   C6364     1.0  0.81843  0.71241  0.22290  1.0000
  H   H5087     1.0  0.95277  0.71552  0.25823  1.0000
  C   C6365     1.0  0.90196  0.55354  0.99908  1.0000
  H   H5088     1.0  0.80256  0.53531  0.04954  1.0000
  C   C6366     1.0  0.79202  0.82265  0.07947  1.0000
  H   H5089     1.0  0.81464  0.96725  0.15279  1.0000
  H   H5090     1.0  0.78520  0.63229  0.46512  1.0000
  H   H5091     1.0  0.81162  0.76415  0.33905  1.0000
  C   C6367     1.0  0.85334  0.68149  0.46386  1.0000
  H   H5092     1.0  0.89592  0.61985  0.01901  1.0000
  H   H5093     1.0  0.81902  0.66276  0.14990  1.0000
  C   C6368     1.0  0.80372  0.75768  0.26236  1.0000
  C   C6369     1.0  0.85935  0.66928  0.26895  1.0000
  H   H5094     1.0  0.94200  0.86754  0.07882  1.0000
  H   H5095     1.0  0.96748  0.82397  0.97921  1.0000
  C   C6370     1.0  0.78463  0.95409  0.21161  1.0000
  C   C6371     1.0  0.82720  0.74018  0.21517  1.0000
  C   C6372     1.0  0.88912  0.68039  0.23199  1.0000
  H   H5096     1.0  0.94939  0.85947  0.12335  1.0000
  C   C6373     1.0  0.86939  0.68252  0.27071  1.0000
  C   C6374     1.0  0.80234  0.72905  0.20847  1.0000
  H   H5097     1.0  0.80047  0.58218  0.13913  1.0000
  H   H5098     1.0  0.95065  0.55559  0.22895  1.0000
  C   C6375     1.0  0.92233  0.69650  0.22352  1.0000
  H   H5099     1.0  0.93074  0.51301  0.45271  1.0000
  H   H5100     1.0  0.89061  0.71217  0.20550  1.0000
  C   C6376     1.0  0.97523  0.89789  0.99029  1.0000
  C   C6377     1.0  0.91413  0.67320  0.19276  1.0000
  H   H5101     1.0  0.93741  0.64855  0.20012  1.0000
  H   H5102     1.0  0.80962  0.67890  0.46167  1.0000
  H   H5103     1.0  0.93913  0.87997  0.98994  1.0000
  C   C6378     1.0  0.80405  0.77040  0.33027  1.0000
  H   H5104     1.0  0.86570  0.68858  0.28627  1.0000
  C   C6379     1.0  0.88416  0.68808  0.25229  1.0000
  C   C6380     1.0  0.92794  0.49213  0.33250  1.0000
  Fe  Fe434     1.0  0.98015  0.66094  0.08931  1.0000
  C   C6381     1.0  0.79760  0.80080  0.23797  1.0000
  H   H5105     1.0  0.79066  0.60181  0.39982  1.0000
  H   H5106     1.0  0.84784  0.66509  0.28309  1.0000
  C   C6382     1.0  0.97970  0.69735  0.17752  1.0000
  H   H5107     1.0  0.78668  0.60189  0.09445  1.0000
  C   C6383     1.0  0.83186  0.71009  0.47649  1.0000
  S   S865      1.0  0.81733  0.81488  0.00916  1.0000
  C   C6384     1.0  0.79015  0.66616  0.40555  1.0000
  C   C6385     1.0  0.81368  0.74201  0.20769  1.0000
  C   C6386     1.0  0.90083  0.50889  0.14900  1.0000
  H   H5108     1.0  0.92680  0.64059  0.16208  1.0000
  H   H5109     1.0  0.93608  0.61369  0.16430  1.0000
  H   H5110     1.0  0.80636  0.66378  0.24644  1.0000
  C   C6387     1.0  0.79846  0.65688  0.41859  1.0000
  H   H5111     1.0  0.89993  0.67395  0.16305  1.0000
  C   C6388     1.0  0.79904  0.79453  0.30818  1.0000
  H   H5112     1.0  0.79679  0.64907  0.19123  1.0000
  C   C6389     1.0  0.78870  0.67980  0.41305  1.0000
  C   C6390     1.0  0.95443  0.83686  0.00152  1.0000
  C   C6391     1.0  0.79450  0.57260  0.18437  1.0000
  H   H5113     1.0  0.80752  0.96873  0.20255  1.0000
  H   H5114     1.0  0.81944  0.79286  0.32251  1.0000
  H   H5115     1.0  0.78844  0.81858  0.00157  1.0000
  H   H5116     1.0  0.95647  0.72398  0.20633  1.0000
  C   C6392     1.0  0.90542  0.63004  0.01369  1.0000
  C   C6393     1.0  0.83348  0.65408  0.39774  1.0000
  H   H5117     1.0  0.94982  0.49252  0.34217  1.0000
  H   H5118     1.0  0.88032  0.57496  0.01138  1.0000
  H   H5119     1.0  0.80744  0.52041  0.28956  1.0000
  C   C6394     1.0  0.90642  0.72844  0.13524  1.0000
  C   C6395     1.0  0.79632  0.81130  0.19001  1.0000
  H   H5120     1.0  0.90429  0.59568  0.99313  1.0000
  H   H5121     1.0  0.81507  0.80249  0.20053  1.0000
  C   C6396     1.0  0.90401  0.82403  0.12402  1.0000
  C   C6397     1.0  0.89195  0.81857  0.11267  1.0000
  C   C6398     1.0  0.88413  0.80287  0.12158  1.0000
  C   C6399     1.0  0.88842  0.79261  0.14172  1.0000
  C   C6400     1.0  0.90059  0.79801  0.15312  1.0000
  C   C6401     1.0  0.90835  0.81381  0.14410  1.0000
  P   P215      1.0  0.90655  0.78447  0.17792  1.0000
  C   C6402     1.0  0.88949  0.77170  0.20373  1.0000
  C   C6403     1.0  0.91778  0.77379  0.15942  1.0000
  C   C6404     1.0  0.91901  0.77479  0.13060  1.0000
  C   C6405     1.0  0.92829  0.76691  0.11648  1.0000
  C   C6406     1.0  0.93628  0.75789  0.13104  1.0000
  C   C6407     1.0  0.93505  0.75680  0.15970  1.0000
  C   C6408     1.0  0.92608  0.76494  0.17367  1.0000
  C   C6409     1.0  0.88853  0.75591  0.21450  1.0000
  C   C6410     1.0  0.87526  0.74626  0.23447  1.0000
  C   C6411     1.0  0.86296  0.75228  0.24418  1.0000
  C   C6412     1.0  0.86380  0.76795  0.23368  1.0000
  C   C6413     1.0  0.87699  0.77764  0.21349  1.0000
  C   C6414     1.0  0.91882  0.79491  0.19537  1.0000
  C   C6415     1.0  0.93444  0.80173  0.18144  1.0000
  C   C6416     1.0  0.94405  0.81004  0.19442  1.0000
  C   C6417     1.0  0.93823  0.81143  0.22156  1.0000
  C   C6418     1.0  0.92273  0.80459  0.23566  1.0000
  C   C6419     1.0  0.91303  0.79636  0.22264  1.0000
  H   H5122     1.0  0.91004  0.83619  0.11732  1.0000
  H   H5123     1.0  0.88862  0.82650  0.09703  1.0000
  H   H5124     1.0  0.87472  0.79865  0.11286  1.0000
  H   H5125     1.0  0.88232  0.78045  0.14831  1.0000
  H   H5126     1.0  0.91774  0.81835  0.15250  1.0000
  H   H5127     1.0  0.91308  0.78182  0.11880  1.0000
  H   H5128     1.0  0.92945  0.76790  0.09416  1.0000
  H   H5129     1.0  0.94361  0.75195  0.11997  1.0000
  H   H5130     1.0  0.94127  0.74991  0.17114  1.0000
  H   H5131     1.0  0.92574  0.76449  0.19560  1.0000
  H   H5132     1.0  0.89800  0.75096  0.20808  1.0000
  H   H5133     1.0  0.87465  0.73414  0.24301  1.0000
  H   H5134     1.0  0.85285  0.74486  0.26019  1.0000
  H   H5135     1.0  0.85425  0.77255  0.24162  1.0000
  H   H5136     1.0  0.87753  0.78981  0.20587  1.0000
  H   H5137     1.0  0.93929  0.80050  0.16069  1.0000
  H   H5138     1.0  0.95616  0.81500  0.18378  1.0000
  H   H5139     1.0  0.94585  0.81733  0.23204  1.0000
  H   H5140     1.0  0.91838  0.80525  0.25706  1.0000
  H   H5141     1.0  0.90119  0.79091  0.23425  1.0000
  C   C6420     1.0  0.91536  0.54694  0.08393  1.0000
  C   C6421     1.0  0.92709  0.53957  0.07756  1.0000
  C   C6422     1.0  0.93740  0.53849  0.09449  1.0000
  C   C6423     1.0  0.93592  0.54469  0.11790  1.0000
  C   C6424     1.0  0.92388  0.55172  0.12487  1.0000
  C   C6425     1.0  0.91378  0.55306  0.10740  1.0000
  P   P216      1.0  0.92214  0.56018  0.15451  1.0000
  C   C6426     1.0  0.90182  0.55811  0.16871  1.0000
  C   C6427     1.0  0.92951  0.54975  0.18161  1.0000
  C   C6428     1.0  0.92666  0.53354  0.18766  1.0000
  C   C6429     1.0  0.93233  0.52538  0.20841  1.0000
  C   C6430     1.0  0.94096  0.53330  0.22331  1.0000
  C   C6431     1.0  0.94393  0.54944  0.21744  1.0000
  C   C6432     1.0  0.93825  0.55764  0.19668  1.0000
  C   C6433     1.0  0.89529  0.57062  0.16170  1.0000
  C   C6434     1.0  0.87946  0.56882  0.17148  1.0000
  C   C6435     1.0  0.86995  0.55444  0.18794  1.0000
  C   C6436     1.0  0.87628  0.54186  0.19460  1.0000
  C   C6437     1.0  0.89212  0.54365  0.18498  1.0000
  C   C6438     1.0  0.93266  0.58040  0.14270  1.0000
  C   C6439     1.0  0.94358  0.58629  0.11635  1.0000
  C   C6440     1.0  0.95185  0.60187  0.10764  1.0000
  C   C6441     1.0  0.94928  0.61167  0.12512  1.0000
  C   C6442     1.0  0.93834  0.60594  0.15121  1.0000
  C   C6443     1.0  0.93006  0.59038  0.16001  1.0000
  H   H5142     1.0  0.90745  0.54800  0.07069  1.0000
  H   H5143     1.0  0.92817  0.53473  0.05950  1.0000
  H   H5144     1.0  0.94649  0.53277  0.08961  1.0000
  H   H5145     1.0  0.94410  0.54387  0.13060  1.0000
  H   H5146     1.0  0.90467  0.55884  0.11174  1.0000
  H   H5147     1.0  0.92014  0.52717  0.17619  1.0000
  H   H5148     1.0  0.93004  0.51287  0.21281  1.0000
  H   H5149     1.0  0.94535  0.52691  0.23933  1.0000
  C   C6444     1.0  0.79544  0.64207  0.27794  1.0000
  H   H5150     1.0  0.94079  0.57010  0.19252  1.0000
  H   H5151     1.0  0.90231  0.58168  0.14803  1.0000
  H   H5152     1.0  0.87449  0.57845  0.16555  1.0000
  H   H5153     1.0  0.85760  0.55289  0.19474  1.0000
  H   H5154     1.0  0.86881  0.53056  0.20642  1.0000
  H   H5155     1.0  0.89657  0.53356  0.18964  1.0000
  H   H5156     1.0  0.94565  0.57897  0.10233  1.0000
  H   H5157     1.0  0.96005  0.60646  0.08710  1.0000
  C   C6445     1.0  0.79934  0.96183  0.19436  1.0000
  C   C6446     1.0  0.94696  0.82598  0.10310  1.0000
  H   H5158     1.0  0.92156  0.58614  0.18025  1.0000
  H   H5159     1.0  0.78691  0.62213  0.31383  1.0000
  H   H5160     1.0  0.92442  0.69955  0.14694  1.0000
  C   C6447     1.0  0.91887  0.85582  0.03596  1.0000
  H   H5161     1.0  0.78933  0.89165  0.18638  1.0000
  H   H5162     1.0  0.96981  0.67784  0.16341  1.0000
  H   H5163     1.0  0.94932  0.81475  0.10915  1.0000
  C   C6448     1.0  0.79556  0.68415  0.43361  1.0000
  H   H5164     1.0  0.96461  0.84565  0.00017  1.0000
  H   H5165     1.0  0.81891  0.98517  0.08170  1.0000
  H   H5166     1.0  0.92365  0.72095  0.10888  1.0000
  C   C6449     1.0  0.81179  0.69380  0.17284  1.0000
  C   C6450     1.0  0.94938  0.83646  0.11941  1.0000
  H   H5167     1.0  0.85416  0.98717  0.02810  1.0000
  C   C6451     1.0  0.92917  0.65409  0.19224  1.0000
  C   C6452     1.0  0.94947  0.73923  0.04073  1.0000
  C   C6453     1.0  0.93790  0.72574  0.04495  1.0000
  P   P217      1.0  0.90798  0.68819  0.20722  1.0000
  C   C6454     1.0  0.93161  0.69819  0.26519  1.0000
  H   H5168     1.0  0.78270  0.68727  0.40230  1.0000
  H   H5169     1.0  0.93000  0.69453  0.28787  1.0000
  C   C6455     1.0  0.96597  0.77880  0.04251  1.0000
  C   C6456     1.0  0.96260  0.78701  0.06265  1.0000
  C   C6457     1.0  0.96753  0.78406  0.08742  1.0000
  H   H5170     1.0  0.85282  0.97207  0.07632  1.0000
  C   C6458     1.0  0.79383  0.53757  0.06517  1.0000
  C   C6459     1.0  0.91271  0.85613  0.01241  1.0000
  H   H5171     1.0  0.97425  0.51464  0.29492  1.0000
  C   C6460     1.0  0.89817  0.85884  0.01333  1.0000
  H   H5172     1.0  0.84703  0.67349  0.42958  1.0000
  H   H5173     1.0  0.85614  0.63438  0.36516  1.0000
  C   C6461     1.0  0.92321  0.64959  0.17083  1.0000
  H   H5174     1.0  0.88997  0.73360  0.16701  1.0000
  C   C6462     1.0  0.94285  0.85574  0.08585  1.0000
  H   H5175     1.0  0.79176  0.73079  0.20346  1.0000
  H   H5176     1.0  0.90827  0.65333  0.14356  1.0000
  H   H5177     1.0  0.94665  0.74836  0.04984  1.0000
  H   H5178     1.0  0.92633  0.72455  0.05715  1.0000
  C   C6463     1.0  0.92460  0.66580  0.20330  1.0000
  H   H5179     1.0  0.91543  0.82581  0.02836  1.0000
  C   C6464     1.0  0.89762  0.71371  0.18442  1.0000
  H   H5180     1.0  0.96222  0.78139  0.02330  1.0000
  H   H5181     1.0  0.95662  0.79602  0.05869  1.0000
  H   H5182     1.0  0.96530  0.79070  0.10271  1.0000
  C   C6465     1.0  0.78317  0.80334  0.24874  1.0000
  C   C6466     1.0  0.79931  0.58659  0.47175  1.0000
  C   C6467     1.0  0.96800  0.49396  0.28083  1.0000
  C   C6468     1.0  0.95623  0.71501  0.01834  1.0000
  H   H5183     1.0  0.80126  0.78766  0.05370  1.0000
  H   H5184     1.0  0.83355  0.62511  0.45321  1.0000
  C   C6469     1.0  0.80458  0.71412  0.21629  1.0000
  H   H5185     1.0  0.91915  0.85431  0.99323  1.0000
  P   P218      1.0  0.79007  0.69716  0.21760  1.0000
  C   C6470     1.0  0.80092  0.66160  0.18581  1.0000
  H   H5186     1.0  0.96900  0.70075  0.18232  1.0000
  C   C6471     1.0  0.79595  0.50621  0.33195  1.0000
  S   S866      1.0  0.97310  0.68149  0.98967  1.0000
  C   C6472     1.0  0.92684  0.82578  0.01714  1.0000
  H   H5187     1.0  0.82315  0.59620  0.44914  1.0000
  C   C6473     1.0  0.78507  0.78637  0.30497  1.0000
  H   H5188     1.0  0.79339  0.49911  0.05302  1.0000
  C   C6474     1.0  0.97928  0.76473  0.07196  1.0000
  H   H5189     1.0  0.93297  0.49786  0.31024  1.0000
  C   C6475     1.0  0.88791  0.49341  0.19672  1.0000
  C   C6476     1.0  0.81133  0.59453  0.44779  1.0000
  C   C6477     1.0  0.80920  0.78089  0.98365  1.0000
  C   C6478     1.0  0.95610  0.82459  0.98950  1.0000
  H   H5190     1.0  0.94006  0.66575  0.99792  1.0000
  H   H5191     1.0  0.98054  0.84542  0.07307  1.0000
  H   H5192     1.0  0.90459  0.48969  0.32901  1.0000
  S   S867      1.0  0.91853  0.49421  0.17770  1.0000
  C   C6479     1.0  0.78467  0.50441  0.35693  1.0000
  H   H5193     1.0  0.96924  0.86366  0.03873  1.0000
  C   C6480     1.0  0.78802  0.68917  0.27596  1.0000
  H   H5194     1.0  0.81738  0.60613  0.40330  1.0000
  H   H5195     1.0  0.82107  0.49179  0.97918  1.0000
  C   C6481     1.0  0.97453  0.76773  0.04686  1.0000
  C   C6482     1.0  0.83004  0.66167  0.46938  1.0000
  C   C6483     1.0  0.94319  0.81311  0.99077  1.0000
  C   C6484     1.0  0.78727  0.79173  0.98066  1.0000
  H   H5196     1.0  0.85675  0.55713  0.98081  1.0000
  C   C6485     1.0  0.83456  0.54454  0.98000  1.0000
  C   C6486     1.0  0.98156  0.71757  0.11305  1.0000
  C   C6487     1.0  0.78217  0.72928  0.27527  1.0000
  H   H5197     1.0  0.78302  0.69842  0.16223  1.0000
  C   C6488     1.0  0.93739  0.48908  0.35051  1.0000
  H   H5198     1.0  0.94459  0.80374  0.98116  1.0000
  C   C6489     1.0  0.78204  0.81393  0.20051  1.0000
  H   H5199     1.0  0.93515  0.65401  0.95944  1.0000
  H   H5200     1.0  0.80798  0.54764  0.84609  1.0000
  Fe  Fe435     1.0  0.78523  0.77866  0.74841  1.0000
  C   C6490     1.0  0.80173  0.87811  0.86599  1.0000
  Fe  Fe436     1.0  0.97855  0.76500  0.73575  1.0000
  Fe  Fe437     1.0  0.88952  0.57741  0.74734  1.0000
  S   S868      1.0  0.86480  0.57520  0.76729  1.0000
  S   S869      1.0  0.90804  0.59886  0.74274  1.0000
  Fe  Fe438     1.0  0.88190  0.54748  0.72886  1.0000
  S   S870      1.0  0.85637  0.54292  0.74691  1.0000
  S   S871      1.0  0.89496  0.53227  0.70919  1.0000
  Fe  Fe439     1.0  0.86032  0.56863  0.72853  1.0000
  S   S872      1.0  0.84637  0.58256  0.70687  1.0000
  Fe  Fe440     1.0  0.86302  0.54993  0.78412  1.0000
  S   S873      1.0  0.85209  0.53867  0.83061  1.0000
  S   S874      1.0  0.88526  0.57255  0.70717  1.0000
  S   S875      1.0  0.88837  0.55274  0.76747  1.0000
  Fe  Fe441     1.0  0.95693  0.62729  0.83738  1.0000
  C   C6491     1.0  0.97845  0.60024  0.71469  1.0000
  S   S876      1.0  0.93865  0.60518  0.84355  1.0000
  Fe  Fe442     1.0  0.96345  0.66214  0.83025  1.0000
  H   H5201     1.0  0.97456  0.66608  0.90140  1.0000
  S   S877      1.0  0.95080  0.68096  0.82756  1.0000
  C   C6492     1.0  0.81665  0.81466  0.59399  1.0000
  C   C6493     1.0  0.88102  0.56994  0.51020  1.0000
  H   H5202     1.0  0.88007  0.62582  0.95206  1.0000
  H   H5203     1.0  0.81086  0.95397  0.50727  1.0000
  S   S878      1.0  0.96412  0.64767  0.79929  1.0000
  S   S879      1.0  0.95434  0.64173  0.86839  1.0000
  Fe  Fe443     1.0  0.97850  0.87127  0.92506  1.0000
  S   S880      1.0  0.95604  0.76776  0.75884  1.0000
  H   H5204     1.0  0.85252  0.97244  0.74213  1.0000
  C   C6494     1.0  0.89854  0.51289  0.67507  1.0000
  S   S881      1.0  0.96370  0.80116  0.71242  1.0000
  Fe  Fe444     1.0  0.96925  0.79237  0.75420  1.0000
  S   S882      1.0  0.96594  0.80107  0.79462  1.0000
  Fe  Fe445     1.0  0.95217  0.77604  0.71545  1.0000
  S   S883      1.0  0.92786  0.76683  0.70880  1.0000
  S   S884      1.0  0.97417  0.77180  0.69301  1.0000
  Fe  Fe446     1.0  0.84413  0.69248  0.62349  1.0000
  S   S885      1.0  0.83204  0.70644  0.59732  1.0000
  S   S886      1.0  0.83563  0.66611  0.64125  1.0000
  Fe  Fe447     1.0  0.86935  0.72145  0.62213  1.0000
  S   S887      1.0  0.85892  0.73716  0.59452  1.0000
  S   S888      1.0  0.89272  0.72948  0.63351  1.0000
  Fe  Fe448     1.0  0.83596  0.72322  0.62405  1.0000
  S   S889      1.0  0.81502  0.73203  0.63983  1.0000
  Fe  Fe449     1.0  0.85567  0.71918  0.56966  1.0000
  S   S890      1.0  0.84630  0.70825  0.65261  1.0000
  S   S891      1.0  0.86781  0.70441  0.59497  1.0000
  H   H5205     1.0  0.91382  0.50478  0.50164  1.0000
  S   S892      1.0  0.95694  0.88049  0.92795  1.0000
  C   C6495     1.0  0.79611  0.68521  0.69867  1.0000
  H   H5206     1.0  0.92102  0.65566  0.85745  1.0000
  C   C6496     1.0  0.78946  0.91901  0.89176  1.0000
  H   H5207     1.0  0.97322  0.53767  0.67777  1.0000
  S   S893      1.0  0.86261  0.72517  0.52072  1.0000
  C   C6497     1.0  0.87944  0.50200  0.65269  1.0000
  H   H5208     1.0  0.79659  0.81066  0.62842  1.0000
  H   H5209     1.0  0.89772  0.65344  0.95732  1.0000
  C   C6498     1.0  0.79059  0.93938  0.53891  1.0000
  S   S894      1.0  0.85856  0.96339  0.94315  1.0000
  C   C6499     1.0  0.89412  0.61221  0.97058  1.0000
  C   C6500     1.0  0.79200  0.86908  0.85396  1.0000
  C   C6501     1.0  0.83044  0.51071  0.72693  1.0000
  H   H5210     1.0  0.94159  0.49440  0.63394  1.0000
  H   H5211     1.0  0.83105  0.70955  0.52036  1.0000
  P   P219      1.0  0.96561  0.58192  0.71704  1.0000
  S   S895      1.0  0.80763  0.77450  0.72529  1.0000
  C   C6502     1.0  0.88035  0.61478  0.96475  1.0000
  Fe  Fe450     1.0  0.86364  0.85294  0.94096  1.0000
  S   S896      1.0  0.85631  0.86804  0.90668  1.0000
  S   S897      1.0  0.88646  0.84650  0.94332  1.0000
  C   C6503     1.0  0.96018  0.69654  0.88578  1.0000
  S   S898      1.0  0.82029  0.85090  0.94316  1.0000
  Fe  Fe451     1.0  0.83785  0.84689  0.90899  1.0000
  S   S899      1.0  0.83415  0.84115  0.86777  1.0000
  Fe  Fe452     1.0  0.83902  0.87147  0.94271  1.0000
  S   S900      1.0  0.83004  0.89343  0.94105  1.0000
  S   S901      1.0  0.84653  0.83172  0.94010  1.0000
  C   C6504     1.0  0.83623  0.88808  0.75841  1.0000
  C   C6505     1.0  0.79320  0.80991  0.84817  1.0000
  C   C6506     1.0  0.80775  0.81525  0.82891  1.0000
  C   C6507     1.0  0.82008  0.82474  0.83528  1.0000
  C   C6508     1.0  0.81813  0.82904  0.86096  1.0000
  C   C6509     1.0  0.80347  0.82410  0.87982  1.0000
  C   C6510     1.0  0.80651  0.80662  0.62027  1.0000
  H   H5212     1.0  0.80958  0.81188  0.80927  1.0000
  H   H5213     1.0  0.83129  0.82860  0.82029  1.0000
  H   H5214     1.0  0.80164  0.82780  0.89907  1.0000
  C   C6511     1.0  0.78711  0.49164  0.75584  1.0000
  C   C6512     1.0  0.85043  0.94406  0.94206  1.0000
  C   C6513     1.0  0.83561  0.93938  0.93856  1.0000
  C   C6514     1.0  0.82964  0.92390  0.93821  1.0000
  C   C6515     1.0  0.83839  0.91288  0.94119  1.0000
  C   C6516     1.0  0.85331  0.91762  0.94422  1.0000
  C   C6517     1.0  0.85923  0.93307  0.94476  1.0000
  H   H5215     1.0  0.82869  0.94765  0.93643  1.0000
  H   H5216     1.0  0.81810  0.92041  0.93583  1.0000
  H   H5217     1.0  0.86022  0.90935  0.94651  1.0000
  H   H5218     1.0  0.87072  0.93652  0.94744  1.0000
  C   C6518     1.0  0.80949  0.52539  0.61502  1.0000
  C   C6519     1.0  0.80128  0.97450  0.83691  1.0000
  H   H5219     1.0  0.79122  0.51688  0.69245  1.0000
  H   H5220     1.0  0.81908  0.93202  0.49226  1.0000
  H   H5221     1.0  0.95866  0.55627  0.69076  1.0000
  H   H5222     1.0  0.79632  0.96224  0.84661  1.0000
  C   C6520     1.0  0.96581  0.70860  0.89727  1.0000
  C   C6521     1.0  0.93750  0.87077  0.93170  1.0000
  C   C6522     1.0  0.93272  0.85474  0.93569  1.0000
  C   C6523     1.0  0.91709  0.84757  0.93900  1.0000
  C   C6524     1.0  0.90607  0.85632  0.93813  1.0000
  C   C6525     1.0  0.91089  0.87236  0.93388  1.0000
  C   C6526     1.0  0.92649  0.87950  0.93088  1.0000
  H   H5223     1.0  0.94104  0.84787  0.93652  1.0000
  H   H5224     1.0  0.91349  0.83515  0.94231  1.0000
  H   H5225     1.0  0.90258  0.87925  0.93325  1.0000
  C   C6527     1.0  0.97985  0.72692  0.69353  1.0000
  C   C6528     1.0  0.88119  0.58054  0.91046  1.0000
  C   C6529     1.0  0.81344  0.74400  0.66340  1.0000
  C   C6530     1.0  0.82516  0.74854  0.67620  1.0000
  C   C6531     1.0  0.82318  0.75778  0.69532  1.0000
  C   C6532     1.0  0.80941  0.76234  0.70216  1.0000
  C   C6533     1.0  0.79772  0.75777  0.68939  1.0000
  C   C6534     1.0  0.79984  0.74892  0.66971  1.0000
  H   H5226     1.0  0.83577  0.74503  0.67129  1.0000
  H   H5227     1.0  0.83234  0.76136  0.70496  1.0000
  S   S902      1.0  0.78478  0.80209  0.75631  1.0000
  H   H5228     1.0  0.80943  0.50250  0.81400  1.0000
  H   H5229     1.0  0.93578  0.70074  0.95555  1.0000
  C   C6535     1.0  0.88655  0.61245  0.88585  1.0000
  C   C6536     1.0  0.97070  0.81683  0.83501  1.0000
  C   C6537     1.0  0.97106  0.87412  0.83993  1.0000
  H   H5230     1.0  0.95953  0.80950  0.84737  1.0000
  C   C6538     1.0  0.91839  0.75625  0.68770  1.0000
  C   C6539     1.0  0.92644  0.75155  0.66538  1.0000
  C   C6540     1.0  0.91842  0.74355  0.64912  1.0000
  C   C6541     1.0  0.90218  0.73984  0.65491  1.0000
  C   C6542     1.0  0.89412  0.74431  0.67752  1.0000
  C   C6543     1.0  0.90214  0.75250  0.69354  1.0000
  H   H5231     1.0  0.93888  0.75430  0.66034  1.0000
  H   H5232     1.0  0.92492  0.74041  0.63161  1.0000
  H   H5233     1.0  0.88168  0.74148  0.68268  1.0000
  H   H5234     1.0  0.89569  0.75596  0.71069  1.0000
  C   C6544     1.0  0.80759  0.54707  0.82483  1.0000
  H   H5235     1.0  0.81120  0.49721  0.90053  1.0000
  C   C6545     1.0  0.88530  0.55103  0.89940  1.0000
  C   C6546     1.0  0.79787  0.98150  0.81178  1.0000
  C   C6547     1.0  0.95260  0.59116  0.64299  1.0000
  C   C6548     1.0  0.88355  0.55585  0.87191  1.0000
  C   C6549     1.0  0.83303  0.53659  0.93733  1.0000
  C   C6550     1.0  0.96166  0.69890  0.80443  1.0000
  C   C6551     1.0  0.95544  0.71180  0.80227  1.0000
  C   C6552     1.0  0.96406  0.72624  0.78400  1.0000
  H   H5236     1.0  0.96679  0.69513  0.86634  1.0000
  C   C6553     1.0  0.82371  0.53635  0.60744  1.0000
  C   C6554     1.0  0.80877  0.49833  0.85833  1.0000
  H   H5237     1.0  0.94395  0.71064  0.81478  1.0000
  H   H5238     1.0  0.95923  0.73616  0.78252  1.0000
  H   H5239     1.0  0.92212  0.63435  0.89550  1.0000
  H   H5240     1.0  0.95802  0.73424  0.87066  1.0000
  C   C6555     1.0  0.83546  0.52312  0.84071  1.0000
  C   C6556     1.0  0.82923  0.51543  0.86947  1.0000
  Fe  Fe453     1.0  0.78214  0.56449  0.63643  1.0000
  C   C6557     1.0  0.82834  0.51833  0.82073  1.0000
  H   H5241     1.0  0.83475  0.51901  0.88499  1.0000
  C   C6558     1.0  0.87519  0.51032  0.78501  1.0000
  H   H5242     1.0  0.83301  0.52421  0.79856  1.0000
  C   C6559     1.0  0.91689  0.59984  0.77050  1.0000
  C   C6560     1.0  0.92975  0.61213  0.76629  1.0000
  C   C6561     1.0  0.93670  0.61365  0.78839  1.0000
  C   C6562     1.0  0.93076  0.60296  0.81490  1.0000
  C   C6563     1.0  0.91812  0.59042  0.81886  1.0000
  C   C6564     1.0  0.91117  0.58887  0.79672  1.0000
  H   H5243     1.0  0.93432  0.62057  0.74594  1.0000
  H   H5244     1.0  0.94662  0.62312  0.78485  1.0000
  H   H5245     1.0  0.91369  0.58187  0.83904  1.0000
  H   H5246     1.0  0.90132  0.57930  0.79999  1.0000
  C   C6565     1.0  0.84872  0.54371  0.92545  1.0000
  C   C6566     1.0  0.95941  0.49041  0.60315  1.0000
  C   C6567     1.0  0.81243  0.61983  0.72653  1.0000
  C   C6568     1.0  0.89407  0.50366  0.65753  1.0000
  H   H5247     1.0  0.90206  0.52163  0.89048  1.0000
  H   H5248     1.0  0.87809  0.56515  0.86646  1.0000
  H   H5249     1.0  0.87909  0.53855  0.62174  1.0000
  C   C6569     1.0  0.79772  0.52849  0.60260  1.0000
  C   C6570     1.0  0.78435  0.90110  0.82550  1.0000
  C   C6571     1.0  0.88849  0.52062  0.68783  1.0000
  C   C6572     1.0  0.87376  0.51890  0.68323  1.0000
  C   C6573     1.0  0.86931  0.50969  0.66552  1.0000
  C   C6574     1.0  0.79895  0.94123  0.90831  1.0000
  H   H5250     1.0  0.86587  0.52471  0.69316  1.0000
  C   C6575     1.0  0.78409  0.72736  0.76333  1.0000
  C   C6576     1.0  0.80998  0.55856  0.66979  1.0000
  C   C6577     1.0  0.81303  0.57454  0.66657  1.0000
  C   C6578     1.0  0.82456  0.58185  0.67737  1.0000
  C   C6579     1.0  0.83275  0.57315  0.69212  1.0000
  C   C6580     1.0  0.82991  0.55721  0.69495  1.0000
  C   C6581     1.0  0.81860  0.54994  0.68359  1.0000
  H   H5251     1.0  0.80657  0.58129  0.65563  1.0000
  H   H5252     1.0  0.82705  0.59427  0.67444  1.0000
  H   H5253     1.0  0.83646  0.55053  0.70580  1.0000
  H   H5254     1.0  0.81647  0.53763  0.68563  1.0000
  C   C6582     1.0  0.80544  0.63391  0.60278  1.0000
  C   C6583     1.0  0.81124  0.64980  0.58913  1.0000
  C   C6584     1.0  0.82041  0.65978  0.60068  1.0000
  C   C6585     1.0  0.82402  0.65395  0.62599  1.0000
  C   C6586     1.0  0.81818  0.63803  0.63974  1.0000
  C   C6587     1.0  0.80885  0.62807  0.62833  1.0000
  H   H5255     1.0  0.80853  0.65445  0.56954  1.0000
  H   H5256     1.0  0.82477  0.67199  0.58988  1.0000
  H   H5257     1.0  0.82089  0.63337  0.65933  1.0000
  H   H5258     1.0  0.80439  0.61589  0.63925  1.0000
  C   C6588     1.0  0.94601  0.68590  0.89969  1.0000
  H   H5259     1.0  0.80757  0.60575  0.53766  1.0000
  H   H5260     1.0  0.91506  0.60684  0.92113  1.0000
  H   H5261     1.0  0.92100  0.59566  0.68648  1.0000
  H   H5262     1.0  0.83254  0.53379  0.61769  1.0000
  C   C6589     1.0  0.94255  0.69963  0.93598  1.0000
  C   C6590     1.0  0.93292  0.56072  0.80648  1.0000
  C   C6591     1.0  0.82081  0.55372  0.80251  1.0000
  H   H5263     1.0  0.84161  0.89601  0.73767  1.0000
  H   H5264     1.0  0.82636  0.53057  0.92555  1.0000
  C   C6592     1.0  0.88788  0.55717  0.95408  1.0000
  C   C6593     1.0  0.84918  0.55704  0.52536  1.0000
  C   C6594     1.0  0.93220  0.59348  0.67981  1.0000
  H   H5265     1.0  0.79095  0.54498  0.57312  1.0000
  H   H5266     1.0  0.89334  0.53455  0.92702  1.0000
  C   C6595     1.0  0.83821  0.71316  0.49889  1.0000
  H   H5267     1.0  0.85982  0.59578  0.53693  1.0000
  H   H5268     1.0  0.88866  0.62476  0.87639  1.0000
  C   C6596     1.0  0.78631  0.89753  0.77845  1.0000
  H   H5269     1.0  0.93540  0.55948  0.73836  1.0000
  H   H5270     1.0  0.90885  0.61112  0.86384  1.0000
  P   P220      1.0  0.87796  0.56003  0.92633  1.0000
  H   H5271     1.0  0.83141  0.55939  0.80651  1.0000
  H   H5272     1.0  0.93153  0.59646  0.63630  1.0000
  H   H5273     1.0  0.84797  0.57707  0.62636  1.0000
  C   C6597     1.0  0.80923  0.79340  0.63621  1.0000
  H   H5274     1.0  0.89619  0.67448  0.91856  1.0000
  H   H5275     1.0  0.81583  0.74354  0.57575  1.0000
  H   H5276     1.0  0.90814  0.67582  0.86856  1.0000
  H   H5277     1.0  0.85801  0.50853  0.66170  1.0000
  H   H5278     1.0  0.78667  0.90731  0.60441  1.0000
  C   C6598     1.0  0.89205  0.53865  0.90593  1.0000
  P   P221      1.0  0.79398  0.87481  0.81628  1.0000
  H   H5279     1.0  0.87750  0.57612  0.54966  1.0000
  H   H5280     1.0  0.82386  0.51261  0.68770  1.0000
  C   C6599     1.0  0.81802  0.79183  0.95859  1.0000
  H   H5281     1.0  0.81395  0.53089  0.97421  1.0000
  C   C6600     1.0  0.85252  0.76061  0.53604  1.0000
  C   C6601     1.0  0.83797  0.75022  0.54554  1.0000
  C   C6602     1.0  0.82692  0.75194  0.56763  1.0000
  C   C6603     1.0  0.83036  0.76413  0.58009  1.0000
  C   C6604     1.0  0.84487  0.77478  0.57039  1.0000
  C   C6605     1.0  0.85604  0.77274  0.54858  1.0000
  P   P222      1.0  0.84962  0.79010  0.58738  1.0000
  C   C6606     1.0  0.83252  0.79639  0.59980  1.0000
  C   C6607     1.0  0.85759  0.78299  0.61626  1.0000
  C   C6608     1.0  0.85502  0.78807  0.64103  1.0000
  C   C6609     1.0  0.86152  0.78271  0.66295  1.0000
  C   C6610     1.0  0.87086  0.77247  0.66012  1.0000
  C   C6611     1.0  0.87376  0.76764  0.63530  1.0000
  C   C6612     1.0  0.86724  0.77296  0.61340  1.0000
  C   C6613     1.0  0.82205  0.78819  0.62590  1.0000
  C   C6614     1.0  0.79398  0.53946  0.81986  1.0000
  C   C6615     1.0  0.78809  0.84634  0.80297  1.0000
  H   H5282     1.0  0.78666  0.71633  0.70244  1.0000
  C   C6616     1.0  0.82962  0.80961  0.58378  1.0000
  C   C6617     1.0  0.86397  0.80633  0.56212  1.0000
  C   C6618     1.0  0.86324  0.81058  0.53385  1.0000
  C   C6619     1.0  0.91022  0.64237  0.92942  1.0000
  H   H5283     1.0  0.91775  0.54864  0.78605  1.0000
  C   C6620     1.0  0.88712  0.82730  0.55080  1.0000
  C   C6621     1.0  0.87595  0.81485  0.57050  1.0000
  S   S903      1.0  0.87352  0.49031  0.63096  1.0000
  C   C6622     1.0  0.83523  0.67055  0.50984  1.0000
  S   S904      1.0  0.78959  0.57780  0.59082  1.0000
  H   H5284     1.0  0.82176  0.76490  0.59773  1.0000
  H   H5285     1.0  0.86759  0.78027  0.54158  1.0000
  H   H5286     1.0  0.84806  0.79620  0.64357  1.0000
  H   H5287     1.0  0.85926  0.78645  0.68221  1.0000
  H   H5288     1.0  0.87593  0.76837  0.67707  1.0000
  H   H5289     1.0  0.88111  0.75980  0.63294  1.0000
  H   H5290     1.0  0.86989  0.76932  0.59418  1.0000
  H   H5291     1.0  0.82395  0.77790  0.63855  1.0000
  C   C6623     1.0  0.78897  0.51236  0.71517  1.0000
  C   C6624     1.0  0.85685  0.49714  0.83007  1.0000
  H   H5292     1.0  0.79681  0.58840  0.70589  1.0000
  H   H5293     1.0  0.83734  0.81615  0.56353  1.0000
  H   H5294     1.0  0.85403  0.80424  0.52697  1.0000
  H   H5295     1.0  0.96057  0.71976  0.93096  1.0000
  C   C6625     1.0  0.79037  0.62660  0.48049  1.0000
  H   H5296     1.0  0.87388  0.82615  0.49239  1.0000
  H   H5297     1.0  0.87675  0.81191  0.59218  1.0000
  C   C6626     1.0  0.78276  0.65374  0.70465  1.0000
  C   C6627     1.0  0.87443  0.82302  0.51421  1.0000
  C   C6628     1.0  0.89792  0.60478  0.87880  1.0000
  H   H5298     1.0  0.82906  0.52202  0.72865  1.0000
  S   S905      1.0  0.98107  0.62687  0.83925  1.0000
  C   C6629     1.0  0.96417  0.72036  0.69761  1.0000
  H   H5299     1.0  0.79740  0.94832  0.92299  1.0000
  H   H5300     1.0  0.81602  0.56431  0.55926  1.0000
  C   C6630     1.0  0.87199  0.57061  0.53584  1.0000
  H   H5301     1.0  0.96300  0.61636  0.95298  1.0000
  C   C6631     1.0  0.93814  0.59396  0.65153  1.0000
  H   H5302     1.0  0.85638  0.68811  0.50157  1.0000
  H   H5303     1.0  0.81467  0.65389  0.51171  1.0000
  H   H5304     1.0  0.82382  0.62910  0.50102  1.0000
  C   C6632     1.0  0.79715  0.66131  0.68563  1.0000
  C   C6633     1.0  0.78976  0.49728  0.72661  1.0000
  H   H5305     1.0  0.78660  0.52016  0.60895  1.0000
  C   C6634     1.0  0.94067  0.62093  0.95585  1.0000
  C   C6635     1.0  0.79627  0.80276  0.95565  1.0000
  H   H5306     1.0  0.94236  0.62799  0.97031  1.0000
  C   C6636     1.0  0.97860  0.76495  0.96336  1.0000
  H   H5307     1.0  0.83692  0.55185  0.53083  1.0000
  C   C6637     1.0  0.83735  0.86807  0.79767  1.0000
  C   C6638     1.0  0.96099  0.58766  0.66280  1.0000
  C   C6639     1.0  0.82232  0.86747  0.81167  1.0000
  C   C6640     1.0  0.86665  0.60304  0.97581  1.0000
  H   H5308     1.0  0.85352  0.62106  0.53216  1.0000
  C   C6641     1.0  0.89505  0.53602  0.85806  1.0000
  C   C6642     1.0  0.83551  0.50159  0.74749  1.0000
  H   H5309     1.0  0.85387  0.54316  0.90434  1.0000
  H   H5310     1.0  0.82085  0.57579  0.60970  1.0000
  H   H5311     1.0  0.86397  0.54344  0.58686  1.0000
  C   C6643     1.0  0.91567  0.65497  0.87926  1.0000
  H   H5312     1.0  0.80748  0.51464  0.63098  1.0000
  C   C6644     1.0  0.80694  0.54492  0.77019  1.0000
  C   C6645     1.0  0.82738  0.50535  0.70399  1.0000
  C   C6646     1.0  0.81438  0.55346  0.57475  1.0000
  H   H5313     1.0  0.90994  0.51414  0.67855  1.0000
  C   C6647     1.0  0.90844  0.66636  0.88555  1.0000
  C   C6648     1.0  0.93728  0.60229  0.91868  1.0000
  H   H5314     1.0  0.85588  0.87861  0.76004  1.0000
  H   H5315     1.0  0.84350  0.86042  0.80756  1.0000
  H   H5316     1.0  0.81711  0.85923  0.83216  1.0000
  S   S906      1.0  0.79550  0.54917  0.65666  1.0000
  H   H5317     1.0  0.93006  0.89190  0.92786  1.0000
  H   H5318     1.0  0.87554  0.95468  0.88498  1.0000
  C   C6649     1.0  0.86198  0.61201  0.64145  1.0000
  C   C6650     1.0  0.85558  0.62094  0.62309  1.0000
  C   C6651     1.0  0.85660  0.63646  0.62274  1.0000
  C   C6652     1.0  0.86370  0.64298  0.64118  1.0000
  C   C6653     1.0  0.86974  0.63392  0.66032  1.0000
  C   C6654     1.0  0.86920  0.61851  0.65975  1.0000
  P   P223      1.0  0.87899  0.64193  0.68444  1.0000
  C   C6655     1.0  0.87030  0.63070  0.72064  1.0000
  C   C6656     1.0  0.89896  0.64187  0.67297  1.0000
  C   C6657     1.0  0.90581  0.63274  0.69034  1.0000
  C   C6658     1.0  0.92110  0.63233  0.68055  1.0000
  C   C6659     1.0  0.92954  0.64069  0.65313  1.0000
  C   C6660     1.0  0.92268  0.64950  0.63545  1.0000
  C   C6661     1.0  0.90747  0.65013  0.64533  1.0000
  C   C6662     1.0  0.85721  0.61820  0.72771  1.0000
  C   C6663     1.0  0.85104  0.60933  0.75574  1.0000
  C   C6664     1.0  0.85769  0.61303  0.77698  1.0000
  C   C6665     1.0  0.87036  0.62580  0.77027  1.0000
  C   C6666     1.0  0.87655  0.63471  0.74225  1.0000
  C   C6667     1.0  0.87672  0.66120  0.68364  1.0000
  C   C6668     1.0  0.86181  0.66335  0.69054  1.0000
  C   C6669     1.0  0.85969  0.67810  0.69044  1.0000
  C   C6670     1.0  0.87242  0.69080  0.68356  1.0000
  C   C6671     1.0  0.88728  0.68876  0.67688  1.0000
  C   C6672     1.0  0.88950  0.67399  0.67714  1.0000
  H   H5319     1.0  0.86112  0.59996  0.64194  1.0000
  H   H5320     1.0  0.84983  0.61583  0.60922  1.0000
  H   H5321     1.0  0.85171  0.64346  0.60841  1.0000
  H   H5322     1.0  0.86435  0.65505  0.64036  1.0000
  H   H5323     1.0  0.87401  0.61137  0.67401  1.0000
  H   H5324     1.0  0.89934  0.62557  0.71119  1.0000
  H   H5325     1.0  0.92627  0.62520  0.69412  1.0000
  H   H5326     1.0  0.94130  0.64012  0.64548  1.0000
  H   H5327     1.0  0.92910  0.65574  0.61397  1.0000
  H   H5328     1.0  0.90223  0.65688  0.63133  1.0000
  H   H5329     1.0  0.85177  0.61509  0.71178  1.0000
  H   H5330     1.0  0.84129  0.59936  0.76079  1.0000
  H   H5331     1.0  0.85308  0.60594  0.79858  1.0000
  H   H5332     1.0  0.87552  0.62868  0.78673  1.0000
  H   H5333     1.0  0.88637  0.64457  0.73731  1.0000
  H   H5334     1.0  0.85179  0.65368  0.69541  1.0000
  H   H5335     1.0  0.84813  0.67971  0.69508  1.0000
  H   H5336     1.0  0.87084  0.70233  0.68293  1.0000
  H   H5337     1.0  0.89701  0.69878  0.67106  1.0000
  H   H5338     1.0  0.90114  0.67272  0.67211  1.0000
  C   C6673     1.0  0.96969  0.55668  0.69561  1.0000
  C   C6674     1.0  0.84913  0.68058  0.49271  1.0000
  Fe  Fe454     1.0  0.84906  0.98497  0.93675  1.0000
  H   H5339     1.0  0.82999  0.79213  0.95039  1.0000
  H   H5340     1.0  0.87655  0.98259  0.87296  1.0000
  H   H5341     1.0  0.82218  0.62438  0.73411  1.0000
  C   C6675     1.0  0.93882  0.56278  0.75618  1.0000
  C   C6676     1.0  0.98186  0.65606  0.97617  1.0000
  H   H5342     1.0  0.93609  0.59527  0.90391  1.0000
  C   C6677     1.0  0.81089  0.98323  0.84986  1.0000
  H   H5343     1.0  0.89337  0.57485  0.50442  1.0000
  C   C6678     1.0  0.86766  0.49993  0.77236  1.0000
  H   H5344     1.0  0.93585  0.58987  0.72140  1.0000
  C   C6679     1.0  0.81593  0.50305  0.87829  1.0000
  H   H5345     1.0  0.96153  0.60735  0.74284  1.0000
  C   C6680     1.0  0.95388  0.49653  0.62547  1.0000
  C   C6681     1.0  0.80371  0.67698  0.68246  1.0000
  C   C6682     1.0  0.80157  0.62838  0.72282  1.0000
  C   C6683     1.0  0.97895  0.82765  0.84659  1.0000
  C   C6684     1.0  0.79821  0.59961  0.71048  1.0000
  C   C6685     1.0  0.97992  0.76289  0.81304  1.0000
  C   C6686     1.0  0.78747  0.60821  0.70633  1.0000
  Fe  Fe455     1.0  0.83008  0.83698  0.97447  1.0000
  C   C6687     1.0  0.97617  0.66893  0.96781  1.0000
  H   H5346     1.0  0.97432  0.89482  0.85459  1.0000
  H   H5347     1.0  0.87238  0.53483  0.97771  1.0000
  H   H5348     1.0  0.85599  0.60512  0.97174  1.0000
  C   C6688     1.0  0.85025  0.55165  0.96823  1.0000
  S   S907      1.0  0.84743  0.85758  0.97700  1.0000
  C   C6689     1.0  0.78644  0.91179  0.54352  1.0000
  H   H5349     1.0  0.85882  0.58219  0.93225  1.0000
  C   C6690     1.0  0.81073  0.60544  0.72042  1.0000
  H   H5350     1.0  0.81475  0.68273  0.66741  1.0000
  H   H5351     1.0  0.98128  0.69048  0.78952  1.0000
  H   H5352     1.0  0.95917  0.90415  0.96683  1.0000
  H   H5353     1.0  0.78374  0.82446  0.79254  1.0000
  C   C6691     1.0  0.86978  0.58832  0.91735  1.0000
  C   C6692     1.0  0.92714  0.61856  0.94656  1.0000
  C   C6693     1.0  0.90274  0.65373  0.93558  1.0000
  H   H5354     1.0  0.88522  0.51944  0.77229  1.0000
  C   C6694     1.0  0.93727  0.68736  0.92491  1.0000
  C   C6695     1.0  0.81499  0.50601  0.82953  1.0000
  C   C6696     1.0  0.96695  0.75374  0.83427  1.0000
  P   P224      1.0  0.91181  0.62739  0.95799  1.0000
  H   H5355     1.0  0.79085  0.74588  0.65943  1.0000
  H   H5356     1.0  0.81489  0.60129  0.60478  1.0000
  C   C6697     1.0  0.92986  0.65991  0.78458  1.0000
  C   C6698     1.0  0.92185  0.64732  0.77719  1.0000
  C   C6699     1.0  0.91832  0.64951  0.75100  1.0000
  C   C6700     1.0  0.92282  0.66431  0.73214  1.0000
  C   C6701     1.0  0.93131  0.67694  0.73912  1.0000
  C   C6702     1.0  0.93449  0.67467  0.76574  1.0000
  P   P225      1.0  0.93759  0.69615  0.71515  1.0000
  C   C6703     1.0  0.95786  0.70442  0.71025  1.0000
  C   C6704     1.0  0.93591  0.69581  0.67994  1.0000
  C   C6705     1.0  0.94221  0.68555  0.66670  1.0000
  C   C6706     1.0  0.94139  0.68542  0.63915  1.0000
  C   C6707     1.0  0.93428  0.69551  0.62463  1.0000
  C   C6708     1.0  0.92837  0.70604  0.63736  1.0000
  C   C6709     1.0  0.92944  0.70641  0.66470  1.0000
  C   C6710     1.0  0.85755  0.55108  0.94104  1.0000
  C   C6711     1.0  0.85825  0.55639  0.49972  1.0000
  H   H5357     1.0  0.96022  0.60027  0.91936  1.0000
  H   H5358     1.0  0.83057  0.55820  0.75781  1.0000
  C   C6712     1.0  0.92879  0.55655  0.78323  1.0000
  C   C6713     1.0  0.92601  0.70768  0.73027  1.0000
  C   C6714     1.0  0.91064  0.70575  0.72876  1.0000
  C   C6715     1.0  0.90197  0.71544  0.73850  1.0000
  C   C6716     1.0  0.90844  0.72679  0.75054  1.0000
  C   C6717     1.0  0.92345  0.72824  0.75341  1.0000
  C   C6718     1.0  0.93217  0.71862  0.74362  1.0000
  H   H5359     1.0  0.93267  0.65823  0.80482  1.0000
  H   H5360     1.0  0.91842  0.63586  0.79174  1.0000
  H   H5361     1.0  0.91218  0.63965  0.74536  1.0000
  H   H5362     1.0  0.91970  0.66577  0.71223  1.0000
  H   H5363     1.0  0.94074  0.68430  0.77184  1.0000
  H   H5364     1.0  0.94787  0.67775  0.67761  1.0000
  H   H5365     1.0  0.88655  0.55185  0.83051  1.0000
  H   H5366     1.0  0.93357  0.69540  0.60332  1.0000
  H   H5367     1.0  0.92301  0.71402  0.62597  1.0000
  H   H5368     1.0  0.92532  0.71510  0.67359  1.0000
  C   C6719     1.0  0.86862  0.97470  0.86592  1.0000
  H   H5369     1.0  0.80688  0.54431  0.74886  1.0000
  H   H5370     1.0  0.83796  0.50605  0.76493  1.0000
  C   C6720     1.0  0.95084  0.60503  0.92744  1.0000
  H   H5371     1.0  0.96318  0.68268  0.72680  1.0000
  H   H5372     1.0  0.90552  0.69710  0.71929  1.0000
  H   H5373     1.0  0.89038  0.71444  0.73606  1.0000
  H   H5374     1.0  0.90196  0.73468  0.75716  1.0000
  H   H5375     1.0  0.92849  0.73716  0.76249  1.0000
  H   H5376     1.0  0.94376  0.71997  0.74617  1.0000
  H   H5377     1.0  0.87196  0.50133  0.74986  1.0000
  H   H5378     1.0  0.92503  0.55622  0.82733  1.0000
  C   C6721     1.0  0.78729  0.92823  0.91051  1.0000
  C   C6722     1.0  0.91216  0.49775  0.48702  1.0000
  H   H5379     1.0  0.81024  0.88852  0.85286  1.0000
  H   H5380     1.0  0.81452  0.82492  0.58163  1.0000
  H   H5381     1.0  0.89511  0.84094  0.50741  1.0000
  C   C6723     1.0  0.86965  0.50909  0.81375  1.0000
  H   H5382     1.0  0.79149  0.81145  0.94484  1.0000
  C   C6724     1.0  0.96425  0.50558  0.63678  1.0000
  C   C6725     1.0  0.95732  0.57697  0.77585  1.0000
  H   H5383     1.0  0.95590  0.75639  0.83487  1.0000
  C   C6726     1.0  0.79367  0.53796  0.79259  1.0000
  C   C6727     1.0  0.79989  0.91464  0.52204  1.0000
  H   H5384     1.0  0.80833  0.88051  0.90417  1.0000
  C   C6728     1.0  0.79115  0.81455  0.87355  1.0000
  C   C6729     1.0  0.82598  0.53690  0.96466  1.0000
  H   H5385     1.0  0.86336  0.57208  0.66078  1.0000
  C   C6730     1.0  0.78261  0.85937  0.80600  1.0000
  C   C6731     1.0  0.80018  0.54250  0.58243  1.0000
  H   H5386     1.0  0.89639  0.83374  0.55737  1.0000
  C   C6732     1.0  0.88230  0.54382  0.97691  1.0000
  C   C6733     1.0  0.85378  0.72086  0.49342  1.0000
  H   H5387     1.0  0.81318  0.97773  0.86933  1.0000
  C   C6734     1.0  0.92543  0.60894  0.92834  1.0000
  H   H5388     1.0  0.86361  0.61014  0.91042  1.0000
  H   H5389     1.0  0.89863  0.53013  0.84218  1.0000
  H   H5390     1.0  0.79896  0.84515  0.80715  1.0000
  H   H5391     1.0  0.94192  0.67645  0.89092  1.0000
  H   H5392     1.0  0.79130  0.70446  0.62820  1.0000
  H   H5393     1.0  0.97414  0.82849  0.86764  1.0000
  C   C6735     1.0  0.80288  0.61142  0.52135  1.0000
  H   H5394     1.0  0.83181  0.67030  0.53199  1.0000
  H   H5395     1.0  0.81915  0.59881  0.72330  1.0000
  C   C6736     1.0  0.82040  0.55284  0.77516  1.0000
  C   C6737     1.0  0.96762  0.69505  0.71757  1.0000
  H   H5396     1.0  0.87895  0.55292  0.65857  1.0000
  C   C6738     1.0  0.97677  0.81535  0.80771  1.0000
  H   H5397     1.0  0.80262  0.72361  0.73362  1.0000
  C   C6739     1.0  0.97658  0.66320  0.92220  1.0000
  C   C6740     1.0  0.96605  0.88545  0.85148  1.0000
  C   C6741     1.0  0.95031  0.88438  0.86017  1.0000
  C   C6742     1.0  0.93952  0.87189  0.85766  1.0000
  C   C6743     1.0  0.94445  0.86054  0.84580  1.0000
  C   C6744     1.0  0.96033  0.86171  0.83708  1.0000
  P   P226      1.0  0.93069  0.84342  0.84555  1.0000
  C   C6745     1.0  0.92856  0.82839  0.87721  1.0000
  C   C6746     1.0  0.91217  0.84735  0.84483  1.0000
  C   C6747     1.0  0.90171  0.84662  0.87010  1.0000
  C   C6748     1.0  0.88699  0.84859  0.87004  1.0000
  C   C6749     1.0  0.88259  0.85144  0.84473  1.0000
  C   C6750     1.0  0.89302  0.85249  0.81934  1.0000
  C   C6751     1.0  0.90777  0.85048  0.81932  1.0000
  C   C6752     1.0  0.91512  0.81619  0.88785  1.0000
  C   C6753     1.0  0.91325  0.80480  0.91276  1.0000
  C   C6754     1.0  0.92482  0.80544  0.92714  1.0000
  C   C6755     1.0  0.93827  0.81746  0.91658  1.0000
  C   C6756     1.0  0.94014  0.82890  0.89179  1.0000
  C   C6757     1.0  0.93726  0.83711  0.81438  1.0000
  C   C6758     1.0  0.94623  0.84798  0.78910  1.0000
  C   C6759     1.0  0.95078  0.84317  0.76466  1.0000
  C   C6760     1.0  0.94617  0.82756  0.76513  1.0000
  C   C6761     1.0  0.93697  0.81676  0.79000  1.0000
  C   C6762     1.0  0.93261  0.82147  0.81460  1.0000
  H   H5398     1.0  0.94987  0.82373  0.74637  1.0000
  C   C6763     1.0  0.98036  0.50870  0.62613  1.0000
  H   H5399     1.0  0.94647  0.89289  0.87012  1.0000
  H   H5400     1.0  0.92739  0.87094  0.86581  1.0000
  H   H5401     1.0  0.96442  0.85275  0.82900  1.0000
  H   H5402     1.0  0.90483  0.84429  0.88999  1.0000
  H   H5403     1.0  0.87890  0.84772  0.88976  1.0000
  H   H5404     1.0  0.87106  0.85271  0.84494  1.0000
  H   H5405     1.0  0.88960  0.85466  0.79971  1.0000
  H   H5406     1.0  0.91556  0.85118  0.79945  1.0000
  H   H5407     1.0  0.90600  0.81555  0.87707  1.0000
  H   H5408     1.0  0.90274  0.79557  0.92102  1.0000
  H   H5409     1.0  0.92331  0.79668  0.94651  1.0000
  H   H5410     1.0  0.94726  0.81812  0.92768  1.0000
  H   H5411     1.0  0.95056  0.83819  0.88445  1.0000
  H   H5412     1.0  0.94965  0.86017  0.78819  1.0000
  H   H5413     1.0  0.95792  0.85152  0.74536  1.0000
  C   C6764     1.0  0.90804  0.56650  0.97585  1.0000
  H   H5414     1.0  0.93366  0.80461  0.79041  1.0000
  H   H5415     1.0  0.92567  0.81284  0.83366  1.0000
  H   H5416     1.0  0.95724  0.59157  0.62105  1.0000
  C   C6765     1.0  0.82818  0.58562  0.59288  1.0000
  H   H5417     1.0  0.80336  0.65505  0.67334  1.0000
  C   C6766     1.0  0.85598  0.56415  0.54365  1.0000
  C   C6767     1.0  0.81497  0.95380  0.77387  1.0000
  C   C6768     1.0  0.82798  0.96297  0.75278  1.0000
  C   C6769     1.0  0.84242  0.96537  0.75852  1.0000
  C   C6770     1.0  0.84382  0.95865  0.78540  1.0000
  C   C6771     1.0  0.83072  0.94965  0.80691  1.0000
  C   C6772     1.0  0.81628  0.94724  0.80090  1.0000
  P   P227      1.0  0.83285  0.94055  0.84117  1.0000
  C   C6773     1.0  0.83830  0.92266  0.84025  1.0000
  C   C6774     1.0  0.84727  0.95388  0.85008  1.0000
  C   C6775     1.0  0.85740  0.94850  0.86493  1.0000
  C   C6776     1.0  0.86809  0.95892  0.87265  1.0000
  C   C6777     1.0  0.81398  0.87701  0.79901  1.0000
  H   H5418     1.0  0.85295  0.55077  0.48581  1.0000
  C   C6778     1.0  0.84787  0.96978  0.84336  1.0000
  C   C6779     1.0  0.83602  0.91138  0.86562  1.0000
  C   C6780     1.0  0.84000  0.89742  0.86527  1.0000
  C   C6781     1.0  0.84628  0.89455  0.83964  1.0000
  C   C6782     1.0  0.84865  0.90574  0.81426  1.0000
  C   C6783     1.0  0.84465  0.91974  0.81449  1.0000
  C   C6784     1.0  0.81497  0.93599  0.86814  1.0000
  C   C6785     1.0  0.80326  0.92287  0.87068  1.0000
  C   C6786     1.0  0.87416  0.56282  0.49215  1.0000
  H   H5419     1.0  0.90204  0.49795  0.64757  1.0000
  C   C6787     1.0  0.95301  0.57335  0.75219  1.0000
  C   C6788     1.0  0.81277  0.94506  0.88734  1.0000
  H   H5420     1.0  0.80375  0.95207  0.76946  1.0000
  H   H5421     1.0  0.82678  0.96827  0.73208  1.0000
  H   H5422     1.0  0.85511  0.96046  0.78946  1.0000
  H   H5423     1.0  0.80595  0.94056  0.81699  1.0000
  H   H5424     1.0  0.85687  0.93627  0.87135  1.0000
  C   C6789     1.0  0.89697  0.53124  0.88526  1.0000
  H   H5425     1.0  0.95031  0.57425  0.82080  1.0000
  H   H5426     1.0  0.83980  0.97413  0.83278  1.0000
  H   H5427     1.0  0.83123  0.91340  0.88577  1.0000
  H   H5428     1.0  0.83820  0.88880  0.88499  1.0000
  H   H5429     1.0  0.84932  0.88366  0.83959  1.0000
  H   H5430     1.0  0.85367  0.90359  0.79440  1.0000
  H   H5431     1.0  0.84656  0.92819  0.79458  1.0000
  H   H5432     1.0  0.80490  0.91561  0.85643  1.0000
  H   H5433     1.0  0.90432  0.58321  0.88558  1.0000
  H   H5434     1.0  0.81984  0.70410  0.48112  1.0000
  C   C6790     1.0  0.97649  0.70043  0.78822  1.0000
  H   H5435     1.0  0.82171  0.95499  0.88653  1.0000
  H   H5436     1.0  0.83087  0.62385  0.56582  1.0000
  C   C6791     1.0  0.86354  0.56599  0.64438  1.0000
  C   C6792     1.0  0.87231  0.55516  0.64322  1.0000
  C   C6793     1.0  0.87240  0.54709  0.62243  1.0000
  C   C6794     1.0  0.86385  0.54994  0.60265  1.0000
  C   C6795     1.0  0.85526  0.56107  0.60328  1.0000
  C   C6796     1.0  0.85491  0.56886  0.62469  1.0000
  P   P228      1.0  0.84452  0.56484  0.57715  1.0000
  C   C6797     1.0  0.82625  0.55049  0.58724  1.0000
  C   C6798     1.0  0.84078  0.58381  0.57380  1.0000
  C   C6799     1.0  0.84999  0.59674  0.55195  1.0000
  C   C6800     1.0  0.84644  0.61113  0.54909  1.0000
  C   C6801     1.0  0.83374  0.61275  0.56803  1.0000
  C   C6802     1.0  0.82472  0.60003  0.59006  1.0000
  H   H5437     1.0  0.78722  0.76142  0.69424  1.0000
  C   C6803     1.0  0.94719  0.57088  0.80280  1.0000
  H   H5438     1.0  0.81844  0.81134  0.92530  1.0000
  H   H5439     1.0  0.94643  0.67760  0.62897  1.0000
  C   C6804     1.0  0.88836  0.54833  0.85140  1.0000
  C   C6805     1.0  0.87246  0.60421  0.90502  1.0000
  C   C6806     1.0  0.95244  0.61418  0.94629  1.0000
  H   H5440     1.0  0.80149  0.78731  0.65679  1.0000
  H   H5441     1.0  0.78965  0.85630  0.93425  1.0000
  C   C6807     1.0  0.81153  0.80272  0.94453  1.0000
  C   C6808     1.0  0.89528  0.58891  0.89105  1.0000
  C   C6809     1.0  0.96824  0.74121  0.85450  1.0000
  H   H5442     1.0  0.78724  0.94916  0.54497  1.0000
  C   C6810     1.0  0.80072  0.87360  0.89494  1.0000
  C   C6811     1.0  0.84428  0.87830  0.77096  1.0000
  H   H5443     1.0  0.92645  0.67899  0.93592  1.0000
  H   H5444     1.0  0.83546  0.74057  0.53630  1.0000
  H   H5445     1.0  0.95691  0.72778  0.69138  1.0000
  C   C6812     1.0  0.82115  0.88746  0.77235  1.0000
  H   H5446     1.0  0.90578  0.57854  0.93601  1.0000
  C   C6813     1.0  0.82561  0.66124  0.49822  1.0000
  C   C6814     1.0  0.90181  0.66565  0.91370  1.0000
  H   H5447     1.0  0.87511  0.51753  0.82332  1.0000
  H   H5448     1.0  0.78419  0.88268  0.63929  1.0000
  C   C6815     1.0  0.94058  0.59002  0.69965  1.0000
  S   S908      1.0  0.82495  0.98499  0.93327  1.0000
  C   C6816     1.0  0.91645  0.64296  0.90104  1.0000
  H   H5449     1.0  0.80299  0.63938  0.72813  1.0000
  H   H5450     1.0  0.81516  0.89501  0.76197  1.0000
  H   H5451     1.0  0.96840  0.58464  0.77360  1.0000
  C   C6817     1.0  0.80405  0.94218  0.51745  1.0000
  H   H5452     1.0  0.97220  0.58558  0.65582  1.0000
  C   C6818     1.0  0.85851  0.98014  0.85127  1.0000
  C   C6819     1.0  0.95486  0.58667  0.69143  1.0000
  C   C6820     1.0  0.95668  0.71033  0.92205  1.0000
  H   H5453     1.0  0.86122  0.75888  0.51956  1.0000
  C   C6821     1.0  0.81201  0.62473  0.50062  1.0000
  C   C6822     1.0  0.80870  0.92982  0.50900  1.0000
  C   C6823     1.0  0.79014  0.85993  0.91198  1.0000
  C   C6824     1.0  0.88639  0.83136  0.52267  1.0000
  H   H5454     1.0  0.97943  0.63182  0.74136  1.0000
  C   C6825     1.0  0.90102  0.56833  0.95346  1.0000
  H   H5455     1.0  0.80342  0.90505  0.51539  1.0000
  H   H5456     1.0  0.97353  0.50825  0.53572  1.0000
  S   S909      1.0  0.79427  0.62193  0.58663  1.0000
  C   C6826     1.0  0.78795  0.89250  0.80599  1.0000
  H   H5457     1.0  0.79264  0.49004  0.71279  1.0000
  H   H5458     1.0  0.91798  0.57533  0.97555  1.0000
  H   H5459     1.0  0.95972  0.51022  0.65394  1.0000
  C   C6827     1.0  0.98102  0.77500  0.93660  1.0000
  C   C6828     1.0  0.97344  0.67237  0.94090  1.0000
  H   H5460     1.0  0.96893  0.68219  0.93449  1.0000
  C   C6829     1.0  0.97896  0.72781  0.76798  1.0000
  H   H5461     1.0  0.80130  0.69737  0.69601  1.0000
  C   C6830     1.0  0.82876  0.49059  0.70220  1.0000
  H   H5462     1.0  0.97338  0.75277  0.96671  1.0000
  C   C6831     1.0  0.78751  0.60571  0.52171  1.0000
  H   H5463     1.0  0.78480  0.89723  0.84715  1.0000
  C   C6832     1.0  0.79042  0.72306  0.73925  1.0000
  H   H5464     1.0  0.85247  0.49633  0.85230  1.0000
  H   H5465     1.0  0.97886  0.77261  0.79748  1.0000
  H   H5466     1.0  0.97762  0.77054  0.91977  1.0000
  C   C6833     1.0  0.80582  0.63250  0.48005  1.0000
  S   S910      1.0  0.78576  0.96975  0.79624  1.0000
  S   S911      1.0  0.78270  0.97224  0.71604  1.0000
  C   C6834     1.0  0.97553  0.49344  0.59262  1.0000
  Fe  Fe456     1.0  0.97914  0.64321  0.86696  1.0000
  C   C6835     1.0  0.78912  0.62274  0.71224  1.0000
  H   H5467     1.0  0.80175  0.58211  0.49176  1.0000
  H   H5468     1.0  0.78846  0.89082  0.76327  1.0000
  C   C6836     1.0  0.97589  0.56782  0.70858  1.0000
  C   C6837     1.0  0.97326  0.61034  0.72987  1.0000
  S   S912      1.0  0.98002  0.84712  0.92381  1.0000
  H   H5469     1.0  0.78509  0.53350  0.72342  1.0000
  H   H5470     1.0  0.79132  0.73114  0.77646  1.0000
  C   C6838     1.0  0.78531  0.52174  0.73295  1.0000
  H   H5471     1.0  0.78421  0.65070  0.64797  1.0000
  C   C6839     1.0  0.78319  0.50090  0.77374  1.0000
  C   C6840     1.0  0.97781  0.54602  0.68845  1.0000
  H   H5472     1.0  0.78384  0.53473  0.83743  1.0000
