data_image0
_chemical_formula_structural       CH2FeS2FeS2FeSFeS3C3H2C5H2CHC5H4C5H5CPCH2C12H10C5H3CHC3HC2HC4HCHCHC4H2CHPHCH4CHCH2C4HC3HC2HCPH4C2H4CHC7HC2H2CH2CPC4HCH2C2H4FeS2FeSFeSFeS2HCH2C6H4CH2C9H5CSCH7CFeHC2HC12HC5PC14H2C4H3SH7CH2CH3PHCH2C3H3C2HCHCH3C3HCH3C2SCH6SHCHPC3HPC2HC2FeS2FeSHCSHFeS2FeS2FeSFeS3C2HCH3C3H2C6H4C2H2SCHCHCSCPC9HC2H9CH5C4FeCH2CHCHC2H2C2H2CH2CH2C2HC2HC2HC2HC6H2CFeS2FeS2FeSFeS3HCHC3HC5H4C3H2CHCH7C13PC2PC5H5CHCH3CH3CHCHC7PC2H2C2HCHC4H4CH7C3HC3H2CH4C5HC2HC3HC4HCHC2H5CHCH4CH3C2H4C4HC6HC3FeSCFeS2FeHFeS4H2C3HC2HC6H6C2H3CH3C2HC7HC3PFeH3C3HCH2CH2CHC2HCH2C2HC3HCH2C2HC2HCH2CHCHCHC2HCHC3HCHCS2HCH2CFeS2CSFeSFeSH2FeS2FeSCFeSFeS3C3H2C2HC6H4C3H3CH2C3H3PC4HC8H2C4HSH2C2HCH3C4H3C2HC6H2CH2C2HSCH3PH4C2H3C3HPC4HSC3H4CH2CH6CHC3HC8H3FeS2FeS2FeSFeS3CHCH4CHCHC3H3C5H5C10HCHC4HPC4HCH2CH2CHC2HC3HCH3C2HCH5CHC5PC7H2CHC3H2C2H2C2H4C2SHC2HCHC10H2CH4C2HC2H3FeS2FeS2FeHSCSC2H2C7H4FeH8C2SC3HC2HCH3FeCH2C3H2C4HCHC2HCHCHCHCHCHCHC2H2C6PC2HCSC7HCHCHC2H3C2H7C2SCH3C2H2CH3CHCPCHC2HSFeS2H3CFeS2FeS2FeSFeS3HSC4H2CH3C7H4C2HC2HC4HSCHC6PC18H11C2H3CH3C4H2C2H2CHCH2CHFeHC2HCPCHCH3CH3C2HC2HC6HC2H4CHCHFeCHCH6C2H2C2H2CPC2HSFeS2FeS2FeSFeS3CHCH2C6H4C3HC7H3C2H3C5PC4H2C13H5CH6C4H5C2H2C3H3C3PCPHCHCHCHC2H3C2H4CH2CH2CH3C5HCHC2HCH2S2CFeCSFeS2FeCFeHS2FeSC6H4C3H6C5HPC9HC3H3C3H3CH3C5H4CH2PH4CSC2HC12HSHC2H2CHCHC3HC2H2CH4C3HCHCH2CH3CH3C3SHCH2C3HC2SH3C3H4C2PHC3PHFeCSFeCSCHS2FeS2FeS2FeSFeS3H2FeCHC3H2C6H4C2H2CH3C2H2C2H3C6H2C2H3C2HCHCHCH3C2H4CHCHCHC4HCHCH2C4H2C2HC3HC2H4CH2C2HC4HC3H4PC2HC6HC3PHC2H2CHC2H2CHC2H2C2
_chemical_formula_sum              "C960 H768 Fe64 S128 P32"
_cell_length_a       40.9352
_cell_length_b       42.0245
_cell_length_c       42.3965
_cell_angle_alpha    90.2285
_cell_angle_beta     90.526
_cell_angle_gamma    88.1086

_space_group_name_H-M_alt    "P 1"
_space_group_IT_number       1

loop_
  _space_group_symop_operation_xyz
  'x, y, z'

loop_
  _atom_site_type_symbol
  _atom_site_label
  _atom_site_symmetry_multiplicity
  _atom_site_fract_x
  _atom_site_fract_y
  _atom_site_fract_z
  _atom_site_occupancy
  C   C1        1.0  0.09118  0.22229  0.14029  1.0000
  H   H1        1.0  0.34915  0.47727  0.31262  1.0000
  H   H2        1.0  0.32304  0.19693  0.09809  1.0000
  Fe  Fe1       1.0  0.13177  0.12220  0.20584  1.0000
  S   S1        1.0  0.14204  0.09604  0.16074  1.0000
  S   S2        1.0  0.08275  0.11569  0.22922  1.0000
  Fe  Fe2       1.0  0.19988  0.15078  0.20933  1.0000
  S   S3        1.0  0.21478  0.12561  0.16420  1.0000
  S   S4        1.0  0.23568  0.18834  0.22693  1.0000
  Fe  Fe3       1.0  0.16555  0.14046  0.14495  1.0000
  S   S5        1.0  0.15438  0.16387  0.09756  1.0000
  Fe  Fe4       1.0  0.19017  0.08262  0.18321  1.0000
  S   S6        1.0  0.21153  0.03340  0.17110  1.0000
  S   S7        1.0  0.15158  0.16805  0.18860  1.0000
  S   S8        1.0  0.17902  0.10619  0.22998  1.0000
  C   C2        1.0  0.04613  0.14730  0.18322  1.0000
  C   C3        1.0  0.04601  0.12910  0.21072  1.0000
  C   C4        1.0  0.05283  0.00410  0.15626  1.0000
  H   H3        1.0  0.06911  0.15421  0.17347  1.0000
  H   H4        1.0  0.41871  0.47726  0.28074  1.0000
  C   C5        1.0  0.23721  0.18308  0.02668  1.0000
  C   C6        1.0  0.41124  0.40533  0.31648  1.0000
  C   C7        1.0  0.03368  0.24155  0.17107  1.0000
  C   C8        1.0  0.13113  0.05306  0.07778  1.0000
  C   C9        1.0  0.42289  0.43588  0.31114  1.0000
  H   H5        1.0  0.06979  0.08957  0.14781  1.0000
  H   H6        1.0  0.16625  0.02022  0.22201  1.0000
  C   C10       1.0  0.01106  0.26171  0.26956  1.0000
  H   H7        1.0  0.09240  0.04236  0.04539  1.0000
  C   C11       1.0  0.18786  0.10107  0.03088  1.0000
  C   C12       1.0  0.18070  0.11546  0.06016  1.0000
  C   C13       1.0  0.16346  0.14468  0.06127  1.0000
  C   C14       1.0  0.15340  0.15927  0.03287  1.0000
  C   C15       1.0  0.05813  0.09601  0.99752  1.0000
  H   H8        1.0  0.20075  0.07826  0.03011  1.0000
  H   H9        1.0  0.18885  0.10413  0.08183  1.0000
  H   H10       1.0  0.14020  0.18197  0.03348  1.0000
  H   H11       1.0  0.06124  0.21879  0.09863  1.0000
  C   C16       1.0  0.15321  0.21321  0.26209  1.0000
  C   C17       1.0  0.28151  0.24526  0.29102  1.0000
  C   C18       1.0  0.27062  0.23065  0.26288  1.0000
  C   C19       1.0  0.24910  0.20515  0.26351  1.0000
  C   C20       1.0  0.23887  0.19424  0.29286  1.0000
  H   H12       1.0  0.20145  0.20888  0.99828  1.0000
  H   H13       1.0  0.17839  0.22045  0.26158  1.0000
  H   H14       1.0  0.27886  0.23929  0.24041  1.0000
  H   H15       1.0  0.22284  0.17438  0.29392  1.0000
  H   H16       1.0  0.38336  0.19007  0.01377  1.0000
  C   C21       1.0  0.06173  0.22463  0.12348  1.0000
  P   P1        1.0  0.28429  0.14951  0.06328  1.0000
  C   C22       1.0  0.27464  0.17751  0.09459  1.0000
  H   H17       1.0  0.10660  0.33903  0.29004  1.0000
  H   H18       1.0  0.02417  0.07600  0.05744  1.0000
  C   C23       1.0  0.00164  0.04220  0.28874  1.0000
  C   C24       1.0  0.24333  0.17815  0.10781  1.0000
  C   C25       1.0  0.23599  0.19799  0.13350  1.0000
  C   C26       1.0  0.26002  0.21695  0.14658  1.0000
  C   C27       1.0  0.29124  0.21667  0.13345  1.0000
  C   C28       1.0  0.29856  0.19711  0.10748  1.0000
  C   C29       1.0  0.27346  0.11032  0.07650  1.0000
  C   C30       1.0  0.27488  0.10304  0.10882  1.0000
  C   C31       1.0  0.26630  0.07303  0.11947  1.0000
  C   C32       1.0  0.25644  0.04990  0.09802  1.0000
  C   C33       1.0  0.26427  0.08665  0.05500  1.0000
  C   C34       1.0  0.08541  0.00573  0.14698  1.0000
  H   H19       1.0  0.11432  0.05004  0.20783  1.0000
  H   H20       1.0  0.17134  0.05636  0.11076  1.0000
  H   H21       1.0  0.22477  0.16278  0.09859  1.0000
  H   H22       1.0  0.21186  0.19798  0.14385  1.0000
  H   H23       1.0  0.25455  0.23137  0.16727  1.0000
  H   H24       1.0  0.30989  0.23123  0.14384  1.0000
  H   H25       1.0  0.28230  0.12058  0.12601  1.0000
  H   H26       1.0  0.26674  0.06786  0.14453  1.0000
  H   H27       1.0  0.07302  0.35979  0.19578  1.0000
  H   H28       1.0  0.32408  0.18946  0.02367  1.0000
  C   C35       1.0  0.34020  0.17200  0.03514  1.0000
  C   C36       1.0  0.06297  0.19303  0.02789  1.0000
  C   C37       1.0  0.04230  0.01876  0.18438  1.0000
  C   C38       1.0  0.38735  0.44056  0.26499  1.0000
  C   C39       1.0  0.41070  0.45347  0.28523  1.0000
  H   H29       1.0  0.39923  0.11121  0.07692  1.0000
  H   H30       1.0  0.10985  0.10125  0.00615  1.0000
  H   H31       1.0  0.02522  0.00723  0.07968  1.0000
  C   C40       1.0  0.01644  0.15710  0.16867  1.0000
  H   H32       1.0  0.10766  0.15141  0.28512  1.0000
  C   C41       1.0  0.09067  0.35300  0.24338  1.0000
  C   C42       1.0  0.15686  0.04069  0.09631  1.0000
  C   C43       1.0  0.06307  0.23840  0.18835  1.0000
  H   H33       1.0  0.01009  0.23618  0.12582  1.0000
  C   C44       1.0  0.02506  0.24046  0.24743  1.0000
  C   C45       1.0  0.11338  0.17439  0.27546  1.0000
  H   H34       1.0  0.22894  0.19461  0.04811  1.0000
  C   C46       1.0  0.38825  0.39237  0.29601  1.0000
  C   C47       1.0  0.07417  0.28915  0.23520  1.0000
  C   C48       1.0  0.07532  0.13397  0.08117  1.0000
  C   C49       1.0  0.09723  0.03699  0.19345  1.0000
  H   H35       1.0  0.35805  0.39998  0.25477  1.0000
  C   C50       1.0  0.04599  0.07936  0.10353  1.0000
  H   H36       1.0  0.01606  0.03615  0.30955  1.0000
  C   C51       1.0  0.08757  0.29950  0.26395  1.0000
  H   H37       1.0  0.34011  0.11007  0.08696  1.0000
  C   C52       1.0  0.10775  0.02166  0.16589  1.0000
  C   C53       1.0  0.01599  0.12151  0.22402  1.0000
  C   C54       1.0  0.32756  0.14915  0.05537  1.0000
  C   C55       1.0  0.24959  0.20898  0.32100  1.0000
  H   H38       1.0  0.11350  0.21472  0.12841  1.0000
  H   H39       1.0  0.12567  0.07849  0.07774  1.0000
  C   C56       1.0  0.09194  0.22955  0.17249  1.0000
  H   H40       1.0  0.48318  0.49509  0.29343  1.0000
  P   P2        1.0  0.06429  0.24787  0.22999  1.0000
  H   H41       1.0  0.13509  0.25468  0.23766  1.0000
  C   C57       1.0  0.34911  0.12745  0.07069  1.0000
  H   H42       1.0  0.01573  0.10774  0.24551  1.0000
  H   H43       1.0  0.16492  0.16874  0.28527  1.0000
  H   H44       1.0  0.29788  0.26491  0.29000  1.0000
  H   H45       1.0  0.11510  0.22810  0.18488  1.0000
  C   C58       1.0  0.06579  0.09697  0.12355  1.0000
  H   H46       1.0  0.08792  0.15449  0.07292  1.0000
  C   C59       1.0  0.16104  0.14503  0.00357  1.0000
  H   H47       1.0  0.04903  0.19294  0.04944  1.0000
  H   H48       1.0  0.24909  0.02696  0.10660  1.0000
  C   C60       1.0  0.25573  0.05659  0.06577  1.0000
  C   C61       1.0  0.11244  0.03263  0.05947  1.0000
  C   C62       1.0  0.05452  0.11710  0.06130  1.0000
  C   C63       1.0  0.38272  0.12809  0.06514  1.0000
  H   H49       1.0  0.01675  0.17081  0.14719  1.0000
  C   C64       1.0  0.08048  0.12419  0.11227  1.0000
  C   C65       1.0  0.03303  0.23453  0.13879  1.0000
  C   C66       1.0  0.09588  0.22304  0.24848  1.0000
  H   H50       1.0  0.37771  0.45438  0.24531  1.0000
  C   C67       1.0  0.12850  0.23258  0.24858  1.0000
  C   C68       1.0  0.37617  0.41001  0.27036  1.0000
  H   H51       1.0  0.06399  0.18500  0.26139  1.0000
  C   C69       1.0  0.06454  0.03609  0.20240  1.0000
  P   P3        1.0  0.04614  0.12978  0.02144  1.0000
  H   H52       1.0  0.03490  0.05817  0.11225  1.0000
  H   H53       1.0  0.07379  0.24275  0.03209  1.0000
  H   H54       1.0  0.37990  0.36854  0.30015  1.0000
  H   H55       1.0  0.13320  0.02243  0.15917  1.0000
  C   C70       1.0  0.27090  0.23464  0.32033  1.0000
  C   C71       1.0  0.08856  0.19365  0.26189  1.0000
  H   H56       1.0  0.05830  0.30384  0.18840  1.0000
  H   H57       1.0  0.02965  0.01090  0.25843  1.0000
  H   H58       1.0  0.05697  0.04930  0.22316  1.0000
  H   H59       1.0  0.24795  0.03874  0.04906  1.0000
  C   C72       1.0  0.37380  0.17253  0.02960  1.0000
  H   H60       1.0  0.09619  0.13780  0.12749  1.0000
  C   C73       1.0  0.06682  0.16509  0.00984  1.0000
  C   C74       1.0  0.00350  0.14033  0.01626  1.0000
  C   C75       1.0  0.39506  0.15054  0.04454  1.0000
  C   C76       1.0  0.04015  0.08947  0.07255  1.0000
  C   C77       1.0  0.26279  0.15993  0.02704  1.0000
  C   C78       1.0  0.00777  0.21360  0.23827  1.0000
  C   C79       1.0  0.14567  0.18409  0.27546  1.0000
  H   H61       1.0  0.01817  0.19682  0.22148  1.0000
  C   C80       1.0  0.07647  0.22138  0.01787  1.0000
  C   C81       1.0  0.06873  0.31115  0.21072  1.0000
  H   H62       1.0  0.09181  0.28294  0.28321  1.0000
  H   H63       1.0  0.09732  0.37758  0.24645  1.0000
  C   C82       1.0  0.09588  0.33128  0.26795  1.0000
  H   H64       1.0  0.26282  0.09135  0.02999  1.0000
  H   H65       1.0  0.02374  0.28256  0.27723  1.0000
  C   C83       1.0  0.00946  0.02818  0.25968  1.0000
  P   P4        1.0  0.00006  0.01636  0.19563  1.0000
  C   C84       1.0  0.16393  0.00798  0.09663  1.0000
  C   C85       1.0  0.07701  0.34295  0.21483  1.0000
  C   C86       1.0  0.09133  0.08714  0.99492  1.0000
  C   C87       1.0  0.17879  0.11609  0.00248  1.0000
  H   H66       1.0  0.42110  0.15100  0.04025  1.0000
  C   C88       1.0  0.27258  0.14568  0.99844  1.0000
  H   H67       1.0  0.00062  0.07988  0.16971  1.0000
  H   H68       1.0  0.01115  0.24911  0.18246  1.0000
  C   C89       1.0  0.22159  0.19152  0.99830  1.0000
  C   C90       1.0  0.11985  0.99986  0.05923  1.0000
  H   H69       1.0  0.47637  0.39070  0.31041  1.0000
  H   H70       1.0  0.04485  0.01273  0.02483  1.0000
  H   H71       1.0  0.29241  0.12799  0.99794  1.0000
  H   H72       1.0  0.18314  0.99898  0.11229  1.0000
  Fe  Fe5       1.0  0.32737  0.36178  0.38738  1.0000
  S   S9        1.0  0.37807  0.35304  0.40593  1.0000
  S   S10       1.0  0.30404  0.41078  0.39613  1.0000
  Fe  Fe6       1.0  0.31903  0.29101  0.37130  1.0000
  S   S11       1.0  0.36962  0.27741  0.38979  1.0000
  Fe  Fe7       1.0  0.35872  0.31066  0.43048  1.0000
  S   S12       1.0  0.38155  0.30530  0.47941  1.0000
  Fe  Fe8       1.0  0.38528  0.32104  0.36438  1.0000
  S   S13       1.0  0.30709  0.32100  0.41459  1.0000
  S   S14       1.0  0.31370  0.26899  0.60790  1.0000
  H   H73       1.0  0.22027  0.31305  0.44581  1.0000
  C   C91       1.0  0.31793  0.44647  0.37972  1.0000
  H   H74       1.0  0.33687  0.36538  0.47687  1.0000
  H   H75       1.0  0.46839  0.34455  0.63046  1.0000
  C   C92       1.0  0.36164  0.29545  0.51466  1.0000
  C   C93       1.0  0.32767  0.29392  0.51652  1.0000
  C   C94       1.0  0.31306  0.28643  0.54544  1.0000
  C   C95       1.0  0.33227  0.28079  0.57259  1.0000
  C   C96       1.0  0.36617  0.28294  0.57077  1.0000
  C   C97       1.0  0.38077  0.28975  0.54183  1.0000
  H   H76       1.0  0.31277  0.29853  0.49575  1.0000
  H   H77       1.0  0.28680  0.28518  0.54695  1.0000
  H   H78       1.0  0.38113  0.27846  0.59152  1.0000
  H   H79       1.0  0.40705  0.29074  0.54059  1.0000
  C   C98       1.0  0.32551  0.44556  0.48527  1.0000
  H   H80       1.0  0.30264  0.47465  0.41985  1.0000
  H   H81       1.0  0.34262  0.15290  0.35113  1.0000
  C   C99       1.0  0.42806  0.39609  0.61029  1.0000
  C   C100      1.0  0.39760  0.40105  0.62480  1.0000
  C   C101      1.0  0.36973  0.38733  0.61196  1.0000
  C   C102      1.0  0.37216  0.36812  0.58507  1.0000
  C   C103      1.0  0.40249  0.36282  0.57084  1.0000
  C   C104      1.0  0.43024  0.37679  0.58328  1.0000
  C   C105      1.0  0.20218  0.14504  0.48129  1.0000
  C   C106      1.0  0.45384  0.21592  0.57723  1.0000
  C   C107      1.0  0.36167  0.47200  0.57588  1.0000
  H   H82       1.0  0.34630  0.39084  0.62342  1.0000
  H   H83       1.0  0.35069  0.35674  0.57572  1.0000
  H   H84       1.0  0.40458  0.34760  0.55033  1.0000
  H   H85       1.0  0.45350  0.37213  0.57211  1.0000
  H   H86       1.0  0.43738  0.22977  0.40204  1.0000
  C   C108      1.0  0.46557  0.42007  0.39461  1.0000
  S   S15       1.0  0.33550  0.33287  0.34306  1.0000
  C   C109      1.0  0.22421  0.16781  0.47182  1.0000
  H   H87       1.0  0.24080  0.29925  0.49952  1.0000
  H   H88       1.0  0.39856  0.43233  0.52290  1.0000
  H   H89       1.0  0.44515  0.28605  0.61697  1.0000
  H   H90       1.0  0.29717  0.40904  0.46345  1.0000
  H   H91       1.0  0.25472  0.09474  0.52089  1.0000
  H   H92       1.0  0.47522  0.30482  0.57119  1.0000
  H   H93       1.0  0.45449  0.31905  0.48696  1.0000
  C   C110      1.0  0.34160  0.38961  0.48413  1.0000
  Fe  Fe9       1.0  0.33987  0.28037  0.65383  1.0000
  H   H94       1.0  0.44748  0.31834  0.40396  1.0000
  C   C111      1.0  0.47259  0.44943  0.60237  1.0000
  C   C112      1.0  0.48170  0.25633  0.47905  1.0000
  H   H95       1.0  0.41564  0.39802  0.45368  1.0000
  C   C113      1.0  0.37011  0.39627  0.50082  1.0000
  C   C114      1.0  0.41092  0.44303  0.38766  1.0000
  C   C115      1.0  0.42380  0.41039  0.43311  1.0000
  C   C116      1.0  0.36662  0.47522  0.60840  1.0000
  C   C117      1.0  0.37641  0.42758  0.50990  1.0000
  C   C118      1.0  0.45254  0.26941  0.59855  1.0000
  C   C119      1.0  0.47091  0.22635  0.55094  1.0000
  C   C120      1.0  0.23195  0.28997  0.45022  1.0000
  C   C121      1.0  0.45609  0.45540  0.57368  1.0000
  C   C122      1.0  0.43173  0.24406  0.45059  1.0000
  C   C123      1.0  0.49257  0.38106  0.52140  1.0000
  C   C124      1.0  0.46971  0.27990  0.57245  1.0000
  H   H96       1.0  0.39513  0.41519  0.64612  1.0000
  C   C125      1.0  0.23572  0.26801  0.42560  1.0000
  C   C126      1.0  0.46956  0.31999  0.35811  1.0000
  C   C127      1.0  0.46306  0.48221  0.55579  1.0000
  C   C128      1.0  0.25737  0.16463  0.48041  1.0000
  C   C129      1.0  0.26830  0.13789  0.49780  1.0000
  P   P5        1.0  0.28616  0.19343  0.46756  1.0000
  C   C130      1.0  0.31652  0.19879  0.49827  1.0000
  C   C131      1.0  0.30534  0.18001  0.43139  1.0000
  C   C132      1.0  0.32075  0.20187  0.41198  1.0000
  C   C133      1.0  0.33431  0.19200  0.38327  1.0000
  C   C134      1.0  0.33277  0.16024  0.37375  1.0000
  C   C135      1.0  0.31793  0.13820  0.39311  1.0000
  C   C136      1.0  0.30427  0.14799  0.42185  1.0000
  C   C137      1.0  0.30751  0.19768  0.53015  1.0000
  C   C138      1.0  0.33074  0.20209  0.55400  1.0000
  C   C139      1.0  0.36312  0.20765  0.54628  1.0000
  C   C140      1.0  0.37231  0.20894  0.51468  1.0000
  C   C141      1.0  0.34912  0.20463  0.49072  1.0000
  C   C142      1.0  0.26442  0.23101  0.46097  1.0000
  C   C143      1.0  0.44760  0.25391  0.47812  1.0000
  H   H97       1.0  0.43158  0.22953  0.62156  1.0000
  H   H98       1.0  0.29253  0.13059  0.43618  1.0000
  C   C144      1.0  0.44302  0.43864  0.37675  1.0000
  C   C145      1.0  0.25965  0.25280  0.48579  1.0000
  C   C146      1.0  0.31926  0.41422  0.47656  1.0000
  C   C147      1.0  0.35418  0.45258  0.50207  1.0000
  H   H99       1.0  0.29392  0.13457  0.50402  1.0000
  H   H100      1.0  0.32143  0.22681  0.41851  1.0000
  H   H101      1.0  0.34498  0.20931  0.36787  1.0000
  S   S16       1.0  0.43228  0.32306  0.33680  1.0000
  H   H102      1.0  0.37617  0.43178  0.42337  1.0000
  H   H103      1.0  0.31655  0.11362  0.38556  1.0000
  H   H104      1.0  0.28239  0.19409  0.53669  1.0000
  H   H105      1.0  0.32343  0.20227  0.57854  1.0000
  H   H106      1.0  0.38078  0.21200  0.56485  1.0000
  H   H107      1.0  0.39726  0.21397  0.50877  1.0000
  H   H108      1.0  0.35673  0.20630  0.46646  1.0000
  C   C148      1.0  0.49267  0.35299  0.62605  1.0000
  H   H109      1.0  0.40529  0.24354  0.44981  1.0000
  H   H110      1.0  0.22713  0.27405  0.40202  1.0000
  C   C149      1.0  0.21313  0.11880  0.49908  1.0000
  H   H111      1.0  0.26855  0.24734  0.50925  1.0000
  H   H112      1.0  0.43744  0.43981  0.56528  1.0000
  H   H113      1.0  0.41371  0.46422  0.47248  1.0000
  P   P6        1.0  0.46428  0.41449  0.62545  1.0000
  H   H114      1.0  0.44767  0.19114  0.57920  1.0000
  C   C150      1.0  0.31353  0.47505  0.39673  1.0000
  H   H115      1.0  0.21527  0.18781  0.45783  1.0000
  H   H116      1.0  0.38732  0.37694  0.50617  1.0000
  C   C151      1.0  0.44977  0.23633  0.42370  1.0000
  C   C152      1.0  0.45190  0.49498  0.33441  1.0000
  C   C153      1.0  0.47299  0.33144  0.50018  1.0000
  H   H117      1.0  0.39278  0.45597  0.37366  1.0000
  H   H118      1.0  0.44986  0.48703  0.53398  1.0000
  H   H119      1.0  0.43306  0.26062  0.49837  1.0000
  C   C154      1.0  0.40143  0.42925  0.41586  1.0000
  C   C155      1.0  0.46964  0.36448  0.50375  1.0000
  H   H120      1.0  0.34820  0.45194  0.56725  1.0000
  C   C156      1.0  0.47915  0.25842  0.54844  1.0000
  H   H121      1.0  0.35714  0.45782  0.62436  1.0000
  C   C157      1.0  0.24364  0.28223  0.48039  1.0000
  H   H122      1.0  0.44885  0.37702  0.49327  1.0000
  H   H123      1.0  0.25710  0.36217  0.63610  1.0000
  H   H124      1.0  0.47268  0.38985  0.43509  1.0000
  C   C158      1.0  0.45584  0.40581  0.42257  1.0000
  C   C159      1.0  0.33136  0.44731  0.34953  1.0000
  C   C160      1.0  0.24620  0.11518  0.50724  1.0000
  H   H125      1.0  0.30770  0.46399  0.47878  1.0000
  C   C161      1.0  0.25157  0.23853  0.43099  1.0000
  H   H126      1.0  0.17658  0.14774  0.47477  1.0000
  H   H127      1.0  0.33451  0.42552  0.33608  1.0000
  H   H128      1.0  0.25422  0.22194  0.41149  1.0000
  C   C162      1.0  0.47015  0.31778  0.39103  1.0000
  C   C163      1.0  0.44472  0.23745  0.60105  1.0000
  S   S17       1.0  0.28279  0.25268  0.35676  1.0000
  C   C164      1.0  0.33962  0.47664  0.33627  1.0000
  H   H129      1.0  0.44169  0.47465  0.65548  1.0000
  H   H130      1.0  0.42007  0.39128  0.33637  1.0000
  H   H131      1.0  0.23133  0.26574  0.65376  1.0000
  H   H132      1.0  0.19601  0.10121  0.50644  1.0000
  H   H133      1.0  0.25019  0.30685  0.61712  1.0000
  H   H134      1.0  0.24135  0.20038  0.34348  1.0000
  S   S18       1.0  0.37667  0.31838  0.65500  1.0000
  H   H135      1.0  0.48972  0.40662  0.52440  1.0000
  C   C165      1.0  0.48377  0.23784  0.42455  1.0000
  H   H136      1.0  0.47781  0.20945  0.53262  1.0000
  P   P7        1.0  0.45301  0.45201  0.33766  1.0000
  C   C166      1.0  0.49323  0.43605  0.32791  1.0000
  C   C167      1.0  0.24341  0.31340  0.64100  1.0000
  C   C168      1.0  0.24723  0.34457  0.65166  1.0000
  H   H137      1.0  0.49015  0.41513  0.38636  1.0000
  P   P8        1.0  0.36250  0.49318  0.51348  1.0000
  C   C169      1.0  0.37258  0.49528  0.55509  1.0000
  C   C170      1.0  0.41564  0.48972  0.47196  1.0000
  H   H138      1.0  0.45447  0.48761  0.43787  1.0000
  C   C171      1.0  0.99932  0.03136  0.83607  1.0000
  C   C172      1.0  0.19602  0.37547  0.74757  1.0000
  Fe  Fe10      1.0  0.34101  0.27201  0.72637  1.0000
  S   S19       1.0  0.37774  0.31110  0.73235  1.0000
  S   S20       1.0  0.32505  0.24374  0.76989  1.0000
  Fe  Fe11      1.0  0.34772  0.33847  0.69568  1.0000
  S   S21       1.0  0.36854  0.24781  0.68658  1.0000
  H   H139      1.0  0.17248  0.01888  0.89518  1.0000
  C   C173      1.0  0.08252  0.16650  0.98060  1.0000
  S   S22       1.0  0.30965  0.30122  0.69313  1.0000
  H   H140      1.0  0.14022  0.45181  0.75512  1.0000
  Fe  Fe12      1.0  0.17312  0.14681  0.85393  1.0000
  S   S23       1.0  0.15202  0.16128  0.90134  1.0000
  S   S24       1.0  0.19226  0.18156  0.81667  1.0000
  Fe  Fe13      1.0  0.14711  0.07897  0.85955  1.0000
  S   S25       1.0  0.12375  0.08874  0.90628  1.0000
  S   S26       1.0  0.14119  0.03146  0.83455  1.0000
  Fe  Fe14      1.0  0.10687  0.13570  0.88615  1.0000
  S   S27       1.0  0.05743  0.15682  0.90100  1.0000
  Fe  Fe15      1.0  0.17000  0.11314  0.91858  1.0000
  S   S28       1.0  0.19124  0.09840  0.96638  1.0000
  S   S29       1.0  0.12621  0.12422  0.83799  1.0000
  S   S30       1.0  0.19505  0.10032  0.87257  1.0000
  C   C174      1.0  0.44103  0.46554  0.70510  1.0000
  C   C175      1.0  0.05633  0.03529  0.87233  1.0000
  H   H141      1.0  0.15414  0.15686  0.98181  1.0000
  C   C176      1.0  0.19492  0.39268  0.77600  1.0000
  H   H142      1.0  0.20271  0.26819  0.83456  1.0000
  H   H143      1.0  0.14084  0.42082  0.70516  1.0000
  H   H144      1.0  0.00880  0.08309  0.98549  1.0000
  C   C177      1.0  0.36873  0.45821  0.73720  1.0000
  C   C178      1.0  0.02017  0.14653  0.88285  1.0000
  C   C179      1.0  0.01929  0.12679  0.85626  1.0000
  H   H145      1.0  0.38349  0.46030  0.75832  1.0000
  H   H146      1.0  0.04190  0.11774  0.84610  1.0000
  C   C180      1.0  0.28802  0.22581  0.78176  1.0000
  C   C181      1.0  0.25909  0.22821  0.76393  1.0000
  C   C182      1.0  0.23037  0.21408  0.77474  1.0000
  C   C183      1.0  0.22996  0.19731  0.80351  1.0000
  C   C184      1.0  0.25897  0.19470  0.82121  1.0000
  C   C185      1.0  0.28767  0.20892  0.81044  1.0000
  H   H147      1.0  0.25883  0.24099  0.74184  1.0000
  H   H148      1.0  0.20822  0.21624  0.76073  1.0000
  H   H149      1.0  0.25922  0.18200  0.84334  1.0000
  H   H150      1.0  0.30982  0.20682  0.82447  1.0000
  C   C186      1.0  0.33954  0.42521  0.70013  1.0000
  C   C187      1.0  0.36003  0.42791  0.72643  1.0000
  H   H151      1.0  0.36830  0.40676  0.73901  1.0000
  H   H152      1.0  0.45920  0.39418  0.73978  1.0000
  S   S31       1.0  0.45711  0.27366  0.68356  1.0000
  C   C188      1.0  0.44642  0.45703  0.67362  1.0000
  H   H153      1.0  0.17574  0.37215  0.70029  1.0000
  C   C189      1.0  0.15597  0.41297  0.72493  1.0000
  H   H154      1.0  0.46377  0.33059  0.72286  1.0000
  C   C190      1.0  0.17492  0.42017  0.77866  1.0000
  S   S32       1.0  0.32524  0.38811  0.68737  1.0000
  C   C191      1.0  0.22873  0.32965  0.70374  1.0000
  P   P9        1.0  0.22215  0.34021  0.74456  1.0000
  C   C192      1.0  0.20086  0.30993  0.76560  1.0000
  C   C193      1.0  0.26213  0.34773  0.76076  1.0000
  C   C194      1.0  0.27382  0.37880  0.76125  1.0000
  C   C195      1.0  0.30491  0.38461  0.77345  1.0000
  C   C196      1.0  0.32477  0.35943  0.78475  1.0000
  C   C197      1.0  0.31364  0.32838  0.78358  1.0000
  C   C198      1.0  0.28270  0.32244  0.77108  1.0000
  C   C199      1.0  0.17277  0.29693  0.75209  1.0000
  C   C200      1.0  0.15604  0.27342  0.76798  1.0000
  H   H155      1.0  0.24458  0.37659  0.69113  1.0000
  C   C201      1.0  0.24008  0.35266  0.68292  1.0000
  C   C202      1.0  0.21080  0.30030  0.79601  1.0000
  H   H156      1.0  0.21933  0.27941  0.70907  1.0000
  H   H157      1.0  0.25937  0.39853  0.75159  1.0000
  H   H158      1.0  0.31385  0.40859  0.77342  1.0000
  H   H159      1.0  0.34907  0.36384  0.79371  1.0000
  H   H160      1.0  0.32929  0.30870  0.79168  1.0000
  H   H161      1.0  0.27505  0.29806  0.76924  1.0000
  H   H162      1.0  0.21812  0.18237  0.94831  1.0000
  H   H163      1.0  0.43242  0.48950  0.71109  1.0000
  H   H164      1.0  0.08425  0.14595  0.96517  1.0000
  C   C203      1.0  0.04410  0.05002  0.96611  1.0000
  H   H165      1.0  0.00823  0.14860  0.96612  1.0000
  H   H166      1.0  0.46839  0.48725  0.79831  1.0000
  H   H167      1.0  0.12674  0.05414  0.97483  1.0000
  H   H168      1.0  0.23153  0.31064  0.80767  1.0000
  H   H169      1.0  0.20975  0.38493  0.79603  1.0000
  C   C204      1.0  0.10089  0.06012  0.97756  1.0000
  C   C205      1.0  0.45613  0.41185  0.72135  1.0000
  C   C206      1.0  0.09545  0.19500  0.97035  1.0000
  C   C207      1.0  0.09281  0.22233  0.98911  1.0000
  Fe  Fe16      1.0  0.40349  0.28803  0.69092  1.0000
  C   C208      1.0  0.33860  0.48313  0.69412  1.0000
  H   H170      1.0  0.13500  0.26272  0.75711  1.0000
  H   H171      1.0  0.07846  0.03732  0.88629  1.0000
  C   C209      1.0  0.35874  0.48585  0.72071  1.0000
  H   H172      1.0  0.02585  0.05612  0.80045  1.0000
  C   C210      1.0  0.19408  0.27669  0.81176  1.0000
  H   H173      1.0  0.10290  0.24433  0.98102  1.0000
  C   C211      1.0  0.48776  0.32272  0.71495  1.0000
  C   C212      1.0  0.07729  0.04161  0.96297  1.0000
  H   H174      1.0  0.17454  0.43360  0.80054  1.0000
  H   H175      1.0  0.04322  0.02639  0.72725  1.0000
  C   C213      1.0  0.46162  0.40330  0.68991  1.0000
  C   C214      1.0  0.22574  0.29816  0.69307  1.0000
  H   H176      1.0  0.03029  0.01134  0.90826  1.0000
  H   H177      1.0  0.08487  0.02112  0.94892  1.0000
  C   C215      1.0  0.45735  0.42593  0.66591  1.0000
  H   H178      1.0  0.16408  0.30467  0.72908  1.0000
  H   H179      1.0  0.10703  0.19590  0.94749  1.0000
  C   C216      1.0  0.49111  0.29543  0.69613  1.0000
  H   H180      1.0  0.46893  0.37898  0.68436  1.0000
  H   H181      1.0  0.07628  0.05932  0.83247  1.0000
  C   C217      1.0  0.17598  0.38548  0.72219  1.0000
  C   C218      1.0  0.44613  0.44300  0.72895  1.0000
  H   H182      1.0  0.44155  0.44952  0.75328  1.0000
  C   C219      1.0  0.15556  0.43040  0.75309  1.0000
  C   C220      1.0  0.02681  0.04561  0.82374  1.0000
  H   H183      1.0  0.15459  0.24414  0.80959  1.0000
  C   C221      1.0  0.02905  0.02060  0.88462  1.0000
  C   C222      1.0  0.32852  0.45292  0.68429  1.0000
  H   H184      1.0  0.02552  0.03597  0.95511  1.0000
  C   C223      1.0  0.01399  0.00064  0.75990  1.0000
  C   C224      1.0  0.16686  0.26313  0.79769  1.0000
  H   H185      1.0  0.26334  0.14188  0.94840  1.0000
  C   C225      1.0  0.05523  0.04765  0.84187  1.0000
  C   C226      1.0  0.03455  0.07706  0.98333  1.0000
  C   C227      1.0  0.23100  0.17666  0.97013  1.0000
  C   C228      1.0  0.25652  0.15379  0.97020  1.0000
  C   C229      1.0  0.00025  0.01847  0.86665  1.0000
  C   C230      1.0  0.04148  0.00505  0.74134  1.0000
  H   H186      1.0  0.31206  0.45101  0.66431  1.0000
  H   H187      1.0  0.99433  0.01857  0.76015  1.0000
  C   C231      1.0  0.23271  0.29021  0.66170  1.0000
  Fe  Fe17      1.0  0.18408  0.78505  0.20835  1.0000
  S   S33       1.0  0.14017  0.81605  0.22192  1.0000
  S   S34       1.0  0.20031  0.74214  0.23932  1.0000
  Fe  Fe18      1.0  0.18869  0.81831  0.14422  1.0000
  S   S35       1.0  0.14626  0.85176  0.15377  1.0000
  S   S36       1.0  0.21469  0.82426  0.09758  1.0000
  Fe  Fe19      1.0  0.16786  0.85675  0.20213  1.0000
  S   S37       1.0  0.16264  0.90369  0.22874  1.0000
  Fe  Fe20      1.0  0.12152  0.80924  0.17259  1.0000
  S   S38       1.0  0.06974  0.80268  0.15426  1.0000
  S   S39       1.0  0.21305  0.82651  0.19165  1.0000
  S   S40       1.0  0.16284  0.77495  0.15987  1.0000
  H   H188      1.0  0.05227  0.89300  0.26168  1.0000
  C   C232      1.0  0.17659  0.93956  0.21262  1.0000
  H   H189      1.0  0.02590  0.75739  0.23721  1.0000
  C   C233      1.0  0.03477  0.81272  0.17679  1.0000
  C   C234      1.0  0.03723  0.82313  0.20801  1.0000
  C   C235      1.0  0.10695  0.73687  0.24005  1.0000
  H   H190      1.0  0.06109  0.82597  0.21852  1.0000
  C   C236      1.0  0.36105  0.54882  0.16624  1.0000
  C   C237      1.0  0.15884  0.77772  0.03321  1.0000
  C   C238      1.0  0.17086  0.78993  0.06189  1.0000
  C   C239      1.0  0.19759  0.80984  0.06197  1.0000
  C   C240      1.0  0.21155  0.81809  0.03309  1.0000
  H   H191      1.0  0.43451  0.62455  0.27814  1.0000
  H   H192      1.0  0.13882  0.76156  0.03340  1.0000
  H   H193      1.0  0.16003  0.78326  0.08397  1.0000
  H   H194      1.0  0.23231  0.83328  0.03301  1.0000
  C   C241      1.0  0.07563  0.85286  0.28503  1.0000
  C   C242      1.0  0.23409  0.73265  0.26509  1.0000
  C   C243      1.0  0.26069  0.75249  0.26880  1.0000
  H   H195      1.0  0.26113  0.67203  0.31401  1.0000
  H   H196      1.0  0.26088  0.77480  0.25618  1.0000
  C   C244      1.0  0.23675  0.90248  0.11765  1.0000
  H   H197      1.0  0.20880  0.91696  0.17902  1.0000
  C   C245      1.0  0.09938  0.91198  0.09540  1.0000
  H   H198      1.0  0.12533  0.72256  0.22769  1.0000
  H   H199      1.0  0.18552  0.89378  0.11607  1.0000
  H   H200      1.0  0.02128  0.91083  0.30893  1.0000
  H   H201      1.0  0.21421  0.68806  0.27914  1.0000
  H   H202      1.0  0.11065  0.93026  0.18457  1.0000
  H   H203      1.0  0.44471  0.58670  0.32233  1.0000
  H   H204      1.0  0.22336  0.77411  0.32388  1.0000
  C   C246      1.0  0.16474  0.96888  0.22470  1.0000
  C   C247      1.0  0.26117  0.69447  0.30160  1.0000
  C   C248      1.0  0.23454  0.70367  0.28176  1.0000
  C   C249      1.0  0.21458  0.82064  0.30383  1.0000
  C   C250      1.0  0.27783  0.71659  0.19156  1.0000
  C   C251      1.0  0.28356  0.71541  0.15918  1.0000
  C   C252      1.0  0.30273  0.69049  0.14649  1.0000
  C   C253      1.0  0.31604  0.66662  0.16616  1.0000
  C   C254      1.0  0.31023  0.66750  0.19881  1.0000
  C   C255      1.0  0.29121  0.69287  0.21129  1.0000
  C   C256      1.0  0.28727  0.74333  0.28871  1.0000
  C   C257      1.0  0.29568  0.62412  0.25173  1.0000
  C   C258      1.0  0.33977  0.60215  0.20155  1.0000
  P   P10       1.0  0.10502  0.79981  0.31425  1.0000
  C   C259      1.0  0.19654  0.93678  0.09089  1.0000
  C   C260      1.0  0.07953  0.83580  0.31330  1.0000
  P   P11       1.0  0.15499  0.94503  0.07803  1.0000
  C   C261      1.0  0.07749  0.90020  0.11733  1.0000
  C   C262      1.0  0.28098  0.59598  0.29922  1.0000
  C   C263      1.0  0.24788  0.60162  0.29237  1.0000
  C   C264      1.0  0.23853  0.61811  0.26503  1.0000
  C   C265      1.0  0.26228  0.62899  0.24455  1.0000
  H   H205      1.0  0.26267  0.73577  0.20135  1.0000
  H   H206      1.0  0.27294  0.73377  0.14395  1.0000
  H   H207      1.0  0.30705  0.68957  0.12132  1.0000
  H   H208      1.0  0.33043  0.64748  0.15560  1.0000
  H   H209      1.0  0.28619  0.69400  0.23628  1.0000
  C   C266      1.0  0.15462  0.94380  0.01205  1.0000
  H   H210      1.0  0.14738  0.96922  0.24380  1.0000
  C   C267      1.0  0.08158  0.90671  0.14944  1.0000
  H   H211      1.0  0.31737  0.52696  0.18237  1.0000
  H   H212      1.0  0.21285  0.62251  0.25968  1.0000
  H   H213      1.0  0.25438  0.64107  0.22319  1.0000
  C   C268      1.0  0.28783  0.71424  0.30520  1.0000
  H   H214      1.0  0.01580  0.89799  0.04731  1.0000
  H   H215      1.0  0.33035  0.60257  0.28498  1.0000
  H   H216      1.0  0.15112  0.87835  0.05922  1.0000
  C   C269      1.0  0.22190  0.95560  0.08015  1.0000
  H   H217      1.0  0.19825  0.86557  0.28379  1.0000
  C   C270      1.0  0.03762  0.89004  0.31022  1.0000
  H   H218      1.0  0.21666  0.97575  0.06486  1.0000
  C   C271      1.0  0.04353  0.75784  0.02850  1.0000
  C   C272      1.0  0.06691  0.77505  0.04528  1.0000
  C   C273      1.0  0.07312  0.76866  0.07713  1.0000
  C   C274      1.0  0.05624  0.74496  0.09245  1.0000
  C   C275      1.0  0.03357  0.72713  0.07573  1.0000
  C   C276      1.0  0.02741  0.73334  0.04376  1.0000
  C   C277      1.0  0.33179  0.54813  0.18291  1.0000
  P   P12       1.0  0.32663  0.63646  0.22465  1.0000
  C   C278      1.0  0.10726  0.92538  0.15963  1.0000
  C   C279      1.0  0.12946  0.93675  0.13783  1.0000
  H   H219      1.0  0.06758  0.72433  0.20881  1.0000
  H   H220      1.0  0.38376  0.62369  0.18503  1.0000
  C   C280      1.0  0.12610  0.92965  0.10564  1.0000
  C   C281      1.0  0.14615  0.98739  0.07733  1.0000
  H   H221      1.0  0.22749  0.96799  0.15697  1.0000
  C   C282      1.0  0.36908  0.60268  0.18459  1.0000
  H   H222      1.0  0.38711  0.71692  0.28515  1.0000
  C   C283      1.0  0.25427  0.94863  0.08926  1.0000
  C   C284      1.0  0.15004  0.87760  0.00867  1.0000
  C   C285      1.0  0.20504  0.79206  0.31705  1.0000
  C   C286      1.0  0.11610  0.75504  0.26617  1.0000
  H   H223      1.0  0.08073  0.79315  0.03380  1.0000
  H   H224      1.0  0.09115  0.78205  0.09006  1.0000
  H   H225      1.0  0.06105  0.74036  0.11727  1.0000
  H   H226      1.0  0.02097  0.70837  0.08756  1.0000
  C   C287      1.0  0.41432  0.67220  0.28279  1.0000
  H   H227      1.0  0.24028  0.82485  0.30042  1.0000
  H   H228      1.0  0.06538  0.89655  0.16647  1.0000
  H   H229      1.0  0.04149  0.84576  0.06031  1.0000
  H   H230      1.0  0.08862  0.84518  0.26408  1.0000
  H   H231      1.0  0.31482  0.88235  0.03457  1.0000
  H   H232      1.0  0.03777  0.95461  0.19381  1.0000
  H   H233      1.0  0.28821  0.58261  0.32008  1.0000
  C   C288      1.0  0.00369  0.80921  0.16321  1.0000
  C   C289      1.0  0.36109  0.65055  0.24722  1.0000
  C   C290      1.0  0.07450  0.73782  0.22951  1.0000
  H   H234      1.0  0.28671  0.91656  0.11522  1.0000
  C   C291      1.0  0.37966  0.57610  0.16704  1.0000
  C   C292      1.0  0.20433  0.90966  0.10893  1.0000
  C   C293      1.0  0.30484  0.60735  0.27917  1.0000
  H   H235      1.0  0.29838  0.57355  0.21320  1.0000
  H   H236      1.0  0.40234  0.57664  0.15410  1.0000
  C   C294      1.0  0.17187  0.78607  0.32044  1.0000
  H   H237      1.0  0.04180  0.78976  0.28304  1.0000
  H   H238      1.0  0.14928  0.95109  0.14610  1.0000
  H   H239      1.0  0.08234  0.71240  0.00203  1.0000
  H   H240      1.0  0.47925  0.55336  0.28642  1.0000
  C   C295      1.0  0.15226  0.92608  0.03992  1.0000
  C   C296      1.0  0.15092  0.89276  0.03802  1.0000
  C   C297      1.0  0.41423  0.64067  0.27225  1.0000
  C   C298      1.0  0.00476  0.91962  0.20915  1.0000
  C   C299      1.0  0.36136  0.68213  0.25812  1.0000
  H   H241      1.0  0.27365  0.96362  0.08153  1.0000
  C   C300      1.0  0.06026  0.77505  0.27133  1.0000
  C   C301      1.0  0.01528  0.99264  0.06102  1.0000
  H   H242      1.0  0.05779  0.88531  0.10968  1.0000
  C   C302      1.0  0.05107  0.75650  0.24546  1.0000
  C   C303      1.0  0.19926  0.93941  0.18817  1.0000
  C   C304      1.0  0.38779  0.69282  0.27591  1.0000
  H   H243      1.0  0.00168  0.80179  0.13891  1.0000
  C   C305      1.0  0.09307  0.77507  0.28140  1.0000
  C   C306      1.0  0.26167  0.92213  0.10816  1.0000
  C   C307      1.0  0.38751  0.62970  0.25503  1.0000
  C   C308      1.0  0.29838  0.88087  0.01449  1.0000
  H   H244      1.0  0.24246  0.88141  0.13163  1.0000
  C   C309      1.0  0.20984  0.96834  0.17579  1.0000
  H   H245      1.0  0.09551  0.90689  0.07067  1.0000
  C   C310      1.0  0.32110  0.57469  0.20045  1.0000
  C   C311      1.0  0.05497  0.87997  0.28358  1.0000
  H   H246      1.0  0.34089  0.69846  0.25388  1.0000
  H   H247      1.0  0.02275  0.90015  0.20783  1.0000
  H   H248      1.0  0.15778  0.96927  0.01284  1.0000
  H   H249      1.0  0.01083  0.83565  0.25044  1.0000
  H   H250      1.0  0.14022  0.85595  0.29050  1.0000
  C   C312      1.0  0.01293  0.95051  0.20075  1.0000
  H   H251      1.0  0.14879  0.85192  0.00736  1.0000
  C   C313      1.0  0.00880  0.82846  0.22600  1.0000
  H   H252      1.0  0.10510  0.98425  0.04507  1.0000
  H   H253      1.0  0.25637  0.89879  0.04020  1.0000
  H   H254      1.0  0.14140  0.75404  0.27364  1.0000
  H   H255      1.0  0.38735  0.60483  0.24836  1.0000
  C   C314      1.0  0.26551  0.89029  0.01768  1.0000
  H   H256      1.0  0.03587  0.99116  0.14171  1.0000
  H   H257      1.0  0.36929  0.52818  0.15271  1.0000
  H   H258      1.0  0.30769  0.75887  0.29123  1.0000
  C   C315      1.0  0.01529  0.84957  0.06266  1.0000
  C   C316      1.0  0.19899  0.80653  0.00434  1.0000
  H   H259      1.0  0.43453  0.68045  0.29699  1.0000
  H   H260      1.0  0.01029  0.71889  0.03095  1.0000
  H   H261      1.0  0.22954  0.59310  0.30824  1.0000
  H   H262      1.0  0.09348  0.99437  0.12537  1.0000
  C   C317      1.0  0.14785  0.80882  0.31091  1.0000
  C   C318      1.0  0.15774  0.83781  0.29825  1.0000
  C   C319      1.0  0.19094  0.84352  0.29450  1.0000
  C   C320      1.0  0.46621  0.54238  0.30542  1.0000
  H   H263      1.0  0.00799  0.80231  0.08014  1.0000
  C   C321      1.0  0.01381  0.97665  0.00609  1.0000
  C   C322      1.0  0.99642  0.82495  0.07368  1.0000
  C   C323      1.0  0.02641  0.99568  0.03013  1.0000
  C   C324      1.0  0.00051  0.87914  0.05517  1.0000
  C   C325      1.0  0.17285  0.78594  0.00434  1.0000
  C   C326      1.0  0.46864  0.50940  0.30971  1.0000
  H   H264      1.0  0.21864  0.89478  0.99458  1.0000
  C   C327      1.0  0.17526  0.99782  0.21229  1.0000
  C   C328      1.0  0.19781  0.99766  0.18771  1.0000
  C   C329      1.0  0.44684  0.56120  0.32557  1.0000
  Fe  Fe21      1.0  0.34610  0.58724  0.36414  1.0000
  S   S41       1.0  0.37724  0.62519  0.34393  1.0000
  C   C330      1.0  0.39868  0.69456  0.55969  1.0000
  Fe  Fe22      1.0  0.33115  0.62620  0.42338  1.0000
  S   S42       1.0  0.36106  0.66687  0.40745  1.0000
  S   S43       1.0  0.30414  0.62624  0.46998  1.0000
  Fe  Fe23      1.0  0.33709  0.65988  0.35956  1.0000
  H   H265      1.0  0.30656  0.78659  0.55161  1.0000
  Fe  Fe24      1.0  0.39819  0.62892  0.39284  1.0000
  S   S44       1.0  0.45128  0.62677  0.40964  1.0000
  S   S45       1.0  0.30455  0.62146  0.37666  1.0000
  S   S46       1.0  0.36941  0.58876  0.41200  1.0000
  S   S47       1.0  0.38359  0.61141  0.59955  1.0000
  H   H266      1.0  0.06425  0.83333  0.36208  1.0000
  H   H267      1.0  0.46099  0.56505  0.62523  1.0000
  C   C331      1.0  0.44079  0.67604  0.59637  1.0000
  C   C332      1.0  0.30024  0.70352  0.53556  1.0000
  C   C333      1.0  0.09945  0.77874  0.35074  1.0000
  H   H268      1.0  0.08825  0.73369  0.42972  1.0000
  C   C334      1.0  0.31849  0.52800  0.47572  1.0000
  C   C335      1.0  0.07428  0.73702  0.38068  1.0000
  H   H269      1.0  0.31478  0.84448  0.55329  1.0000
  C   C336      1.0  0.32623  0.62267  0.50606  1.0000
  C   C337      1.0  0.30928  0.62105  0.53472  1.0000
  C   C338      1.0  0.32630  0.61789  0.56369  1.0000
  C   C339      1.0  0.36049  0.61624  0.56419  1.0000
  C   C340      1.0  0.37735  0.61785  0.53553  1.0000
  C   C341      1.0  0.36037  0.62138  0.50667  1.0000
  H   H270      1.0  0.28285  0.62209  0.53447  1.0000
  H   H271      1.0  0.31299  0.61640  0.58553  1.0000
  H   H272      1.0  0.40377  0.61642  0.53564  1.0000
  H   H273      1.0  0.37369  0.62283  0.48482  1.0000
  H   H274      1.0  0.29423  0.76890  0.61387  1.0000
  H   H275      1.0  0.36301  0.74987  0.51386  1.0000
  C   C342      1.0  0.28777  0.69675  0.50556  1.0000
  C   C343      1.0  0.11219  0.77190  0.40647  1.0000
  H   H276      1.0  0.38066  0.55838  0.50077  1.0000
  H   H277      1.0  0.42249  0.58148  0.46710  1.0000
  H   H278      1.0  0.31875  0.52613  0.39694  1.0000
  C   C344      1.0  0.32744  0.72277  0.53890  1.0000
  H   H279      1.0  0.26237  0.55441  0.54491  1.0000
  H   H280      1.0  0.33410  0.52123  0.45614  1.0000
  H   H281      1.0  0.40287  0.82894  0.60775  1.0000
  C   C345      1.0  0.29414  0.74430  0.62116  1.0000
  C   C346      1.0  0.42813  0.67778  0.56569  1.0000
  H   H282      1.0  0.13248  0.80795  0.37746  1.0000
  C   C347      1.0  0.44153  0.53603  0.45083  1.0000
  C   C348      1.0  0.43896  0.50296  0.45238  1.0000
  C   C349      1.0  0.32630  0.51799  0.50653  1.0000
  C   C350      1.0  0.30568  0.52734  0.53145  1.0000
  C   C351      1.0  0.38195  0.81961  0.59537  1.0000
  C   C352      1.0  0.32781  0.79554  0.56376  1.0000
  C   C353      1.0  0.31473  0.68963  0.61788  1.0000
  H   H283      1.0  0.12540  0.77909  0.42745  1.0000
  C   C354      1.0  0.38256  0.50152  0.62053  1.0000
  C   C355      1.0  0.42093  0.55580  0.46885  1.0000
  C   C356      1.0  0.29050  0.54705  0.46993  1.0000
  P   P13       1.0  0.34388  0.73211  0.57739  1.0000
  Fe  Fe25      1.0  0.36880  0.61365  0.65142  1.0000
  H   H284      1.0  0.39579  0.54097  0.55254  1.0000
  H   H285      1.0  0.45893  0.54664  0.43527  1.0000
  H   H286      1.0  0.16503  0.76331  0.32977  1.0000
  C   C357      1.0  0.35039  0.77444  0.57859  1.0000
  C   C358      1.0  0.29308  0.68111  0.64148  1.0000
  C   C359      1.0  0.34189  0.73512  0.51180  1.0000
  H   H287      1.0  0.48713  0.54677  0.38478  1.0000
  C   C360      1.0  0.48444  0.63512  0.35347  1.0000
  H   H288      1.0  0.33113  0.67152  0.60794  1.0000
  H   H289      1.0  0.26742  0.68106  0.50297  1.0000
  C   C361      1.0  0.11622  0.78813  0.37810  1.0000
  H   H290      1.0  0.02762  0.88089  0.35906  1.0000
  H   H291      1.0  0.36282  0.86587  0.58139  1.0000
  C   C362      1.0  0.38175  0.70986  0.58443  1.0000
  H   H292      1.0  0.24922  0.57220  0.49037  1.0000
  C   C363      1.0  0.27209  0.70411  0.65498  1.0000
  C   C364      1.0  0.09127  0.74633  0.40776  1.0000
  H   H293      1.0  0.49175  0.52406  0.55252  1.0000
  C   C365      1.0  0.35939  0.84041  0.58054  1.0000
  H   H294      1.0  0.39530  0.77123  0.60615  1.0000
  H   H295      1.0  0.05804  0.71720  0.38168  1.0000
  C   C366      1.0  0.32965  0.72784  0.48182  1.0000
  C   C367      1.0  0.39455  0.50947  0.48988  1.0000
  H   H296      1.0  0.31112  0.52024  0.55548  1.0000
  C   C368      1.0  0.27261  0.73567  0.64484  1.0000
  C   C369      1.0  0.27778  0.54657  0.52556  1.0000
  C   C370      1.0  0.27023  0.55645  0.49484  1.0000
  H   H297      1.0  0.46312  0.66237  0.60110  1.0000
  C   C371      1.0  0.42989  0.54708  0.34993  1.0000
  H   H298      1.0  0.40483  0.54571  0.60957  1.0000
  H   H299      1.0  0.41447  0.56166  0.36518  1.0000
  C   C372      1.0  0.33234  0.82837  0.56472  1.0000
  C   C373      1.0  0.39735  0.54262  0.48802  1.0000
  H   H300      1.0  0.28505  0.55546  0.44626  1.0000
  C   C374      1.0  0.39465  0.70793  0.61520  1.0000
  C   C375      1.0  0.31545  0.72133  0.60757  1.0000
  H   H301      1.0  0.25655  0.75345  0.65572  1.0000
  C   C376      1.0  0.32256  0.50424  0.38378  1.0000
  H   H302      1.0  0.38175  0.71906  0.63477  1.0000
  H   H303      1.0  0.44067  0.66542  0.54665  1.0000
  C   C377      1.0  0.48582  0.56471  0.63439  1.0000
  H   H304      1.0  0.34138  0.73660  0.46090  1.0000
  C   C378      1.0  0.48645  0.62885  0.38583  1.0000
  H   H305      1.0  0.29294  0.65677  0.64986  1.0000
  C   C379      1.0  0.06213  0.84616  0.34006  1.0000
  H   H306      1.0  0.38898  0.69467  0.53590  1.0000
  C   C380      1.0  0.30263  0.70860  0.47871  1.0000
  C   C381      1.0  0.42412  0.69120  0.62109  1.0000
  H   H307      1.0  0.28888  0.69318  0.55586  1.0000
  C   C382      1.0  0.37752  0.78676  0.59443  1.0000
  H   H308      1.0  0.29370  0.70208  0.45548  1.0000
  C   C383      1.0  0.39355  0.52471  0.60008  1.0000
  C   C384      1.0  0.38841  0.52181  0.56754  1.0000
  C   C385      1.0  0.07829  0.75316  0.35225  1.0000
  H   H309      1.0  0.43366  0.68953  0.64498  1.0000
  C   C386      1.0  0.43227  0.51416  0.35435  1.0000
  H   H310      1.0  0.46078  0.63917  0.34239  1.0000
  C   C387      1.0  0.33524  0.50518  0.35332  1.0000
  S   S48       1.0  0.34484  0.54160  0.33542  1.0000
  S   S49       1.0  0.32250  0.70390  0.32954  1.0000
  H   H311      1.0  0.06492  0.74553  0.33158  1.0000
  C   C388      1.0  0.48664  0.50316  0.56629  1.0000
  H   H312      1.0  0.38548  0.50445  0.64584  1.0000
  H   H313      1.0  0.41826  0.50413  0.37306  1.0000
  C   C389      1.0  0.04123  0.87316  0.33845  1.0000
  Fe  Fe26      1.0  0.36572  0.57125  0.71047  1.0000
  S   S50       1.0  0.36730  0.61342  0.74327  1.0000
  S   S51       1.0  0.37247  0.52296  0.73423  1.0000
  C   C390      1.0  0.06491  0.95463  0.75956  1.0000
  S   S52       1.0  0.37057  0.65883  0.68033  1.0000
  Fe  Fe27      1.0  0.40615  0.63117  0.71127  1.0000
  S   S53       1.0  0.45354  0.64814  0.73248  1.0000
  Fe  Fe28      1.0  0.33130  0.63760  0.71023  1.0000
  S   S54       1.0  0.28378  0.66326  0.72677  1.0000
  H   H314      1.0  0.02257  0.97886  0.98217  1.0000
  H   H315      1.0  0.18988  0.96832  0.92131  1.0000
  Fe  Fe29      1.0  0.20347  0.78962  0.85680  1.0000
  S   S55       1.0  0.17171  0.83060  0.83803  1.0000
  S   S56       1.0  0.25012  0.76921  0.83290  1.0000
  Fe  Fe30      1.0  0.16711  0.78982  0.92055  1.0000
  S   S57       1.0  0.13293  0.82965  0.90592  1.0000
  C   C391      1.0  0.99725  0.91664  0.91485  1.0000
  Fe  Fe31      1.0  0.12985  0.80457  0.85947  1.0000
  S   S58       1.0  0.08138  0.79897  0.83364  1.0000
  Fe  Fe32      1.0  0.17673  0.85275  0.88620  1.0000
  S   S59       1.0  0.18531  0.90304  0.90360  1.0000
  S   S60       1.0  0.16119  0.76228  0.87512  1.0000
  S   S61       1.0  0.21141  0.81416  0.90384  1.0000
  C   C392      1.0  0.04263  0.81824  0.88351  1.0000
  C   C393      1.0  0.04363  0.80636  0.85275  1.0000
  C   C394      1.0  0.01407  0.80019  0.83704  1.0000
  H   H316      1.0  0.06501  0.82340  0.89579  1.0000
  H   H317      1.0  0.25238  0.75175  0.96589  1.0000
  C   C395      1.0  0.17454  0.93830  0.88292  1.0000
  C   C396      1.0  0.16115  0.93779  0.85246  1.0000
  H   H318      1.0  0.15766  0.91527  0.84067  1.0000
  C   C397      1.0  0.25869  0.73899  0.80389  1.0000
  C   C398      1.0  0.23408  0.72379  0.78700  1.0000
  C   C399      1.0  0.24227  0.70070  0.76371  1.0000
  C   C400      1.0  0.27511  0.69212  0.75709  1.0000
  C   C401      1.0  0.29972  0.70713  0.77417  1.0000
  C   C402      1.0  0.29154  0.73044  0.79724  1.0000
  H   H319      1.0  0.20873  0.72999  0.79167  1.0000
  H   H320      1.0  0.22297  0.68934  0.75075  1.0000
  H   H321      1.0  0.32507  0.70098  0.76942  1.0000
  H   H322      1.0  0.31086  0.74200  0.80999  1.0000
  C   C403      1.0  0.03899  0.85791  0.76834  1.0000
  C   C404      1.0  0.07604  0.85190  0.96858  1.0000
  C   C405      1.0  0.36776  0.83028  0.93253  1.0000
  H   H323      1.0  0.02034  0.90352  0.91687  1.0000
  H   H324      1.0  0.26609  0.80810  0.96731  1.0000
  H   H325      1.0  0.25129  0.94173  0.86871  1.0000
  C   C406      1.0  0.28095  0.86806  0.89060  1.0000
  H   H326      1.0  0.30715  0.73859  0.88057  1.0000
  H   H327      1.0  0.23363  0.91100  0.82201  1.0000
  C   C407      1.0  0.47674  0.55469  0.73704  1.0000
  C   C408      1.0  0.27572  0.79331  0.94845  1.0000
  C   C409      1.0  0.99608  0.94770  0.90303  1.0000
  H   H328      1.0  0.08513  0.93743  0.75935  1.0000
  H   H329      1.0  0.34150  0.89712  0.89311  1.0000
  H   H330      1.0  0.09248  0.80296  0.96924  1.0000
  P   P14       1.0  0.03499  0.91501  0.80275  1.0000
  C   C410      1.0  0.05572  0.92219  0.83978  1.0000
  C   C411      1.0  0.15424  0.92844  0.98271  1.0000
  C   C412      1.0  0.09174  0.73343  0.91366  1.0000
  C   C413      1.0  0.25441  0.86646  0.83905  1.0000
  H   H331      1.0  0.15682  0.94193  0.96118  1.0000
  C   C414      1.0  0.05007  0.87368  0.97335  1.0000
  C   C415      1.0  0.41338  0.85985  0.91353  1.0000
  C   C416      1.0  0.06399  0.89644  0.85954  1.0000
  C   C417      1.0  0.08160  0.90110  0.88745  1.0000
  C   C418      1.0  0.09208  0.93135  0.89542  1.0000
  C   C419      1.0  0.08448  0.95706  0.87564  1.0000
  C   C420      1.0  0.06626  0.95265  0.84794  1.0000
  C   C421      1.0  0.05626  0.88159  0.78422  1.0000
  H   H332      1.0  0.27574  0.82567  0.86180  1.0000
  H   H333      1.0  0.06153  0.97286  0.83261  1.0000
  C   C422      1.0  0.08978  0.82883  0.75749  1.0000
  C   C423      1.0  0.10715  0.85230  0.77312  1.0000
  C   C424      1.0  0.09051  0.87850  0.78657  1.0000
  C   C425      1.0  0.26804  0.76113  0.94789  1.0000
  H   H334      1.0  0.24636  0.85279  0.81884  1.0000
  S   S62       1.0  0.40700  0.58764  0.68099  1.0000
  H   H335      1.0  0.04229  0.81297  0.74371  1.0000
  H   H336      1.0  0.41834  0.81600  0.93956  1.0000
  C   C426      1.0  0.15189  0.89539  0.98105  1.0000
  C   C427      1.0  0.39160  0.88262  0.90054  1.0000
  H   H337      1.0  0.00665  0.74197  0.92784  1.0000
  C   C428      1.0  0.25541  0.87568  0.96323  1.0000
  H   H338      1.0  0.05757  0.87256  0.85281  1.0000
  H   H339      1.0  0.08794  0.88106  0.90237  1.0000
  H   H340      1.0  0.10737  0.93459  0.91611  1.0000
  C   C429      1.0  0.35788  0.87925  0.90346  1.0000
  C   C430      1.0  0.24738  0.89917  0.84077  1.0000
  C   C431      1.0  0.10717  0.70132  0.95896  1.0000
  C   C432      1.0  0.44984  0.55470  0.75706  1.0000
  H   H341      1.0  0.10264  0.80797  0.74812  1.0000
  H   H342      1.0  0.13346  0.84964  0.77566  1.0000
  H   H343      1.0  0.10440  0.89602  0.79927  1.0000
  C   C433      1.0  0.03718  0.94981  0.77799  1.0000
  C   C434      1.0  0.07179  0.81935  0.97272  1.0000
  H   H344      1.0  0.28110  0.91484  0.91237  1.0000
  C   C435      1.0  0.01265  0.82266  0.89887  1.0000
  C   C436      1.0  0.06702  0.98217  0.74136  1.0000
  C   C437      1.0  0.06521  0.74333  0.96401  1.0000
  C   C438      1.0  0.06941  0.75081  0.93213  1.0000
  C   C439      1.0  0.48523  0.64730  0.67527  1.0000
  C   C440      1.0  0.01957  0.86283  0.98207  1.0000
  H   H345      1.0  0.47466  0.53564  0.67405  1.0000
  H   H346      1.0  0.35895  0.80989  0.94507  1.0000
  C   C441      1.0  0.11083  0.70882  0.92712  1.0000
  H   H347      1.0  0.43148  0.57388  0.75578  1.0000
  H   H348      1.0  0.12891  0.69602  0.91300  1.0000
  C   C442      1.0  0.27945  0.74140  0.92350  1.0000
  C   C443      1.0  0.05575  0.83165  0.75508  1.0000
  H   H349      1.0  0.99919  0.87952  0.98543  1.0000
  S   S63       1.0  0.32701  0.59376  0.67879  1.0000
  C   C444      1.0  0.08436  0.71840  0.97738  1.0000
  H   H350      1.0  0.09420  0.98012  0.88096  1.0000
  H   H351      1.0  0.25575  0.69751  0.67368  1.0000
  H   H352      1.0  0.27262  0.71672  0.92245  1.0000
  P   P15       1.0  0.03585  0.76615  0.98730  1.0000
  H   H353      1.0  0.47915  0.57462  0.72117  1.0000
  H   H354      1.0  0.43950  0.86242  0.91110  1.0000
  H   H355      1.0  0.42516  0.52995  0.79365  1.0000
  H   H356      1.0  0.15263  0.88340  0.95837  1.0000
  C   C445      1.0  0.15178  0.96659  0.83747  1.0000
  C   C446      1.0  0.17895  0.96769  0.89801  1.0000
  H   H357      1.0  0.14103  0.96612  0.81408  1.0000
  H   H358      1.0  0.01857  0.95827  0.89632  1.0000
  H   H359      1.0  0.01262  0.85912  0.76669  1.0000
  C   C447      1.0  0.29907  0.75369  0.89999  1.0000
  C   C448      1.0  0.30684  0.78584  0.90051  1.0000
  C   C449      1.0  0.29449  0.80615  0.92428  1.0000
  H   H360      1.0  0.01228  0.83136  0.92274  1.0000
  P   P16       1.0  0.30220  0.84832  0.92317  1.0000
  C   C450      1.0  0.27409  0.90105  0.89193  1.0000
  C   C451      1.0  0.34569  0.85298  0.91939  1.0000
  C   C452      1.0  0.28844  0.86625  0.95976  1.0000
  C   C453      1.0  0.44649  0.53006  0.77866  1.0000
  H   H361      1.0  0.40082  0.90285  0.88803  1.0000
  S   S64       1.0  0.15744  0.76940  0.96901  1.0000
  C   C454      1.0  0.40146  0.83371  0.92955  1.0000
  C   C455      1.0  0.25745  0.91650  0.86709  1.0000
  C   C456      1.0  0.27122  0.85101  0.86374  1.0000
  H   H362      1.0  0.32147  0.79504  0.88166  1.0000
  H   H363      1.0  0.23819  0.87312  0.94386  1.0000
  H   H364      1.0  0.01460  0.79134  0.81305  1.0000
  H   H365      1.0  0.12260  0.68278  0.96954  1.0000
  C   C457      1.0  0.30986  0.86890  0.98564  1.0000
  H   H366      1.0  0.46196  0.64164  0.66472  1.0000
  H   H367      1.0  0.20972  0.81320  0.98223  1.0000
  C   C458      1.0  0.48780  0.65132  0.70792  1.0000
  H   H368      1.0  0.08865  0.98588  0.72745  1.0000
  H   H369      1.0  0.09956  0.86005  0.96143  1.0000
  H   H370      1.0  0.09453  0.73946  0.88899  1.0000
  H   H371      1.0  0.05359  0.89887  0.97005  1.0000
  H   H372      1.0  0.05526  0.77005  0.92148  1.0000
  H   H373      1.0  0.99923  0.88624  0.85550  1.0000
  C   C459      1.0  0.01216  0.97353  0.77874  1.0000
  H   H374      1.0  0.33525  0.86123  0.98384  1.0000
  C   C460      1.0  0.04118  0.80820  0.98131  1.0000
  C   C461      1.0  0.47064  0.50587  0.78096  1.0000
  C   C462      1.0  0.01514  0.83025  0.98621  1.0000
  H   H375      1.0  0.33027  0.50430  0.68159  1.0000
  C   C463      1.0  0.16927  0.99639  0.88320  1.0000
  C   C464      1.0  0.24414  0.88787  0.99200  1.0000
  C   C465      1.0  0.15549  0.99595  0.85293  1.0000
  C   C466      1.0  0.99452  0.75672  0.97568  1.0000
  C   C467      1.0  0.49358  0.54847  0.66235  1.0000
  C   C468      1.0  0.74697  0.36479  0.29158  1.0000
  C   C469      1.0  0.86174  0.04715  0.05431  1.0000
  C   C470      1.0  0.96296  0.22968  0.27225  1.0000
  H   H376      1.0  0.92104  0.01997  0.10609  1.0000
  H   H377      1.0  0.68054  0.15724  0.24559  1.0000
  H   H378      1.0  0.85492  0.06129  0.29023  1.0000
  Fe  Fe33      1.0  0.83723  0.15516  0.21788  1.0000
  S   S65       1.0  0.88687  0.13209  0.22851  1.0000
  S   S66       1.0  0.81760  0.18475  0.26022  1.0000
  Fe  Fe34      1.0  0.83609  0.12421  0.15182  1.0000
  S   S67       1.0  0.88493  0.09944  0.15824  1.0000
  S   S68       1.0  0.80898  0.11218  0.10634  1.0000
  Fe  Fe35      1.0  0.86750  0.08770  0.20649  1.0000
  S   S69       1.0  0.88197  0.03994  0.22790  1.0000
  Fe  Fe36      1.0  0.90075  0.14538  0.17947  1.0000
  S   S70       1.0  0.94966  0.16410  0.16419  1.0000
  S   S71       1.0  0.81711  0.10911  0.19931  1.0000
  S   S72       1.0  0.85275  0.17180  0.16966  1.0000
  C   C471      1.0  0.83389  0.00700  0.19668  1.0000
  H   H379      1.0  0.72377  0.06606  0.19927  1.0000
  C   C472      1.0  0.86013  0.00577  0.21804  1.0000
  H   H380      1.0  0.73369  0.08122  0.14401  1.0000
  H   H381      1.0  0.96328  0.12614  0.22038  1.0000
  H   H382      1.0  0.93889  0.22555  0.28156  1.0000
  H   H383      1.0  0.93375  0.15573  0.05797  1.0000
  C   C473      1.0  0.95002  0.15354  0.03794  1.0000
  H   H384      1.0  0.82644  0.02940  0.18588  1.0000
  C   C474      1.0  0.86905  0.06051  0.02520  1.0000
  H   H385      1.0  0.83691  0.11779  0.29840  1.0000
  C   C475      1.0  0.84499  0.15182  0.06921  1.0000
  C   C476      1.0  0.82234  0.12768  0.07006  1.0000
  C   C477      1.0  0.80965  0.11598  0.04151  1.0000
  H   H386      1.0  0.66467  0.08894  0.22412  1.0000
  H   H387      1.0  0.85465  0.16129  0.09103  1.0000
  H   H388      1.0  0.79191  0.09754  0.04183  1.0000
  C   C478      1.0  0.72839  0.24695  0.29352  1.0000
  C   C479      1.0  0.73232  0.23955  0.26129  1.0000
  C   C480      1.0  0.75922  0.22057  0.25061  1.0000
  C   C481      1.0  0.78251  0.20831  0.27211  1.0000
  C   C482      1.0  0.77862  0.21579  0.30433  1.0000
  H   H389      1.0  0.65544  0.38950  0.27845  1.0000
  H   H390      1.0  0.71445  0.24867  0.24439  1.0000
  H   H391      1.0  0.76213  0.21581  0.22571  1.0000
  H   H392      1.0  0.99081  0.13689  0.06582  1.0000
  H   H393      1.0  0.81622  0.02278  0.26833  1.0000
  C   C483      1.0  0.81692  0.38358  0.29324  1.0000
  C   C484      1.0  0.85439  0.16449  0.04012  1.0000
  C   C485      1.0  0.97742  0.03477  0.16350  1.0000
  C   C486      1.0  0.84214  0.15245  0.01153  1.0000
  C   C487      1.0  0.80179  0.29219  0.22517  1.0000
  C   C488      1.0  0.82305  0.26848  0.23726  1.0000
  C   C489      1.0  0.83251  0.43015  0.26386  1.0000
  C   C490      1.0  0.67556  0.02594  0.29038  1.0000
  C   C491      1.0  0.80168  0.31922  0.27599  1.0000
  C   C492      1.0  0.79140  0.31767  0.24433  1.0000
  H   H394      1.0  0.93135  0.07629  0.09349  1.0000
  C   C493      1.0  0.80794  0.04710  0.27296  1.0000
  H   H395      1.0  0.75985  0.04019  0.25436  1.0000
  C   C494      1.0  0.81984  0.12797  0.01233  1.0000
  C   C495      1.0  0.49719  0.40528  0.31505  1.0000
  C   C496      1.0  0.86861  0.40834  0.30444  1.0000
  C   C497      1.0  0.64877  0.02504  0.26974  1.0000
  H   H396      1.0  0.74637  0.13683  0.13085  1.0000
  P   P17       1.0  0.78866  0.35247  0.30047  1.0000
  C   C498      1.0  0.95615  0.07115  0.26427  1.0000
  C   C499      1.0  0.72914  0.05362  0.07062  1.0000
  C   C500      1.0  0.69165  0.35111  0.27686  1.0000
  C   C501      1.0  0.83422  0.27040  0.26841  1.0000
  H   H397      1.0  0.75050  0.17719  0.17336  1.0000
  C   C502      1.0  0.70327  0.40533  0.29127  1.0000
  H   H398      1.0  0.79304  0.29054  0.20104  1.0000
  H   H399      1.0  0.83043  0.24822  0.22274  1.0000
  C   C503      1.0  0.98628  0.13177  0.20977  1.0000
  H   H400      1.0  0.78047  0.04752  0.06424  1.0000
  H   H401      1.0  0.77500  0.33589  0.23455  1.0000
  C   C504      1.0  0.95513  0.01781  0.14517  1.0000
  H   H402      1.0  0.78042  0.13528  0.28575  1.0000
  C   C505      1.0  0.64499  0.04777  0.24588  1.0000
  C   C506      1.0  0.82394  0.29587  0.28763  1.0000
  H   H403      1.0  0.74149  0.16219  0.22876  1.0000
  C   C507      1.0  0.97679  0.20837  0.25042  1.0000
  C   C508      1.0  0.68104  0.38269  0.28153  1.0000
  C   C509      1.0  0.93882  0.03271  0.11975  1.0000
  H   H404      1.0  0.67431  0.33325  0.27022  1.0000
  C   C510      1.0  0.69839  0.04068  0.06645  1.0000
  H   H405      1.0  0.85021  0.25159  0.27780  1.0000
  H   H406      1.0  0.78835  0.40526  0.25527  1.0000
  H   H407      1.0  0.79644  0.20660  0.32125  1.0000
  C   C511      1.0  0.55594  0.41042  0.31504  1.0000
  C   C512      1.0  0.73599  0.39635  0.29694  1.0000
  H   H408      1.0  0.62401  0.04733  0.23013  1.0000
  C   C513      1.0  0.94469  0.06444  0.11253  1.0000
  H   H409      1.0  0.82713  0.44781  0.24582  1.0000
  H   H410      1.0  0.87164  0.05713  0.07586  1.0000
  H   H411      1.0  0.87100  0.18395  0.03989  1.0000
  H   H412      1.0  0.53140  0.36877  0.29902  1.0000
  H   H413      1.0  0.73209  0.31749  0.27873  1.0000
  C   C514      1.0  0.83950  0.02265  0.05592  1.0000
  H   H414      1.0  0.91427  0.17222  0.00485  1.0000
  C   C515      1.0  0.82981  0.06884  0.28534  1.0000
  C   C516      1.0  0.81968  0.10055  0.29005  1.0000
  C   C517      1.0  0.78755  0.11042  0.28283  1.0000
  C   C518      1.0  0.76524  0.08861  0.27103  1.0000
  C   C519      1.0  0.77592  0.05703  0.26530  1.0000
  P   P18       1.0  0.72503  0.10235  0.25849  1.0000
  C   C520      1.0  0.70988  0.13497  0.28272  1.0000
  C   C521      1.0  0.72973  0.11364  0.21785  1.0000
  C   C522      1.0  0.73815  0.14476  0.21031  1.0000
  C   C523      1.0  0.74354  0.15322  0.17898  1.0000
  C   C524      1.0  0.74129  0.13045  0.15503  1.0000
  C   C525      1.0  0.73396  0.09911  0.16246  1.0000
  C   C526      1.0  0.72832  0.09066  0.19378  1.0000
  H   H415      1.0  0.63081  0.00688  0.27238  1.0000
  H   H416      1.0  0.96340  0.18786  0.24266  1.0000
  C   C527      1.0  0.86150  0.43135  0.28144  1.0000
  H   H417      1.0  0.97091  0.10621  0.12568  1.0000
  C   C528      1.0  0.69555  0.07175  0.26258  1.0000
  C   C529      1.0  0.66818  0.07119  0.24242  1.0000
  C   C530      1.0  0.72449  0.34221  0.28179  1.0000
  H   H418      1.0  0.88477  0.08073  0.02409  1.0000
  H   H419      1.0  0.93493  0.08713  0.26608  1.0000
  C   C531      1.0  0.75462  0.00709  0.04543  1.0000
  C   C532      1.0  0.52845  0.39261  0.30865  1.0000
  H   H420      1.0  0.69480  0.42969  0.29532  1.0000
  H   H421      1.0  0.83301  0.29696  0.31165  1.0000
  C   C533      1.0  0.96423  0.05757  0.23509  1.0000
  C   C534      1.0  0.68821  0.15828  0.27005  1.0000
  H   H422      1.0  0.87855  0.45001  0.27709  1.0000
  H   H423      1.0  0.94883  0.06329  0.21487  1.0000
  H   H424      1.0  0.58019  0.40047  0.31026  1.0000
  H   H425      1.0  0.75241  0.41395  0.30596  1.0000
  C   C535      1.0  0.98015  0.25626  0.28194  1.0000
  C   C536      1.0  0.93888  0.16277  0.00802  1.0000
  S   S73       1.0  0.69310  0.27012  0.30551  1.0000
  H   H426      1.0  0.96941  0.27273  0.29893  1.0000
  C   C537      1.0  0.96689  0.08135  0.13068  1.0000
  C   C538      1.0  0.81043  0.40616  0.26949  1.0000
  H   H427      1.0  0.73442  0.11837  0.32539  1.0000
  C   C539      1.0  0.69874  0.04938  0.28702  1.0000
  H   H428      1.0  0.73145  0.07680  0.08163  1.0000
  C   C540      1.0  0.83218  0.02464  0.99921  1.0000
  C   C541      1.0  0.85462  0.04895  0.99763  1.0000
  C   C542      1.0  0.98235  0.14256  0.04218  1.0000
  C   C543      1.0  0.75715  0.03684  0.06041  1.0000
  C   C544      1.0  0.97499  0.06371  0.29103  1.0000
  C   C545      1.0  0.84653  0.38436  0.31017  1.0000
  C   C546      1.0  0.68592  0.18534  0.32058  1.0000
  C   C547      1.0  0.82384  0.01176  0.02848  1.0000
  C   C548      1.0  0.71846  0.13650  0.31485  1.0000
  C   C549      1.0  0.98331  0.06652  0.15594  1.0000
  H   H429      1.0  0.67670  0.05381  0.07428  1.0000
  H   H430      1.0  0.66081  0.20218  0.27885  1.0000
  C   C550      1.0  0.67657  0.18352  0.28888  1.0000
  H   H431      1.0  0.96868  0.07435  0.31357  1.0000
  H   H432      1.0  0.71907  0.05006  0.30351  1.0000
  H   H433      1.0  0.49887  0.32089  0.31624  1.0000
  H   H434      1.0  0.67834  0.00851  0.30906  1.0000
  C   C551      1.0  0.75175  0.23480  0.31500  1.0000
  C   C552      1.0  0.69566  0.01085  0.05214  1.0000
  H   H435      1.0  0.83263  0.01390  0.07884  1.0000
  C   C553      1.0  0.99129  0.03636  0.23248  1.0000
  C   C554      1.0  0.98640  0.14965  0.18205  1.0000
  H   H436      1.0  0.89127  0.40905  0.31779  1.0000
  H   H437      1.0  0.85256  0.36643  0.32776  1.0000
  H   H438      1.0  0.67184  0.00075  0.04896  1.0000
  Fe  Fe37      1.0  0.68436  0.32629  0.41566  1.0000
  S   S74       1.0  0.63846  0.35645  0.41338  1.0000
  S   S75       1.0  0.71525  0.32679  0.46043  1.0000
  Fe  Fe38      1.0  0.65383  0.36904  0.36464  1.0000
  S   S76       1.0  0.70232  0.34262  0.36822  1.0000
  S   S77       1.0  0.66131  0.28218  0.39661  1.0000
  Fe  Fe39      1.0  0.66018  0.32012  0.63760  1.0000
  H   H439      1.0  0.73920  0.47625  0.36769  1.0000
  S   S78       1.0  0.64155  0.30396  0.58974  1.0000
  C   C555      1.0  0.52975  0.31206  0.39072  1.0000
  S   S79       1.0  0.56652  0.30394  0.41182  1.0000
  C   C556      1.0  0.64719  0.48204  0.34582  1.0000
  C   C557      1.0  0.64747  0.47909  0.43386  1.0000
  H   H440      1.0  0.60717  0.39582  0.47013  1.0000
  H   H441      1.0  0.74886  0.23964  0.33990  1.0000
  C   C558      1.0  0.54362  0.25845  0.51609  1.0000
  C   C559      1.0  0.69488  0.32024  0.49642  1.0000
  C   C560      1.0  0.66101  0.31714  0.49711  1.0000
  C   C561      1.0  0.64524  0.31214  0.52593  1.0000
  C   C562      1.0  0.66292  0.31064  0.55437  1.0000
  C   C563      1.0  0.69682  0.31375  0.55380  1.0000
  C   C564      1.0  0.71276  0.31841  0.52487  1.0000
  H   H442      1.0  0.64692  0.31863  0.47545  1.0000
  H   H443      1.0  0.61902  0.31011  0.52634  1.0000
  H   H444      1.0  0.71075  0.31216  0.57556  1.0000
  H   H445      1.0  0.73900  0.32065  0.52454  1.0000
  Fe  Fe40      1.0  0.61604  0.31393  0.39100  1.0000
  H   H446      1.0  0.54246  0.31896  0.54414  1.0000
  H   H447      1.0  0.68189  0.23151  0.61759  1.0000
  H   H448      1.0  0.58112  0.38098  0.61548  1.0000
  H   H449      1.0  0.63505  0.22992  0.51777  1.0000
  H   H450      1.0  0.59710  0.21109  0.55848  1.0000
  H   H451      1.0  0.50037  0.31192  0.43264  1.0000
  H   H452      1.0  0.71580  0.48575  0.64089  1.0000
  H   H453      1.0  0.77379  0.43983  0.42663  1.0000
  C   C565      1.0  0.56995  0.41074  0.40327  1.0000
  C   C566      1.0  0.57957  0.44191  0.40873  1.0000
  S   S80       1.0  0.62859  0.32813  0.34183  1.0000
  C   C567      1.0  0.56567  0.26995  0.49404  1.0000
  C   C568      1.0  0.79166  0.35573  0.39708  1.0000
  C   C569      1.0  0.73704  0.46874  0.49313  1.0000
  H   H454      1.0  0.53596  0.42043  0.61848  1.0000
  C   C570      1.0  0.77650  0.30259  0.38195  1.0000
  C   C571      1.0  0.78309  0.32497  0.40542  1.0000
  H   H455      1.0  0.53639  0.37722  0.54983  1.0000
  C   C572      1.0  0.52108  0.45350  0.33502  1.0000
  H   H456      1.0  0.57774  0.39817  0.38208  1.0000
  H   H457      1.0  0.59429  0.45337  0.39124  1.0000
  H   H458      1.0  0.51402  0.30548  0.62514  1.0000
  Fe  Fe41      1.0  0.67637  0.29999  0.34873  1.0000
  C   C573      1.0  0.75863  0.44046  0.44746  1.0000
  H   H459      1.0  0.55189  0.31410  0.34496  1.0000
  H   H460      1.0  0.76872  0.27911  0.38842  1.0000
  C   C574      1.0  0.52925  0.31546  0.35792  1.0000
  C   C575      1.0  0.57044  0.45804  0.43651  1.0000
  C   C576      1.0  0.69534  0.44998  0.35967  1.0000
  H   H461      1.0  0.65300  0.43100  0.47999  1.0000
  H   H462      1.0  0.54119  0.45532  0.47879  1.0000
  C   C577      1.0  0.55224  0.44084  0.32818  1.0000
  C   C578      1.0  0.68084  0.48455  0.43186  1.0000
  C   C579      1.0  0.75718  0.46767  0.46659  1.0000
  C   C580      1.0  0.54039  0.41184  0.45232  1.0000
  H   H463      1.0  0.79603  0.37317  0.41536  1.0000
  C   C581      1.0  0.54998  0.44306  0.45793  1.0000
  H   H464      1.0  0.57368  0.45434  0.33348  1.0000
  C   C582      1.0  0.50016  0.31398  0.40724  1.0000
  C   C583      1.0  0.50323  0.49737  0.59475  1.0000
  H   H465      1.0  0.55764  0.28727  0.47653  1.0000
  C   C584      1.0  0.49921  0.31928  0.34169  1.0000
  H   H466      1.0  0.61471  0.26706  0.47616  1.0000
  C   C585      1.0  0.79372  0.36411  0.36526  1.0000
  H   H467      1.0  0.54341  0.37136  0.42090  1.0000
  C   C586      1.0  0.59815  0.25870  0.49392  1.0000
  H   H468      1.0  0.70708  0.42692  0.36386  1.0000
  C   C587      1.0  0.58810  0.22707  0.54016  1.0000
  H   H469      1.0  0.52516  0.40002  0.46896  1.0000
  C   C588      1.0  0.66211  0.45210  0.35161  1.0000
  H   H470      1.0  0.67406  0.46989  0.59681  1.0000
  C   C589      1.0  0.55045  0.34070  0.61938  1.0000
  H   H471      1.0  0.78060  0.31871  0.43006  1.0000
  C   C590      1.0  0.55056  0.39563  0.42513  1.0000
  C   C591      1.0  0.67022  0.22525  0.63947  1.0000
  H   H472      1.0  0.78385  0.38953  0.62489  1.0000
  H   H473      1.0  0.79920  0.38835  0.35922  1.0000
  C   C592      1.0  0.61713  0.39803  0.49377  1.0000
  C   C593      1.0  0.60473  0.38012  0.51829  1.0000
  C   C594      1.0  0.61845  0.38209  0.54855  1.0000
  C   C595      1.0  0.64507  0.40145  0.55415  1.0000
  C   C596      1.0  0.65837  0.41859  0.52927  1.0000
  C   C597      1.0  0.64347  0.41761  0.49935  1.0000
  P   P19       1.0  0.69332  0.44293  0.53565  1.0000
  C   C598      1.0  0.72087  0.42621  0.56502  1.0000
  C   C599      1.0  0.71804  0.44266  0.50056  1.0000
  H   H474      1.0  0.67742  0.20538  0.33487  1.0000
  C   C600      1.0  0.70674  0.16178  0.33360  1.0000
  S   S81       1.0  0.63849  0.41809  0.34695  1.0000
  C   C601      1.0  0.74042  0.41410  0.45520  1.0000
  C   C602      1.0  0.72063  0.41499  0.48188  1.0000
  C   C603      1.0  0.72562  0.39311  0.56717  1.0000
  C   C604      1.0  0.74836  0.37993  0.58860  1.0000
  C   C605      1.0  0.76695  0.39978  0.60764  1.0000
  C   C606      1.0  0.76296  0.43284  0.60506  1.0000
  C   C607      1.0  0.74005  0.44603  0.58378  1.0000
  H   H475      1.0  0.52594  0.24908  0.45141  1.0000
  C   C608      1.0  0.77861  0.31090  0.35015  1.0000
  H   H476      1.0  0.73717  0.47160  0.58227  1.0000
  C   C609      1.0  0.60952  0.23761  0.51723  1.0000
  H   H477      1.0  0.77674  0.44820  0.62038  1.0000
  C   C610      1.0  0.71348  0.47785  0.36164  1.0000
  C   C611      1.0  0.49953  0.31468  0.51422  1.0000
  H   H478      1.0  0.58544  0.36373  0.51349  1.0000
  H   H479      1.0  0.60971  0.36717  0.56725  1.0000
  H   H480      1.0  0.65589  0.40210  0.57758  1.0000
  C   C612      1.0  0.78789  0.34149  0.34156  1.0000
  C   C613      1.0  0.53042  0.39559  0.61964  1.0000
  H   H481      1.0  0.53909  0.22865  0.55742  1.0000
  H   H482      1.0  0.71408  0.16338  0.35815  1.0000
  H   H483      1.0  0.74154  0.39277  0.44068  1.0000
  H   H484      1.0  0.70754  0.39386  0.48791  1.0000
  H   H485      1.0  0.71175  0.37755  0.55222  1.0000
  H   H486      1.0  0.75133  0.35431  0.59068  1.0000
  H   H487      1.0  0.51886  0.47675  0.34604  1.0000
  C   C614      1.0  0.55633  0.37317  0.61778  1.0000
  C   C615      1.0  0.51890  0.36454  0.53564  1.0000
  S   S82       1.0  0.71082  0.32966  0.65488  1.0000
  C   C616      1.0  0.67710  0.48167  0.54719  1.0000
  H   H488      1.0  0.63928  0.45534  0.42929  1.0000
  H   H489      1.0  0.69755  0.46516  0.42556  1.0000
  H   H490      1.0  0.57068  0.32335  0.61823  1.0000
  C   C617      1.0  0.55518  0.23721  0.53949  1.0000
  C   C618      1.0  0.52238  0.33149  0.53215  1.0000
  H   H491      1.0  0.73643  0.48982  0.50781  1.0000
  H   H492      1.0  0.62177  0.22781  0.61949  1.0000
  C   C619      1.0  0.51858  0.33065  0.62331  1.0000
  H   H493      1.0  0.50835  0.46734  0.63540  1.0000
  H   H494      1.0  0.77208  0.29378  0.33225  1.0000
  H   H495      1.0  0.62171  0.48389  0.33905  1.0000
  C   C620      1.0  0.49589  0.47094  0.61297  1.0000
  H   H496      1.0  0.77145  0.48803  0.46064  1.0000
  C   C621      1.0  0.66957  0.48794  0.57893  1.0000
  P   P20       1.0  0.50117  0.27167  0.51436  1.0000
  C   C622      1.0  0.63627  0.22314  0.64057  1.0000
  H   H497      1.0  0.59391  0.47557  0.50597  1.0000
  C   C623      1.0  0.49973  0.24760  0.45208  1.0000
  C   C624      1.0  0.49823  0.38573  0.62351  1.0000
  H   H498      1.0  0.49780  0.23250  0.40350  1.0000
  S   S83       1.0  0.63923  0.36677  0.65483  1.0000
  Fe  Fe42      1.0  0.69641  0.30642  0.70069  1.0000
  S   S84       1.0  0.67830  0.35299  0.72230  1.0000
  S   S85       1.0  0.73388  0.26928  0.72068  1.0000
  H   H499      1.0  0.71346  0.13137  0.80609  1.0000
  H   H500      1.0  0.62152  0.45489  0.67355  1.0000
  H   H501      1.0  0.82076  0.01701  0.97753  1.0000
  C   C625      1.0  0.61391  0.24281  0.75443  1.0000
  Fe  Fe43      1.0  0.80423  0.15285  0.86508  1.0000
  S   S86       1.0  0.82848  0.10786  0.84560  1.0000
  S   S87       1.0  0.76125  0.18322  0.84400  1.0000
  Fe  Fe44      1.0  0.84330  0.14733  0.92769  1.0000
  S   S88       1.0  0.87110  0.10336  0.91229  1.0000
  S   S89       1.0  0.85503  0.16897  0.97551  1.0000
  Fe  Fe45      1.0  0.87519  0.12729  0.86559  1.0000
  S   S90       1.0  0.92221  0.11969  0.83830  1.0000
  Fe  Fe46      1.0  0.82299  0.08693  0.89401  1.0000
  S   S91       1.0  0.81224  0.03735  0.91124  1.0000
  S   S92       1.0  0.85159  0.17344  0.88213  1.0000
  S   S93       1.0  0.79462  0.12987  0.91233  1.0000
  H   H502      1.0  0.95081  0.16810  0.95911  1.0000
  S   S94       1.0  0.58103  0.35239  0.72366  1.0000
  C   C626      1.0  0.55163  0.49089  0.70171  1.0000
  C   C627      1.0  0.95958  0.13070  0.85560  1.0000
  C   C628      1.0  0.96043  0.15056  0.88210  1.0000
  C   C629      1.0  0.67170  0.49078  0.72120  1.0000
  H   H503      1.0  0.93782  0.15986  0.89210  1.0000
  H   H504      1.0  0.79467  0.21405  0.95974  1.0000
  C   C630      1.0  0.58064  0.27890  0.78681  1.0000
  H   H505      1.0  0.51293  0.36084  0.73815  1.0000
  H   H506      1.0  0.78054  0.44644  0.69990  1.0000
  H   H507      1.0  0.85955  0.05981  0.97503  1.0000
  C   C631      1.0  0.58372  0.48757  0.69033  1.0000
  C   C632      1.0  0.75471  0.20732  0.80963  1.0000
  C   C633      1.0  0.72935  0.23084  0.80969  1.0000
  C   C634      1.0  0.72244  0.24986  0.78286  1.0000
  C   C635      1.0  0.74078  0.24562  0.75535  1.0000
  C   C636      1.0  0.76621  0.22217  0.75533  1.0000
  C   C637      1.0  0.77305  0.20306  0.78214  1.0000
  H   H508      1.0  0.71491  0.23441  0.83072  1.0000
  H   H509      1.0  0.70333  0.26814  0.78375  1.0000
  H   H510      1.0  0.78067  0.21860  0.73431  1.0000
  H   H511      1.0  0.79229  0.18483  0.78142  1.0000
  C   C638      1.0  0.54681  0.32986  0.71317  1.0000
  C   C639      1.0  0.98907  0.11924  0.84249  1.0000
  H   H512      1.0  0.57404  0.29431  0.68679  1.0000
  C   C640      1.0  0.63959  0.21194  0.69688  1.0000
  C   C641      1.0  0.52382  0.19240  0.71250  1.0000
  H   H513      1.0  0.87731  0.06064  0.82178  1.0000
  C   C642      1.0  0.67991  0.46081  0.70800  1.0000
  C   C643      1.0  0.59656  0.45754  0.68173  1.0000
  C   C644      1.0  0.88487  0.01208  0.80637  1.0000
  C   C645      1.0  0.77796  0.47190  0.70389  1.0000
  H   H514      1.0  0.67484  0.43927  0.72071  1.0000
  S   S95       1.0  0.64680  0.29388  0.68148  1.0000
  C   C646      1.0  0.63874  0.26501  0.75471  1.0000
  H   H515      1.0  0.91975  0.38485  0.88147  1.0000
  C   C647      1.0  0.87265  0.19868  0.80103  1.0000
  C   C648      1.0  0.90574  0.19464  0.80886  1.0000
  C   C649      1.0  0.92013  0.21524  0.83045  1.0000
  C   C650      1.0  0.90165  0.24050  0.84355  1.0000
  C   C651      1.0  0.86875  0.24560  0.83463  1.0000
  C   C652      1.0  0.85413  0.22385  0.81417  1.0000
  P   P21       1.0  0.84421  0.27700  0.85265  1.0000
  C   C653      1.0  0.86852  0.31077  0.86221  1.0000
  C   C654      1.0  0.81288  0.29242  0.82603  1.0000
  C   C655      1.0  0.78402  0.30666  0.83800  1.0000
  C   C656      1.0  0.75986  0.31892  0.81744  1.0000
  C   C657      1.0  0.76459  0.31754  0.78486  1.0000
  C   C658      1.0  0.79358  0.30414  0.77282  1.0000
  C   C659      1.0  0.81780  0.29188  0.79329  1.0000
  C   C660      1.0  0.89378  0.31945  0.84212  1.0000
  C   C661      1.0  0.91230  0.34597  0.84918  1.0000
  C   C662      1.0  0.90538  0.36430  0.87603  1.0000
  C   C663      1.0  0.87972  0.35626  0.89570  1.0000
  C   C664      1.0  0.86116  0.32972  0.88871  1.0000
  C   C665      1.0  0.82731  0.25943  0.88733  1.0000
  C   C666      1.0  0.84597  0.25703  0.91522  1.0000
  C   C667      1.0  0.83382  0.24136  0.94145  1.0000
  C   C668      1.0  0.80337  0.22734  0.93979  1.0000
  C   C669      1.0  0.78493  0.22917  0.91193  1.0000
  C   C670      1.0  0.79688  0.24508  0.88577  1.0000
  H   H516      1.0  0.86118  0.18184  0.78538  1.0000
  H   H517      1.0  0.92001  0.17490  0.79896  1.0000
  H   H518      1.0  0.94545  0.21107  0.83749  1.0000
  H   H519      1.0  0.91294  0.25565  0.86092  1.0000
  H   H520      1.0  0.82828  0.22605  0.80881  1.0000
  H   H521      1.0  0.78002  0.30802  0.86318  1.0000
  H   H522      1.0  0.73724  0.32908  0.82670  1.0000
  H   H523      1.0  0.74555  0.32619  0.76881  1.0000
  H   H524      1.0  0.79681  0.30253  0.74750  1.0000
  H   H525      1.0  0.84011  0.28172  0.78343  1.0000
  H   H526      1.0  0.89911  0.30576  0.82096  1.0000
  C   C671      1.0  0.58121  0.18701  0.72782  1.0000
  C   C672      1.0  0.54531  0.43398  0.69472  1.0000
  H   H527      1.0  0.87410  0.37066  0.91633  1.0000
  H   H528      1.0  0.84102  0.32412  0.90389  1.0000
  H   H529      1.0  0.87026  0.26641  0.91647  1.0000
  C   C673      1.0  0.51558  0.33979  0.72354  1.0000
  H   H530      1.0  0.93541  0.09171  0.98540  1.0000
  H   H531      1.0  0.76192  0.21720  0.91013  1.0000
  H   H532      1.0  0.78282  0.24510  0.86402  1.0000
  C   C674      1.0  0.63430  0.29410  0.77044  1.0000
  C   C675      1.0  0.60504  0.30131  0.78596  1.0000
  C   C676      1.0  0.54634  0.14135  0.72979  1.0000
  C   C677      1.0  0.53223  0.46402  0.70281  1.0000
  H   H533      1.0  0.56638  0.23225  0.77351  1.0000
  H   H534      1.0  0.70119  0.11653  0.75058  1.0000
  C   C678      1.0  0.67757  0.16991  0.80701  1.0000
  C   C679      1.0  0.65416  0.18772  0.78978  1.0000
  H   H535      1.0  0.65340  0.31126  0.77027  1.0000
  H   H536      1.0  0.60117  0.32438  0.79706  1.0000
  C   C680      1.0  0.91314  0.03568  0.85061  1.0000
  H   H537      1.0  0.92617  0.03403  0.99252  1.0000
  C   C681      1.0  0.57749  0.43074  0.68439  1.0000
  H   H538      1.0  0.68344  0.17649  0.83112  1.0000
  H   H539      1.0  0.64197  0.20789  0.80108  1.0000
  C   C682      1.0  0.95384  0.08575  0.93833  1.0000
  H   H540      1.0  0.59467  0.21564  0.66926  1.0000
  Fe  Fe47      1.0  0.62963  0.34145  0.69999  1.0000
  H   H541      1.0  0.93198  0.35237  0.83374  1.0000
  C   C683      1.0  0.89050  0.03824  0.82583  1.0000
  C   C684      1.0  0.57697  0.15466  0.73425  1.0000
  H   H542      1.0  0.66154  0.25996  0.74268  1.0000
  C   C685      1.0  0.64760  0.18005  0.75810  1.0000
  P   P22       1.0  0.62025  0.20504  0.73444  1.0000
  C   C686      1.0  0.93593  0.04248  0.97057  1.0000
  H   H543      1.0  0.65983  0.14772  0.71977  1.0000
  C   C687      1.0  0.52244  0.28508  0.68648  1.0000
  H   H544      1.0  0.52519  0.26398  0.67194  1.0000
  H   H545      1.0  0.54311  0.11643  0.73499  1.0000
  H   H546      1.0  0.59707  0.13973  0.74297  1.0000
  C   C688      1.0  0.69615  0.45888  0.67915  1.0000
  H   H547      1.0  0.58764  0.40730  0.67888  1.0000
  H   H548      1.0  0.97006  0.07352  0.89184  1.0000
  H   H549      1.0  0.91704  0.05637  0.86521  1.0000
  C   C689      1.0  0.94237  0.02107  0.94587  1.0000
  C   C690      1.0  0.55015  0.30232  0.69473  1.0000
  H   H550      1.0  0.55797  0.28446  0.79894  1.0000
  C   C691      1.0  0.67377  0.21395  0.69541  1.0000
  C   C692      1.0  0.62097  0.21643  0.66909  1.0000
  H   H551      1.0  0.68881  0.21142  0.71648  1.0000
  C   C693      1.0  0.66430  0.15388  0.74423  1.0000
  C   C694      1.0  0.58530  0.24948  0.77171  1.0000
  C   C695      1.0  0.95459  0.03193  0.91708  1.0000
  C   C696      1.0  0.93093  0.00702  0.85568  1.0000
  C   C697      1.0  0.69457  0.14438  0.79286  1.0000
  C   C698      1.0  0.55438  0.20570  0.71682  1.0000
  H   H552      1.0  0.53085  0.41295  0.69697  1.0000
  C   C699      1.0  0.68775  0.13618  0.76156  1.0000
  C   C700      1.0  0.94128  0.07488  0.96668  1.0000
  H   H553      1.0  0.50317  0.20724  0.70444  1.0000
  H   H554      1.0  0.95777  0.11084  0.93506  1.0000
  H   H555      1.0  0.55701  0.23078  0.71206  1.0000
  H   H556      1.0  0.49599  0.15000  0.71587  1.0000
  C   C701      1.0  0.96066  0.06442  0.91373  1.0000
  H   H557      1.0  0.71522  0.22302  0.66630  1.0000
  C   C702      1.0  0.51978  0.16021  0.71899  1.0000
  H   H558      1.0  0.66033  0.49217  0.74411  1.0000
  Fe  Fe48      1.0  0.68871  0.37497  0.67531  1.0000
  C   C703      1.0  0.75888  0.48348  0.72882  1.0000
  H   H559      1.0  0.76120  0.01266  0.97496  1.0000
  C   C704      1.0  0.68895  0.22050  0.66685  1.0000
  H   H560      1.0  0.99125  0.17461  0.91550  1.0000
  H   H561      1.0  0.50721  0.46609  0.71034  1.0000
  H   H562      1.0  0.84854  0.23883  0.96273  1.0000
  H   H563      1.0  0.81630  0.02479  0.84340  1.0000
  H   H564      1.0  0.98849  0.10436  0.82166  1.0000
  H   H565      1.0  0.51644  0.48721  0.76347  1.0000
  C   C705      1.0  0.82134  0.00264  0.88891  1.0000
  C   C706      1.0  0.82087  0.00270  0.85593  1.0000
  H   H566      1.0  0.97724  0.03149  0.82187  1.0000
  H   H567      1.0  0.74683  0.46700  0.74411  1.0000
  C   C707      1.0  0.95971  0.16062  0.98219  1.0000
  C   C708      1.0  0.79247  0.49313  0.68338  1.0000
  H   H568      1.0  0.86673  0.01400  0.78764  1.0000
  H   H569      1.0  0.81006  0.11861  0.99051  1.0000
  C   C709      1.0  0.99199  0.14946  0.98624  1.0000
  P   P23       1.0  0.96339  0.00475  0.88481  1.0000
  C   C710      1.0  0.99066  0.15869  0.89544  1.0000
  C   C711      1.0  0.70281  0.48702  0.66297  1.0000
  H   H570      1.0  0.80673  0.48379  0.66385  1.0000
  S   S96       1.0  0.71113  0.42215  0.66395  1.0000
  Fe  Fe49      1.0  0.82587  0.79625  0.21008  1.0000
  S   S97       1.0  0.87485  0.78411  0.18803  1.0000
  S   S98       1.0  0.79381  0.75483  0.22519  1.0000
  Fe  Fe50      1.0  0.83236  0.86720  0.19533  1.0000
  S   S99       1.0  0.88136  0.86040  0.17276  1.0000
  S   S100      1.0  0.80569  0.91529  0.19321  1.0000
  Fe  Fe51      1.0  0.86028  0.81795  0.14898  1.0000
  S   S101      1.0  0.87877  0.80710  0.09956  1.0000
  Fe  Fe52      1.0  0.89282  0.82737  0.21292  1.0000
  S   S102      1.0  0.94269  0.82926  0.23646  1.0000
  S   S103      1.0  0.80998  0.82689  0.16842  1.0000
  S   S104      1.0  0.84509  0.83752  0.23817  1.0000
  C   C712      1.0  0.82684  0.94986  0.20312  1.0000
  H   H571      1.0  0.60101  0.79304  0.28991  1.0000
  C   C713      1.0  0.85304  0.94872  0.22451  1.0000
  H   H572      1.0  0.75900  0.69841  0.23909  1.0000
  H   H573      1.0  0.86039  0.92635  0.23546  1.0000
  C   C714      1.0  0.85828  0.81694  0.06393  1.0000
  C   C715      1.0  0.87494  0.81193  0.03548  1.0000
  C   C716      1.0  0.97773  0.82382  0.21273  1.0000
  C   C717      1.0  0.55897  0.82468  0.29162  1.0000
  C   C718      1.0  0.81028  0.83480  0.03399  1.0000
  C   C719      1.0  0.82598  0.82875  0.06317  1.0000
  H   H574      1.0  0.90011  0.80342  0.03616  1.0000
  H   H575      1.0  0.56154  0.83230  0.26740  1.0000
  H   H576      1.0  0.78511  0.84353  0.03354  1.0000
  H   H577      1.0  0.81294  0.83278  0.08499  1.0000
  C   C720      1.0  0.82020  0.74168  0.04107  1.0000
  C   C721      1.0  0.82964  0.93441  0.05521  1.0000
  C   C722      1.0  0.88470  0.96498  0.11627  1.0000
  H   H578      1.0  0.95140  0.81146  0.17046  1.0000
  C   C723      1.0  0.92707  0.93461  0.08838  1.0000
  C   C724      1.0  0.98941  0.97564  0.20251  1.0000
  C   C725      1.0  0.87953  0.59366  0.06680  1.0000
  C   C726      1.0  0.75958  0.71232  0.26059  1.0000
  C   C727      1.0  0.77557  0.74153  0.26081  1.0000
  C   C728      1.0  0.77609  0.75914  0.28892  1.0000
  C   C729      1.0  0.98989  0.95474  0.01286  1.0000
  H   H579      1.0  0.94814  0.81119  0.08688  1.0000
  H   H580      1.0  0.91796  0.59921  0.10126  1.0000
  H   H581      1.0  0.78819  0.78163  0.28957  1.0000
  C   C730      1.0  0.81708  0.97914  0.18949  1.0000
  C   C731      1.0  0.86930  0.97670  0.23224  1.0000
  H   H582      1.0  0.88451  0.56836  0.06366  1.0000
  H   H583      1.0  0.66953  0.68945  0.25627  1.0000
  H   H584      1.0  0.62165  0.66824  0.28378  1.0000
  C   C732      1.0  0.58135  0.80235  0.30452  1.0000
  C   C733      1.0  0.85404  0.60886  0.04995  1.0000
  C   C734      1.0  0.89197  0.64369  0.09211  1.0000
  C   C735      1.0  0.86676  0.65924  0.07485  1.0000
  C   C736      1.0  0.84752  0.64148  0.05407  1.0000
  P   P24       1.0  0.85744  0.70115  0.08081  1.0000
  C   C737      1.0  0.82479  0.70615  0.10898  1.0000
  C   C738      1.0  0.89365  0.71954  0.09611  1.0000
  C   C739      1.0  0.89908  0.72142  0.12885  1.0000
  C   C740      1.0  0.92790  0.73399  0.14079  1.0000
  H   H585      1.0  0.83919  0.59532  0.03378  1.0000
  H   H586      1.0  0.88898  0.97589  0.24944  1.0000
  C   C741      1.0  0.91760  0.73026  0.07558  1.0000
  C   C742      1.0  0.81841  0.73608  0.12286  1.0000
  C   C743      1.0  0.79370  0.73999  0.14517  1.0000
  C   C744      1.0  0.77554  0.71410  0.15425  1.0000
  C   C745      1.0  0.78165  0.68424  0.14057  1.0000
  C   C746      1.0  0.80611  0.68024  0.11793  1.0000
  C   C747      1.0  0.84567  0.71853  0.04319  1.0000
  C   C748      1.0  0.80222  0.95459  0.06059  1.0000
  C   C749      1.0  0.61450  0.70969  0.31327  1.0000
  C   C750      1.0  0.95793  0.96942  0.21329  1.0000
  C   C751      1.0  0.97350  0.91378  0.22011  1.0000
  C   C752      1.0  0.62591  0.73970  0.32174  1.0000
  C   C753      1.0  0.94788  0.85926  0.06978  1.0000
  H   H587      1.0  0.90664  0.65660  0.10889  1.0000
  H   H588      1.0  0.82736  0.65284  0.04119  1.0000
  H   H589      1.0  0.88113  0.71321  0.14531  1.0000
  H   H590      1.0  0.93167  0.73591  0.16607  1.0000
  H   H591      1.0  0.68917  0.74297  0.27001  1.0000
  C   C754      1.0  0.97523  0.81475  0.18104  1.0000
  H   H592      1.0  0.91406  0.72912  0.05035  1.0000
  H   H593      1.0  0.83272  0.75637  0.11666  1.0000
  H   H594      1.0  0.78905  0.76295  0.15616  1.0000
  H   H595      1.0  0.75716  0.71721  0.17238  1.0000
  H   H596      1.0  0.76769  0.66415  0.14789  1.0000
  H   H597      1.0  0.81053  0.65683  0.10792  1.0000
  C   C755      1.0  0.96276  0.82985  0.07732  1.0000
  C   C756      1.0  0.96656  0.88415  0.05835  1.0000
  C   C757      1.0  0.74499  0.71837  0.31604  1.0000
  C   C758      1.0  0.86103  0.70782  0.01538  1.0000
  H   H598      1.0  0.80809  0.75089  0.06188  1.0000
  H   H599      1.0  0.88077  0.69003  0.01633  1.0000
  H   H600      1.0  0.97382  0.75433  0.12959  1.0000
  H   H601      1.0  0.96462  0.75136  0.07182  1.0000
  H   H602      1.0  0.79038  0.77140  0.01017  1.0000
  C   C759      1.0  0.91786  0.92407  0.02028  1.0000
  C   C760      1.0  0.82662  0.82879  0.00544  1.0000
  H   H603      1.0  0.73259  0.67816  0.28735  1.0000
  H   H604      1.0  0.79671  0.98018  0.17305  1.0000
  C   C761      1.0  0.65699  0.70369  0.27406  1.0000
  C   C762      1.0  0.74455  0.70072  0.28797  1.0000
  C   C763      1.0  0.93710  0.92069  0.11713  1.0000
  H   H605      1.0  0.72114  0.97094  0.03073  1.0000
  H   H606      1.0  0.84374  0.93683  0.03402  1.0000
  H   H607      1.0  0.91600  0.76333  0.00222  1.0000
  C   C764      1.0  0.72365  0.99406  0.04175  1.0000
  C   C765      1.0  0.90102  0.95726  0.08826  1.0000
  C   C766      1.0  0.63011  0.69174  0.28963  1.0000
  P   P25       1.0  0.79048  0.98478  0.03201  1.0000
  C   C767      1.0  0.76085  0.74765  0.31626  1.0000
  P   P26       1.0  0.94759  0.92324  0.05226  1.0000
  H   H608      1.0  0.51575  0.85414  0.29973  1.0000
  C   C768      1.0  0.65261  0.75179  0.30552  1.0000
  H   H609      1.0  0.93964  0.98858  0.21555  1.0000
  C   C769      1.0  0.66804  0.73384  0.28182  1.0000
  H   H610      1.0  0.95008  0.99335  0.15059  1.0000
  C   C770      1.0  0.89841  0.61105  0.08794  1.0000
  H   H611      1.0  0.86411  0.98184  0.11628  1.0000
  C   C771      1.0  0.83852  0.91052  0.07684  1.0000
  C   C772      1.0  0.92053  0.92830  0.14488  1.0000
  H   H612      1.0  0.96732  0.89004  0.22720  1.0000
  H   H613      1.0  0.82757  0.88890  0.12143  1.0000
  H   H614      1.0  0.92602  0.93380  0.23094  1.0000
  C   C773      1.0  0.78442  0.95114  0.08847  1.0000
  C   C774      1.0  0.80996  0.75343  0.01168  1.0000
  H   H615      1.0  0.76345  0.96653  0.09367  1.0000
  H   H616      1.0  0.95735  0.90350  0.11837  1.0000
  H   H617      1.0  0.92189  0.86278  0.07396  1.0000
  H   H618      1.0  0.90979  0.87316  0.01970  1.0000
  C   C775      1.0  0.82061  0.90720  0.10444  1.0000
  H   H619      1.0  0.51151  0.64099  0.31044  1.0000
  H   H620      1.0  0.92749  0.91642  0.16662  1.0000
  C   C776      1.0  0.95017  0.93862  0.22229  1.0000
  H   H621      1.0  0.85924  0.89448  0.07230  1.0000
  H   H622      1.0  0.77974  0.92485  0.13164  1.0000
  C   C777      1.0  0.79362  0.92751  0.11022  1.0000
  H   H623      1.0  0.91927  0.97521  0.01374  1.0000
  H   H624      1.0  0.89281  0.96865  0.06668  1.0000
  H   H625      1.0  0.97282  0.77238  0.01973  1.0000
  C   C778      1.0  0.95160  0.74455  0.12021  1.0000
  C   C779      1.0  0.89444  0.95045  0.14448  1.0000
  C   C780      1.0  0.94644  0.74272  0.08764  1.0000
  C   C781      1.0  0.90331  0.89611  0.00967  1.0000
  C   C782      1.0  0.85917  0.81754  0.00630  1.0000
  H   H626      1.0  0.66199  0.77486  0.31151  1.0000
  C   C783      1.0  0.53319  0.83701  0.30984  1.0000
  H   H627      1.0  0.88165  0.95623  0.16604  1.0000
  C   C784      1.0  0.90862  0.95324  0.00599  1.0000
  C   C785      1.0  0.97814  0.95196  0.04374  1.0000
  H   H628      1.0  0.98316  0.96862  0.09200  1.0000
  C   C786      1.0  0.99133  0.97075  0.06789  1.0000
  H   H629      1.0  0.79375  0.91863  0.00560  1.0000
  H   H630      1.0  0.59405  0.69964  0.32519  1.0000
  S   S105      1.0  0.57973  0.63220  0.32640  1.0000
  S   S106      1.0  0.67815  0.62428  0.32628  1.0000
  C   C787      1.0  0.96839  0.76291  0.99638  1.0000
  Fe  Fe53      1.0  0.69118  0.58908  0.36488  1.0000
  C   C788      1.0  0.63732  0.53487  0.44622  1.0000
  S   S107      1.0  0.72074  0.54266  0.36063  1.0000
  Fe  Fe54      1.0  0.66026  0.63007  0.41659  1.0000
  S   S108      1.0  0.64553  0.66893  0.38257  1.0000
  S   S109      1.0  0.64029  0.62917  0.46632  1.0000
  Fe  Fe55      1.0  0.62940  0.62945  0.35098  1.0000
  C   C789      1.0  0.55982  0.54185  0.54011  1.0000
  Fe  Fe56      1.0  0.69533  0.66137  0.36061  1.0000
  H   H631      1.0  0.54890  0.55900  0.46245  1.0000
  S   S110      1.0  0.64122  0.59112  0.38602  1.0000
  S   S111      1.0  0.71133  0.62570  0.39799  1.0000
  Fe  Fe57      1.0  0.69575  0.63459  0.63710  1.0000
  S   S112      1.0  0.72514  0.63193  0.59218  1.0000
  C   C790      1.0  0.66501  0.62718  0.50062  1.0000
  C   C791      1.0  0.69907  0.62840  0.49945  1.0000
  C   C792      1.0  0.71753  0.62908  0.52767  1.0000
  C   C793      1.0  0.70196  0.62893  0.55705  1.0000
  C   C794      1.0  0.66801  0.62692  0.55810  1.0000
  C   C795      1.0  0.64972  0.62546  0.53001  1.0000
  H   H632      1.0  0.71109  0.62948  0.47689  1.0000
  H   H633      1.0  0.74383  0.63050  0.52671  1.0000
  H   H634      1.0  0.65571  0.62701  0.58054  1.0000
  H   H635      1.0  0.62345  0.62388  0.53111  1.0000
  C   C796      1.0  0.89889  0.55365  0.62674  1.0000
  C   C797      1.0  0.54608  0.62587  0.38221  1.0000
  C   C798      1.0  0.54413  0.63170  0.34978  1.0000
  H   H636      1.0  0.58004  0.55641  0.34058  1.0000
  H   H637      1.0  0.56972  0.62221  0.39349  1.0000
  H   H638      1.0  0.59099  0.70163  0.45077  1.0000
  H   H639      1.0  0.50365  0.59425  0.59736  1.0000
  H   H640      1.0  0.51917  0.61945  0.42507  1.0000
  H   H641      1.0  0.55622  0.55262  0.56315  1.0000
  C   C799      1.0  0.53666  0.70702  0.38982  1.0000
  C   C800      1.0  0.74847  0.53625  0.56712  1.0000
  C   C801      1.0  0.68015  0.82880  0.48509  1.0000
  C   C802      1.0  0.68936  0.79820  0.49540  1.0000
  C   C803      1.0  0.66756  0.78025  0.51284  1.0000
  H   H642      1.0  0.63977  0.56429  0.57211  1.0000
  P   P27       1.0  0.68030  0.74135  0.52719  1.0000
  C   C804      1.0  0.64437  0.71989  0.53757  1.0000
  C   C805      1.0  0.70237  0.72106  0.49581  1.0000
  C   C806      1.0  0.73195  0.70419  0.50190  1.0000
  C   C807      1.0  0.74951  0.68987  0.47716  1.0000
  C   C808      1.0  0.73761  0.69210  0.44624  1.0000
  C   C809      1.0  0.70812  0.70857  0.44002  1.0000
  C   C810      1.0  0.69069  0.72326  0.46458  1.0000
  C   C811      1.0  0.66076  0.82949  0.39904  1.0000
  C   C812      1.0  0.51737  0.62429  0.40006  1.0000
  H   H643      1.0  0.69888  0.70982  0.41603  1.0000
  C   C813      1.0  0.59914  0.68659  0.52303  1.0000
  C   C814      1.0  0.62771  0.70191  0.51498  1.0000
  C   C815      1.0  0.58727  0.68870  0.55380  1.0000
  H   H644      1.0  0.64397  0.73626  0.58623  1.0000
  H   H645      1.0  0.67404  0.50019  0.49974  1.0000
  H   H646      1.0  0.69721  0.84266  0.47197  1.0000
  C   C816      1.0  0.79756  0.52772  0.59880  1.0000
  C   C817      1.0  0.63650  0.79344  0.51994  1.0000
  C   C818      1.0  0.50989  0.58106  0.61860  1.0000
  H   H647      1.0  0.59454  0.70808  0.60030  1.0000
  H   H648      1.0  0.65131  0.55299  0.51580  1.0000
  H   H649      1.0  0.71359  0.78860  0.49003  1.0000
  C   C819      1.0  0.62540  0.50432  0.44079  1.0000
  H   H650      1.0  0.74159  0.70180  0.52562  1.0000
  H   H651      1.0  0.77218  0.67671  0.48201  1.0000
  H   H652      1.0  0.75110  0.68094  0.42700  1.0000
  C   C820      1.0  0.63190  0.72233  0.56831  1.0000
  C   C821      1.0  0.55538  0.54502  0.48314  1.0000
  C   C822      1.0  0.54171  0.58138  0.63087  1.0000
  C   C823      1.0  0.73398  0.55316  0.59197  1.0000
  C   C824      1.0  0.55390  0.72661  0.36977  1.0000
  H   H653      1.0  0.58697  0.67205  0.50563  1.0000
  H   H654      1.0  0.63695  0.69895  0.49133  1.0000
  H   H655      1.0  0.60323  0.83392  0.51481  1.0000
  H   H656      1.0  0.67958  0.56412  0.44711  1.0000
  C   C825      1.0  0.56243  0.52045  0.41014  1.0000
  H   H657      1.0  0.52015  0.56606  0.34063  1.0000
  H   H658      1.0  0.51068  0.64833  0.63097  1.0000
  P   P28       1.0  0.60655  0.76310  0.35270  1.0000
  H   H659      1.0  0.62076  0.55489  0.45128  1.0000
  H   H660      1.0  0.70959  0.56360  0.58926  1.0000
  H   H661      1.0  0.64195  0.86533  0.48394  1.0000
  H   H662      1.0  0.65116  0.52260  0.61253  1.0000
  C   C826      1.0  0.57049  0.51465  0.48030  1.0000
  S   S113      1.0  0.67015  0.68033  0.65067  1.0000
  C   C827      1.0  0.65647  0.53478  0.53342  1.0000
  C   C828      1.0  0.71204  0.71800  0.58100  1.0000
  H   H663      1.0  0.61934  0.78034  0.53369  1.0000
  C   C829      1.0  0.67072  0.54025  0.44395  1.0000
  C   C830      1.0  0.69058  0.81294  0.40402  1.0000
  C   C831      1.0  0.71824  0.77423  0.57134  1.0000
  C   C832      1.0  0.51318  0.54172  0.38459  1.0000
  C   C833      1.0  0.58451  0.73785  0.37900  1.0000
  C   C834      1.0  0.73068  0.72035  0.60863  1.0000
  C   C835      1.0  0.52837  0.52527  0.40960  1.0000
  C   C836      1.0  0.59750  0.72921  0.40866  1.0000
  C   C837      1.0  0.58035  0.70926  0.42848  1.0000
  C   C838      1.0  0.54991  0.69828  0.41912  1.0000
  C   C839      1.0  0.64980  0.54113  0.56515  1.0000
  C   C840      1.0  0.66505  0.50983  0.34859  1.0000
  H   H664      1.0  0.53875  0.58212  0.51492  1.0000
  S   S114      1.0  0.65303  0.60439  0.64736  1.0000
  H   H665      1.0  0.53684  0.68242  0.43425  1.0000
  C   C841      1.0  0.69425  0.78114  0.39468  1.0000
  C   C842      1.0  0.70568  0.74486  0.56210  1.0000
  H   H666      1.0  0.67156  0.74142  0.37262  1.0000
  H   H667      1.0  0.66807  0.73625  0.45918  1.0000
  C   C843      1.0  0.63478  0.81438  0.38414  1.0000
  H   H668      1.0  0.79117  0.50949  0.55157  1.0000
  C   C844      1.0  0.74285  0.74963  0.61786  1.0000
  H   H669      1.0  0.56015  0.59498  0.61924  1.0000
  C   C845      1.0  0.69243  0.51516  0.43634  1.0000
  C   C846      1.0  0.52985  0.82712  0.34104  1.0000
  C   C847      1.0  0.54991  0.55843  0.51297  1.0000
  H   H670      1.0  0.62119  0.73701  0.41629  1.0000
  C   C848      1.0  0.62726  0.82392  0.50931  1.0000
  C   C849      1.0  0.53175  0.55260  0.35961  1.0000
  H   H671      1.0  0.71356  0.79544  0.55748  1.0000
  H   H672      1.0  0.50979  0.83658  0.35513  1.0000
  C   C850      1.0  0.56557  0.54726  0.35965  1.0000
  H   H673      1.0  0.56567  0.67613  0.56037  1.0000
  H   H674      1.0  0.70224  0.69524  0.57449  1.0000
  H   H675      1.0  0.71744  0.76826  0.39799  1.0000
  H   H676      1.0  0.60710  0.52726  0.38424  1.0000
  C   C851      1.0  0.64906  0.84161  0.49191  1.0000
  C   C852      1.0  0.60363  0.70662  0.57638  1.0000
  C   C853      1.0  0.73673  0.77654  0.59916  1.0000
  H   H677      1.0  0.61214  0.82773  0.37992  1.0000
  C   C854      1.0  0.58087  0.53113  0.38475  1.0000
  H   H678      1.0  0.71101  0.82480  0.41475  1.0000
  C   C855      1.0  0.57510  0.51173  0.53748  1.0000
  H   H679      1.0  0.73506  0.53351  0.54521  1.0000
  H   H680      1.0  0.54929  0.79743  0.37827  1.0000
  C   C856      1.0  0.78364  0.54623  0.62322  1.0000
  H   H681      1.0  0.65330  0.53280  0.34404  1.0000
  H   H682      1.0  0.65799  0.85420  0.40616  1.0000
  H   H683      1.0  0.73997  0.57194  0.63865  1.0000
  C   C857      1.0  0.66826  0.76598  0.38009  1.0000
  H   H684      1.0  0.78983  0.61206  0.62454  1.0000
  H   H685      1.0  0.52152  0.51357  0.60299  1.0000
  H   H686      1.0  0.82184  0.51702  0.60127  1.0000
  C   C858      1.0  0.78012  0.52312  0.57066  1.0000
  C   C859      1.0  0.63854  0.78256  0.37425  1.0000
  C   C860      1.0  0.51319  0.63638  0.33549  1.0000
  S   S115      1.0  0.72605  0.70522  0.35133  1.0000
  H   H687      1.0  0.73521  0.69944  0.62312  1.0000
  C   C861      1.0  0.69821  0.50787  0.35655  1.0000
  H   H688      1.0  0.75675  0.75147  0.63966  1.0000
  H   H689      1.0  0.74610  0.79927  0.60644  1.0000
  C   C862      1.0  0.79481  0.61808  0.64893  1.0000
  C   C863      1.0  0.75141  0.55808  0.61992  1.0000
  C   C864      1.0  0.65622  0.51767  0.58788  1.0000
  H   H690      1.0  0.71809  0.51966  0.43302  1.0000
  C   C865      1.0  0.66971  0.50501  0.52442  1.0000
  C   C866      1.0  0.79301  0.65014  0.65797  1.0000
  S   S116      1.0  0.57761  0.65963  0.64509  1.0000
  H   H691      1.0  0.51336  0.69784  0.38234  1.0000
  H   H692      1.0  0.78622  0.66819  0.64073  1.0000
  H   H693      1.0  0.85203  0.57428  0.61356  1.0000
  C   C867      1.0  0.55223  0.80485  0.35404  1.0000
  C   C868      1.0  0.51281  0.65083  0.65623  1.0000
  C   C869      1.0  0.57806  0.79215  0.33580  1.0000
  H   H694      1.0  0.51372  0.51673  0.42871  1.0000
  H   H695      1.0  0.91153  0.56465  0.60748  1.0000
  H   H696      1.0  0.76144  0.76155  0.33776  1.0000
  H   H697      1.0  0.54359  0.73251  0.34682  1.0000
  C   C870      1.0  0.86520  0.55895  0.63018  1.0000
  C   C871      1.0  0.54934  0.56588  0.65926  1.0000
  P   P29       1.0  0.80543  0.55287  0.65971  1.0000
  H   H698      1.0  0.94249  0.53054  0.64576  1.0000
  C   C872      1.0  0.91635  0.53448  0.64834  1.0000
  C   C873      1.0  0.84865  0.54475  0.65505  1.0000
  C   C874      1.0  0.58074  0.49831  0.50769  1.0000
  P   P30       1.0  0.58194  0.49885  0.44214  1.0000
  H   H699      1.0  0.58352  0.49918  0.55847  1.0000
  Fe  Fe58      1.0  0.67387  0.60132  0.69627  1.0000
  C   C875      1.0  0.67910  0.51889  0.70535  1.0000
  S   S117      1.0  0.67293  0.55588  0.72455  1.0000
  Fe  Fe59      1.0  0.69115  0.67155  0.69946  1.0000
  C   C876      1.0  0.51823  0.65821  0.72141  1.0000
  S   S118      1.0  0.71358  0.71533  0.72274  1.0000
  C   C877      1.0  0.75379  0.51626  0.73291  1.0000
  H   H700      1.0  0.93749  0.99627  0.94937  1.0000
  S   S119      1.0  0.64659  0.64511  0.71450  1.0000
  S   S120      1.0  0.71938  0.62727  0.68481  1.0000
  Fe  Fe60      1.0  0.89466  0.81838  0.88795  1.0000
  S   S121      1.0  0.86700  0.86120  0.90669  1.0000
  S   S122      1.0  0.94696  0.81894  0.90601  1.0000
  Fe  Fe61      1.0  0.83239  0.79029  0.85870  1.0000
  S   S123      1.0  0.80055  0.83149  0.87600  1.0000
  S   S124      1.0  0.81437  0.74410  0.83577  1.0000
  Fe  Fe62      1.0  0.84129  0.86231  0.86007  1.0000
  S   S125      1.0  0.83496  0.90897  0.83352  1.0000
  Fe  Fe63      1.0  0.82928  0.82736  0.92162  1.0000
  S   S126      1.0  0.80510  0.83428  0.96936  1.0000
  S   S127      1.0  0.87168  0.82153  0.83962  1.0000
  S   S128      1.0  0.85820  0.78406  0.90601  1.0000
  H   H701      1.0  0.97747  0.91886  0.76096  1.0000
  H   H702      1.0  0.68575  0.66873  0.77111  1.0000
  Fe  Fe64      1.0  0.62866  0.64986  0.66448  1.0000
  C   C878      1.0  0.98323  0.81533  0.88382  1.0000
  H   H703      1.0  0.96129  0.79913  0.84057  1.0000
  C   C879      1.0  0.83107  0.94501  0.88811  1.0000
  C   C880      1.0  0.83018  0.94489  0.85517  1.0000
  C   C881      1.0  0.82507  0.97384  0.83914  1.0000
  H   H704      1.0  0.83416  0.92282  0.90061  1.0000
  H   H705      1.0  0.82394  0.97389  0.81365  1.0000
  C   C882      1.0  0.74161  0.72244  0.75441  1.0000
  C   C883      1.0  0.75802  0.69781  0.77087  1.0000
  C   C884      1.0  0.78025  0.70492  0.79548  1.0000
  C   C885      1.0  0.78638  0.73666  0.80408  1.0000
  C   C886      1.0  0.76978  0.76122  0.78774  1.0000
  C   C887      1.0  0.74763  0.75412  0.76312  1.0000
  H   H706      1.0  0.75379  0.67334  0.76455  1.0000
  H   H707      1.0  0.79280  0.68569  0.80799  1.0000
  H   H708      1.0  0.77401  0.78572  0.79405  1.0000
  H   H709      1.0  0.73510  0.77341  0.75066  1.0000
  C   C888      1.0  0.58375  0.60186  0.75470  1.0000
  C   C889      1.0  0.54608  0.66048  0.70241  1.0000
  H   H710      1.0  0.54328  0.59737  0.72252  1.0000
  H   H711      1.0  0.81287  0.64229  0.73565  1.0000
  C   C890      1.0  0.68536  0.59649  0.82766  1.0000
  H   H712      1.0  0.56956  0.66535  0.71284  1.0000
  H   H713      1.0  0.58210  0.62762  0.75508  1.0000
  H   H714      1.0  0.75719  0.71614  0.87027  1.0000
  C   C891      1.0  0.78381  0.93488  0.98805  1.0000
  C   C892      1.0  0.70008  0.61982  0.77797  1.0000
  H   H715      1.0  0.91607  0.90619  0.92421  1.0000
  H   H716      1.0  0.86810  0.87597  0.97779  1.0000
  C   C893      1.0  0.69991  0.59361  0.79807  1.0000
  C   C894      1.0  0.59431  0.70104  0.78771  1.0000
  H   H717      1.0  0.68573  0.57628  0.84345  1.0000
  H   H718      1.0  0.55303  0.71010  0.75663  1.0000
  H   H719      1.0  0.67128  0.72603  0.77425  1.0000
  C   C895      1.0  0.90197  0.98325  0.81163  1.0000
  C   C896      1.0  0.87031  0.92653  0.97204  1.0000
  C   C897      1.0  0.58811  0.53531  0.75364  1.0000
  C   C898      1.0  0.76090  0.94218  0.93555  1.0000
  C   C899      1.0  0.92527  0.98081  0.83589  1.0000
  C   C900      1.0  0.76768  0.53756  0.71205  1.0000
  H   H720      1.0  0.90135  0.88461  0.81936  1.0000
  H   H721      1.0  0.71528  0.67875  0.85341  1.0000
  C   C901      1.0  0.60782  0.58574  0.77256  1.0000
  C   C902      1.0  0.68495  0.64870  0.78700  1.0000
  H   H722      1.0  0.59895  0.64096  0.83575  1.0000
  H   H723      1.0  0.86230  0.71110  0.96463  1.0000
  H   H724      1.0  0.59001  0.50956  0.75381  1.0000
  C   C903      1.0  0.59537  0.69712  0.90857  1.0000
  C   C904      1.0  0.59826  0.65672  0.85606  1.0000
  H   H725      1.0  0.93879  0.95847  0.83906  1.0000
  C   C905      1.0  0.57892  0.71330  0.76055  1.0000
  H   H726      1.0  0.55630  0.66810  0.92434  1.0000
  C   C906      1.0  0.92679  0.89019  0.81620  1.0000
  H   H727      1.0  0.73759  0.52514  0.75125  1.0000
  C   C907      1.0  0.96843  0.90184  0.92277  1.0000
  H   H728      1.0  0.62879  0.54002  0.78573  1.0000
  H   H729      1.0  0.90477  0.74576  0.94769  1.0000
  H   H730      1.0  0.75456  0.93250  0.91263  1.0000
  C   C908      1.0  0.98761  0.74613  0.94489  1.0000
  C   C909      1.0  0.57404  0.67192  0.90602  1.0000
  H   H731      1.0  0.99124  0.97120  0.79389  1.0000
  H   H732      1.0  0.74638  0.77417  0.86684  1.0000
  H   H733      1.0  0.52029  0.66118  0.74669  1.0000
  H   H734      1.0  0.71165  0.61763  0.75515  1.0000
  C   C910      1.0  0.88501  0.95441  0.98191  1.0000
  H   H735      1.0  0.89681  0.96270  0.79714  1.0000
  C   C911      1.0  0.93839  0.91801  0.91880  1.0000
  H   H736      1.0  0.55882  0.63229  0.87769  1.0000
  C   C912      1.0  0.95539  0.74179  0.93510  1.0000
  H   H737      1.0  0.98043  0.94008  0.99398  1.0000
  C   C913      1.0  0.93706  0.94900  0.90700  1.0000
  C   C914      1.0  0.66906  0.65148  0.81612  1.0000
  C   C915      1.0  0.56448  0.55144  0.73492  1.0000
  C   C916      1.0  0.93707  0.90259  0.78760  1.0000
  H   H738      1.0  0.65969  0.62725  0.86008  1.0000
  C   C917      1.0  0.72738  0.75798  0.86016  1.0000
  H   H739      1.0  0.91338  0.96100  0.90373  1.0000
  C   C918      1.0  0.96987  0.90982  0.78352  1.0000
  H   H740      1.0  0.57972  0.68849  0.80434  1.0000
  H   H741      1.0  0.87201  0.81280  0.98449  1.0000
  C   C919      1.0  0.94938  0.88447  0.84054  1.0000
  C   C920      1.0  0.79907  0.65879  0.68930  1.0000
  C   C921      1.0  0.81005  0.60335  0.70240  1.0000
  C   C922      1.0  0.77467  0.92231  0.95878  1.0000
  H   H742      1.0  0.59420  0.71281  0.92892  1.0000
  H   H743      1.0  0.62528  0.59901  0.78615  1.0000
  C   C923      1.0  0.63019  0.73385  0.74328  1.0000
  C   C924      1.0  0.80250  0.59432  0.67129  1.0000
  H   H744      1.0  0.79677  0.68358  0.69649  1.0000
  C   C925      1.0  0.82676  0.97376  0.90486  1.0000
  C   C926      1.0  0.78790  0.52614  0.68763  1.0000
  C   C927      1.0  0.49760  0.50572  0.76088  1.0000
  H   H745      1.0  0.76155  0.56267  0.71451  1.0000
  C   C928      1.0  0.59694  0.72932  0.73814  1.0000
  C   C929      1.0  0.76504  0.98733  0.97085  1.0000
  H   H746      1.0  0.85454  0.51583  0.69712  1.0000
  H   H747      1.0  0.77831  0.89707  0.95404  1.0000
  H   H748      1.0  0.81738  0.58560  0.71974  1.0000
  H   H749      1.0  0.71103  0.57110  0.79057  1.0000
  C   C930      1.0  0.87958  0.89747  0.98575  1.0000
  H   H750      1.0  0.69270  0.79530  0.84715  1.0000
  H   H751      1.0  0.82668  0.97362  0.93032  1.0000
  C   C931      1.0  0.80788  0.63543  0.71144  1.0000
  C   C932      1.0  0.73348  0.72515  0.86209  1.0000
  H   H752      1.0  0.85165  0.92724  0.95381  1.0000
  C   C933      1.0  0.67027  0.62539  0.83683  1.0000
  C   C934      1.0  0.56207  0.58476  0.73604  1.0000
  C   C935      1.0  0.70970  0.70406  0.85222  1.0000
  C   C936      1.0  0.62790  0.70515  0.79290  1.0000
  H   H753      1.0  0.94145  0.87393  0.86234  1.0000
  C   C937      1.0  0.69382  0.51691  0.67577  1.0000
  C   C938      1.0  0.50015  0.52946  0.73787  1.0000
  C   C939      1.0  0.54341  0.65672  0.66977  1.0000
  H   H754      1.0  0.69974  0.53844  0.66356  1.0000
  H   H755      1.0  0.63432  0.72197  0.88730  1.0000
  H   H756      1.0  0.81756  0.75235  0.96155  1.0000
  H   H757      1.0  0.64438  0.74611  0.72590  1.0000
  P   P31       1.0  0.64872  0.68866  0.82733  1.0000
  C   C940      1.0  0.75596  0.97466  0.94165  1.0000
  C   C941      1.0  0.96597  0.96427  0.89927  1.0000
  H   H758      1.0  0.65004  0.75838  0.83038  1.0000
  C   C942      1.0  0.85075  0.71974  0.98603  1.0000
  C   C943      1.0  0.67324  0.74881  0.83919  1.0000
  C   C944      1.0  0.86644  0.52603  0.67703  1.0000
  C   C945      1.0  0.60976  0.55248  0.77230  1.0000
  C   C946      1.0  0.67954  0.71575  0.84028  1.0000
  C   C947      1.0  0.69722  0.76981  0.84886  1.0000
  H   H759      1.0  0.87775  0.97691  0.97105  1.0000
  C   C948      1.0  0.92971  0.74797  0.95583  1.0000
  C   C949      1.0  0.61813  0.70224  0.88485  1.0000
  C   C950      1.0  0.57549  0.65173  0.87977  1.0000
  P   P32       1.0  0.53509  0.52986  0.71218  1.0000
  H   H760      1.0  0.58514  0.73807  0.71672  1.0000
  C   C951      1.0  0.61973  0.68208  0.85838  1.0000
  C   C952      1.0  0.64550  0.72214  0.77067  1.0000
  H   H761      1.0  0.91954  0.90636  0.76856  1.0000
  H   H762      1.0  0.96920  0.87748  0.93110  1.0000
  C   C953      1.0  0.52520  0.54970  0.67544  1.0000
  H   H763      1.0  0.59902  0.50807  0.68859  1.0000
  C   C954      1.0  0.90014  0.52077  0.67352  1.0000
  C   C955      1.0  0.98387  0.80463  0.85254  1.0000
  H   H764      1.0  0.57390  0.56719  0.66887  1.0000
  H   H765      1.0  0.91378  0.50631  0.69053  1.0000
  C   C956      1.0  0.93617  0.75820  0.98653  1.0000
  H   H766      1.0  0.74602  0.99026  0.92337  1.0000
  C   C957      1.0  0.99265  0.90510  0.80825  1.0000
  C   C958      1.0  0.82533  0.74267  0.98420  1.0000
  H   H767      1.0  0.99126  0.82248  0.99283  1.0000
  H   H768      1.0  0.95027  0.73491  0.91092  1.0000
  C   C959      1.0  0.98221  0.89171  0.83658  1.0000
  C   C960      1.0  0.77963  0.96770  0.99415  1.0000
