data_image0
_chemical_formula_structural       FeS2FeS2FeSFeS3FeS2FeCSFeSFeCS2CHC2H2C6HCHC2H2C7H4CHCH2CH3CH2PC4HCHC2H3C6H2C3H9C3HPC6HC4HC2H2CH7CH3C5SC3H2C6H2CHCHC2H2CH3CHC2H2C2H2C4H5C6H2CH2C6H2CHCHC2SH2CH2CH3C2SH2CH2C2H2C2HCHC2HC7PC3HCHC3SC2H2CH4C2H3CH2C4HCHCH2CH3CPC3HC3H2C2H2SCHCHCHFeC2HSHC2HCH2C2HCH2SH5C4HCHC2SHPC2HCH3CH3C2HCH2C3H2C2H3C6HSHC4HCPCHC5HCH2PH5CH2CH3CHC2HC4H3CH2FeSCFeS2FeSFeSHSFeS2FeS2FeSFeS3C3H3C2H2CHC2H2C7H5SC2HC2H3C3HC2HCH4C4PC14HC4H15CH3CH2C5HC3HSC6H3C2H4C4HCPC2HC4H2C3H2C2HPHC2HC4H2C3HCHSC2H2CHCH3C2H2C3H2CH2C2H2C2H2CHCHC3H3CH3C3H2CH2C3HC3HCH3CH2CHC2H5CPC5HCHCHC2H2C3HCHC2HPH2C3PC2HPCHC2H2C2H2C2HC6HCH4C2HC3HCH2C3H2CH2CHC3HC2FeS2HFeHS2FeS2Fe2CS2FeS3CSHFeS2C3HSC2H3C6H2PH2C8H6C8PC17H6CH12C2HC3H2C4SC2HFeC4HCHSCHC2SHCH2CSH3CHCH2SC2H2C2HC4H2CH3CFeH4C4HCH4C2H3FeC2H2FeS2FeHCS2CSH3FeS2FeS2C2SH2SCFe2S2FeHSHCHC6H2FeSFeCHC6H7C2HSC3SCFeC6PC9HSC7HCH4CH4FeH6CH3CHCHCHC7PC8H2C8H6CH3CH10CSC2H2CH2C2HC2HSC4HC2FeHCH2CHCHC3PCHC2HCHC5HCH3CHC2H2PC4HCHC4H2C2H3CHCHCHCHCHC2H2C2H5CHC2HCH2C2H6PC6HFeS2FeSCFeSFeHS2FeS2FeS2FeSFeS4H3CHC2H2C6H4C2HCHC3HC5HC4H3CH3CH2CH2CH2CH2C2H2CHC3HC3H2C2HCH2C2H2CH2C3HCHCHC2PHCH2CHCHCHPC13HCHCHC3HC2H3C3HCHC2H2CH2CHC2SCHC2HC2PH2C2H2SHCHFeSCHFeH2CSHCHCHCH4C2HFeH3CHSC3H2CHCFeC3SHCH3C9HCH2C3PCSH3C3HC4HC5HSCH3CH4C2H3C6PC13HCH2C2H2SCH4FeCHCHC2HS2C3HFeHSHC2SHC2HCFeH2CS2CPH3C4HC6PCHSHC2HC3HC2H3CH5CH2C2HFeH3CH3C2SC2H2C3H3C3HCH2C3H2C5H2C4SH2CHCHCHCH2FeHC8HCHC4FeS2FeS2FeCFeS3FeS2FeS2FeSFeS3C3H2C2PC7H5CHC2HCH4CH2C5HCH2C3HPH3C5HC3PC7HCH2CH5CHC2H3C4H3C2HC3HCH3C3H3C5H2C3HCH4C2HC2HC3HCH2C2H4C4H2C2HCHCHPH2CHC2HC2HC2H5CH3C3HCHC
_chemical_formula_sum              "Fe64 S128 C960 H768 P32"
_cell_length_a       44.7266
_cell_length_b       40.5851
_cell_length_c       39.124
_cell_angle_alpha    89.4557
_cell_angle_beta     89.6169
_cell_angle_gamma    90.5206

_space_group_name_H-M_alt    "P 1"
_space_group_IT_number       1

loop_
  _space_group_symop_operation_xyz
  'x, y, z'

loop_
  _atom_site_type_symbol
  _atom_site_label
  _atom_site_symmetry_multiplicity
  _atom_site_fract_x
  _atom_site_fract_y
  _atom_site_fract_z
  _atom_site_occupancy
  Fe  Fe1       1.0  0.16865  0.40214  0.41412  1.0000
  S   S1        1.0  0.16504  0.37027  0.46099  1.0000
  S   S2        1.0  0.17623  0.45774  0.41341  1.0000
  Fe  Fe2       1.0  0.15552  0.34472  0.36557  1.0000
  S   S3        1.0  0.15081  0.30847  0.40967  1.0000
  S   S4        1.0  0.14602  0.32560  0.31165  1.0000
  Fe  Fe3       1.0  0.12437  0.34844  0.43547  1.0000
  S   S5        1.0  0.08182  0.34018  0.46728  1.0000
  Fe  Fe4       1.0  0.19192  0.33261  0.43192  1.0000
  S   S6        1.0  0.23534  0.30724  0.45027  1.0000
  S   S7        1.0  0.12642  0.38274  0.39031  1.0000
  S   S8        1.0  0.19812  0.36650  0.38589  1.0000
  Fe  Fe5       1.0  0.16682  0.37317  0.11271  1.0000
  S   S9        1.0  0.16316  0.32383  0.08674  1.0000
  S   S10       1.0  0.18037  0.38981  0.16630  1.0000
  Fe  Fe6       1.0  0.14824  0.41175  0.04777  1.0000
  C   C1        1.0  0.00556  0.41211  0.16368  1.0000
  S   S11       1.0  0.13701  0.46606  0.03849  1.0000
  Fe  Fe7       1.0  0.12030  0.34393  0.06443  1.0000
  S   S12       1.0  0.07799  0.31235  0.06797  1.0000
  Fe  Fe8       1.0  0.18548  0.34803  0.04079  1.0000
  C   C2        1.0  0.04052  0.44544  0.43105  1.0000
  S   S13       1.0  0.12294  0.39119  0.09307  1.0000
  S   S14       1.0  0.19255  0.39603  0.06867  1.0000
  C   C3        1.0  0.30836  0.44800  0.01847  1.0000
  H   H1        1.0  0.04997  0.28541  0.39764  1.0000
  C   C4        1.0  0.04183  0.32879  0.06200  1.0000
  C   C5        1.0  0.03778  0.36034  0.04829  1.0000
  H   H2        1.0  0.23437  0.40926  0.42903  1.0000
  H   H3        1.0  0.05704  0.37520  0.04100  1.0000
  C   C6        1.0  0.01046  0.24203  0.33928  1.0000
  C   C7        1.0  0.05204  0.45282  0.26109  1.0000
  C   C8        1.0  0.01655  0.30948  0.07058  1.0000
  C   C9        1.0  0.07104  0.44292  0.42373  1.0000
  C   C10       1.0  0.28184  0.26977  0.47588  1.0000
  C   C11       1.0  0.25154  0.46512  0.11395  1.0000
  H   H4        1.0  0.22267  0.26666  0.04230  1.0000
  C   C12       1.0  0.26044  0.46386  0.48715  1.0000
  H   H5        1.0  0.22931  0.42890  0.01660  1.0000
  C   C13       1.0  0.04561  0.34182  0.44895  1.0000
  C   C14       1.0  0.04163  0.35047  0.41465  1.0000
  H   H6        1.0  0.30553  0.02737  0.02603  1.0000
  H   H7        1.0  0.06081  0.35737  0.39920  1.0000
  C   C15       1.0  0.10880  0.21608  0.39203  1.0000
  C   C16       1.0  0.15640  0.34387  0.27169  1.0000
  C   C17       1.0  0.15058  0.32649  0.24148  1.0000
  C   C18       1.0  0.15752  0.34025  0.20908  1.0000
  C   C19       1.0  0.17062  0.37158  0.20649  1.0000
  C   C20       1.0  0.17672  0.38889  0.23673  1.0000
  C   C21       1.0  0.16968  0.37516  0.26915  1.0000
  H   H8        1.0  0.14084  0.30207  0.24316  1.0000
  H   H9        1.0  0.15321  0.32644  0.18612  1.0000
  H   H10       1.0  0.18711  0.41303  0.23510  1.0000
  H   H11       1.0  0.17465  0.38871  0.29213  1.0000
  C   C22       1.0  0.08405  0.25873  0.42405  1.0000
  H   H12       1.0  0.11581  0.45431  0.44017  1.0000
  C   C23       1.0  0.00871  0.37226  0.04286  1.0000
  H   H13       1.0  0.01949  0.28492  0.08089  1.0000
  H   H14       1.0  0.02907  0.30928  0.17836  1.0000
  C   C24       1.0  0.17882  0.48253  0.45050  1.0000
  H   H15       1.0  0.01859  0.23361  0.26654  1.0000
  H   H16       1.0  0.09428  0.21606  0.20144  1.0000
  H   H17       1.0  0.02483  0.43422  0.41375  1.0000
  C   C25       1.0  0.02835  0.44966  0.07134  1.0000
  H   H18       1.0  0.02319  0.32653  0.49544  1.0000
  H   H19       1.0  0.07646  0.37697  0.14248  1.0000
  P   P1        1.0  0.05723  0.41334  0.20317  1.0000
  C   C26       1.0  0.07636  0.44044  0.17330  1.0000
  C   C27       1.0  0.06845  0.42818  0.24461  1.0000
  C   C28       1.0  0.09511  0.41704  0.25944  1.0000
  C   C29       1.0  0.10438  0.42914  0.29103  1.0000
  H   H20       1.0  0.04864  0.48378  0.30550  1.0000
  C   C30       1.0  0.06130  0.46595  0.15630  1.0000
  H   H21       1.0  0.12536  0.19682  0.39065  1.0000
  C   C31       1.0  0.10716  0.43665  0.16780  1.0000
  C   C32       1.0  0.12238  0.45691  0.14432  1.0000
  H   H22       1.0  0.07836  0.43016  0.40106  1.0000
  H   H23       1.0  0.26551  0.45708  0.13491  1.0000
  H   H24       1.0  0.09488  0.46233  0.33221  1.0000
  C   C33       1.0  0.06936  0.37155  0.19704  1.0000
  C   C34       1.0  0.07782  0.36073  0.16448  1.0000
  C   C35       1.0  0.08863  0.32881  0.16017  1.0000
  C   C36       1.0  0.09001  0.30715  0.18804  1.0000
  C   C37       1.0  0.08026  0.31733  0.22023  1.0000
  C   C38       1.0  0.06996  0.34936  0.22469  1.0000
  H   H25       1.0  0.10901  0.39918  0.24659  1.0000
  H   H26       1.0  0.12486  0.42018  0.30242  1.0000
  C   C39       1.0  0.08276  0.47252  0.47535  1.0000
  C   C40       1.0  0.30012  0.48015  0.00909  1.0000
  C   C41       1.0  0.03079  0.46180  0.46054  1.0000
  H   H27       1.0  0.11945  0.41758  0.18114  1.0000
  H   H28       1.0  0.03224  0.46295  0.24938  1.0000
  H   H29       1.0  0.31026  0.11707  0.04094  1.0000
  H   H30       1.0  0.09632  0.32098  0.13526  1.0000
  H   H31       1.0  0.09901  0.28273  0.18463  1.0000
  H   H32       1.0  0.08166  0.30095  0.24206  1.0000
  H   H33       1.0  0.06325  0.35695  0.24988  1.0000
  H   H34       1.0  0.23029  0.37427  0.48070  1.0000
  H   H35       1.0  0.31926  0.24203  0.49582  1.0000
  C   C42       1.0  0.23443  0.26096  0.50435  1.0000
  C   C43       1.0  0.01732  0.35023  0.30162  1.0000
  C   C44       1.0  0.23856  0.39930  0.48297  1.0000
  H   H36       1.0  0.03784  0.47029  0.16108  1.0000
  P   P2        1.0  0.04697  0.25878  0.32889  1.0000
  C   C45       1.0  0.06184  0.24397  0.28896  1.0000
  C   C46       1.0  0.04464  0.30267  0.32236  1.0000
  C   C47       1.0  0.06829  0.32349  0.33178  1.0000
  C   C48       1.0  0.06630  0.35750  0.32643  1.0000
  C   C49       1.0  0.04055  0.37097  0.31214  1.0000
  C   C50       1.0  0.04995  0.46926  0.05483  1.0000
  H   H37       1.0  0.29147  0.09506  0.09657  1.0000
  C   C51       1.0  0.09275  0.24585  0.28246  1.0000
  C   C52       1.0  0.10438  0.23535  0.25119  1.0000
  C   C53       1.0  0.08520  0.22384  0.22580  1.0000
  C   C54       1.0  0.05430  0.22328  0.23151  1.0000
  H   H38       1.0  0.29510  0.28189  0.45617  1.0000
  C   C55       1.0  0.07026  0.24900  0.36502  1.0000
  C   C56       1.0  0.06648  0.26619  0.39565  1.0000
  H   H39       1.0  0.00623  0.40612  0.25057  1.0000
  H   H40       1.0  0.01942  0.19363  0.31904  1.0000
  C   C57       1.0  0.24114  0.41890  0.45351  1.0000
  H   H41       1.0  0.08828  0.31356  0.34335  1.0000
  H   H42       1.0  0.08473  0.37333  0.33371  1.0000
  H   H43       1.0  0.14597  0.45289  0.13954  1.0000
  H   H44       1.0  0.25230  0.46681  0.43293  1.0000
  H   H45       1.0  0.07282  0.46073  0.05277  1.0000
  H   H46       1.0  0.10789  0.25609  0.30127  1.0000
  H   H47       1.0  0.12830  0.23685  0.24645  1.0000
  C   C58       1.0  0.04260  0.23347  0.26289  1.0000
  H   H48       1.0  0.29182  0.43076  0.02864  1.0000
  H   H49       1.0  0.03877  0.39739  0.30907  1.0000
  H   H50       1.0  0.08128  0.27247  0.44746  1.0000
  C   C59       1.0  0.08746  0.45290  0.30779  1.0000
  C   C60       1.0  0.25157  0.45132  0.45566  1.0000
  C   C61       1.0  0.22056  0.46641  0.11853  1.0000
  C   C62       1.0  0.17967  0.46879  0.48342  1.0000
  C   C63       1.0  0.01959  0.31615  0.30621  1.0000
  S   S15       1.0  0.14214  0.36545  0.01700  1.0000
  C   C64       1.0  0.09214  0.45646  0.44581  1.0000
  C   C65       1.0  0.10545  0.23396  0.42214  1.0000
  C   C66       1.0  0.25115  0.27710  0.47870  1.0000
  H   H51       1.0  0.03458  0.42586  0.08168  1.0000
  H   H52       1.0  0.11948  0.22876  0.44398  1.0000
  C   C67       1.0  0.09099  0.22322  0.36368  1.0000
  C   C68       1.0  0.24610  0.48287  0.05479  1.0000
  C   C69       1.0  0.02035  0.33329  0.46888  1.0000
  C   C70       1.0  0.01293  0.34912  0.40010  1.0000
  C   C71       1.0  0.06139  0.46488  0.29274  1.0000
  C   C72       1.0  0.31350  0.08833  0.08748  1.0000
  H   H53       1.0  0.09356  0.20862  0.34091  1.0000
  H   H54       1.0  0.28840  0.47281  0.07949  1.0000
  C   C73       1.0  0.29565  0.24703  0.49835  1.0000
  H   H55       1.0  0.03944  0.21524  0.21143  1.0000
  C   C74       1.0  0.00517  0.30950  0.17505  1.0000
  H   H56       1.0  0.17815  0.44235  0.48678  1.0000
  C   C75       1.0  0.01722  0.41243  0.19695  1.0000
  C   C76       1.0  0.10699  0.48112  0.12614  1.0000
  H   H57       1.0  0.21054  0.45884  0.14275  1.0000
  H   H58       1.0  0.02031  0.41350  0.14166  1.0000
  C   C77       1.0  0.32408  0.10081  0.05621  1.0000
  H   H59       1.0  0.24951  0.21421  0.03146  1.0000
  H   H60       1.0  0.32896  0.99775  0.10568  1.0000
  H   H61       1.0  0.00575  0.39622  0.03109  1.0000
  C   C78       1.0  0.20245  0.47693  0.09168  1.0000
  H   H62       1.0  0.32315  0.05850  0.13161  1.0000
  C   C79       1.0  0.05223  0.47500  0.48286  1.0000
  C   C80       1.0  0.07655  0.48595  0.13249  1.0000
  H   H63       1.0  0.00709  0.34527  0.13409  1.0000
  H   H64       1.0  0.01018  0.35500  0.37339  1.0000
  C   C81       1.0  0.23710  0.26455  0.02015  1.0000
  C   C82       1.0  0.33140  0.06738  0.10708  1.0000
  H   H65       1.0  0.17843  0.47776  0.09502  1.0000
  H   H66       1.0  0.21080  0.26565  0.50667  1.0000
  C   C83       1.0  0.25240  0.23476  0.01391  1.0000
  C   C84       1.0  0.00335  0.20910  0.33187  1.0000
  C   C85       1.0  0.26437  0.47367  0.08230  1.0000
  C   C86       1.0  0.21514  0.48511  0.05995  1.0000
  H   H67       1.0  0.26835  0.48910  0.48879  1.0000
  H   H68       1.0  0.09928  0.48292  0.49243  1.0000
  H   H69       1.0  0.30955  0.26327  0.05994  1.0000
  H   H70       1.0  0.04541  0.48702  0.50621  1.0000
  H   H71       1.0  0.30610  0.32402  0.05488  1.0000
  C   C87       1.0  0.31812  0.31031  0.03561  1.0000
  C   C88       1.0  0.32015  0.27610  0.03860  1.0000
  C   C89       1.0  0.33114  0.32671  0.00756  1.0000
  C   C90       1.0  0.32343  0.01999  0.00909  1.0000
  C   C91       1.0  0.33534  0.25829  0.01365  1.0000
  C   C92       1.0  0.17847  0.38572  0.56191  1.0000
  H   H72       1.0  0.28902  0.20752  0.82973  1.0000
  H   H73       1.0  0.27333  0.37749  0.61805  1.0000
  C   C93       1.0  0.21656  0.42777  0.93127  1.0000
  H   H74       1.0  0.27706  0.15822  0.60884  1.0000
  H   H75       1.0  0.27408  0.21270  0.63534  1.0000
  C   C94       1.0  0.14620  0.34134  0.54285  1.0000
  C   C95       1.0  0.27164  0.23148  0.98546  1.0000
  C   C96       1.0  0.27815  0.16025  0.63642  1.0000
  C   C97       1.0  0.22947  0.43747  0.99034  1.0000
  C   C98       1.0  0.31766  0.28027  0.87005  1.0000
  C   C99       1.0  0.07076  0.44970  0.78154  1.0000
  H   H76       1.0  0.28514  0.16695  0.73477  1.0000
  H   H77       1.0  0.24285  0.34241  0.66361  1.0000
  C   C100      1.0  0.24635  0.41205  0.51493  1.0000
  H   H78       1.0  0.12394  0.33137  0.53866  1.0000
  C   C101      1.0  0.32324  0.43242  0.92441  1.0000
  H   H79       1.0  0.10587  0.45135  0.81891  1.0000
  C   C102      1.0  0.24409  0.41138  0.59142  1.0000
  C   C103      1.0  0.30499  0.40713  0.93746  1.0000
  S   S16       1.0  0.29168  0.19388  0.97957  1.0000
  H   H80       1.0  0.19773  0.31934  0.63566  1.0000
  H   H81       1.0  0.21682  0.45130  0.57248  1.0000
  C   C104      1.0  0.26391  0.41967  0.64853  1.0000
  H   H82       1.0  0.27993  0.27856  0.58958  1.0000
  H   H83       1.0  0.28884  0.11306  0.70738  1.0000
  C   C105      1.0  0.27485  0.25825  0.96298  1.0000
  H   H84       1.0  0.26583  0.45437  0.54051  1.0000
  H   H85       1.0  0.18741  0.25923  0.63855  1.0000
  H   H86       1.0  0.18444  0.47846  0.53722  1.0000
  C   C106      1.0  0.28443  0.13479  0.69197  1.0000
  C   C107      1.0  0.24459  0.22496  0.81906  1.0000
  S   S17       1.0  0.32335  0.14010  0.90245  1.0000
  H   H87       1.0  0.13034  0.38582  0.56592  1.0000
  H   H88       1.0  0.20575  0.39443  0.97289  1.0000
  C   C108      1.0  0.26140  0.40050  0.61911  1.0000
  H   H89       1.0  0.26260  0.30868  0.95184  1.0000
  H   H90       1.0  0.30697  0.30426  0.91712  1.0000
  C   C109      1.0  0.20383  0.36860  0.55064  1.0000
  C   C110      1.0  0.32477  0.27227  0.73175  1.0000
  H   H91       1.0  0.30633  0.21286  0.77010  1.0000
  H   H92       1.0  0.15860  0.45234  0.96921  1.0000
  C   C111      1.0  0.32826  0.00696  0.88668  1.0000
  C   C112      1.0  0.09412  0.46485  0.79917  1.0000
  H   H93       1.0  0.27786  0.30574  0.69369  1.0000
  C   C113      1.0  0.28239  0.13210  0.65652  1.0000
  H   H94       1.0  0.22156  0.22229  0.66956  1.0000
  C   C114      1.0  0.21629  0.41765  0.96549  1.0000
  C   C115      1.0  0.29482  0.35723  0.53459  1.0000
  H   H95       1.0  0.20593  0.41254  0.91219  1.0000
  C   C116      1.0  0.23229  0.46107  0.62301  1.0000
  C   C117      1.0  0.23848  0.31614  0.66466  1.0000
  C   C118      1.0  0.21298  0.30318  0.64907  1.0000
  C   C119      1.0  0.20716  0.26932  0.65068  1.0000
  C   C120      1.0  0.22673  0.24840  0.66801  1.0000
  C   C121      1.0  0.25273  0.26114  0.68315  1.0000
  C   C122      1.0  0.25831  0.29524  0.68165  1.0000
  P   P3        1.0  0.27722  0.23434  0.70698  1.0000
  C   C123      1.0  0.26423  0.23081  0.75083  1.0000
  C   C124      1.0  0.27830  0.19413  0.68739  1.0000
  C   C125      1.0  0.28246  0.16563  0.70740  1.0000
  H   H96       1.0  0.02669  0.41695  0.51165  1.0000
  C   C126      1.0  0.22506  0.23617  0.79382  1.0000
  H   H97       1.0  0.28907  0.25566  0.94084  1.0000
  C   C127      1.0  0.27631  0.19117  0.65168  1.0000
  C   C128      1.0  0.23477  0.23903  0.75981  1.0000
  C   C129      1.0  0.31586  0.33192  0.53549  1.0000
  S   S18       1.0  0.29574  0.20568  0.55650  1.0000
  C   C130      1.0  0.27386  0.21664  0.81031  1.0000
  C   C131      1.0  0.28364  0.21962  0.77641  1.0000
  H   H98       1.0  0.32653  0.28380  0.55567  1.0000
  H   H99       1.0  0.32887  0.03320  0.88111  1.0000
  C   C132      1.0  0.22965  0.44190  0.59370  1.0000
  H   H100      1.0  0.29103  0.01036  0.92150  1.0000
  H   H101      1.0  0.28503  0.10832  0.64456  1.0000
  H   H102      1.0  0.20229  0.24242  0.80063  1.0000
  H   H103      1.0  0.06442  0.42445  0.78757  1.0000
  C   C133      1.0  0.19981  0.33798  0.53474  1.0000
  C   C134      1.0  0.25979  0.28812  0.96933  1.0000
  H   H104      1.0  0.23702  0.22245  0.84537  1.0000
  H   H105      1.0  0.03730  0.45546  0.74267  1.0000
  H   H106      1.0  0.16829  0.30104  0.51822  1.0000
  C   C135      1.0  0.24390  0.47725  0.94660  1.0000
  H   H107      1.0  0.31017  0.27870  0.75279  1.0000
  H   H108      1.0  0.21919  0.24750  0.74070  1.0000
  C   C136      1.0  0.14984  0.37209  0.55806  1.0000
  C   C137      1.0  0.33458  0.04245  0.98430  1.0000
  C   C138      1.0  0.31470  0.25145  0.70564  1.0000
  C   C139      1.0  0.31065  0.30385  0.55572  1.0000
  H   H109      1.0  0.32698  0.22855  0.65770  1.0000
  C   C140      1.0  0.05549  0.46718  0.75627  1.0000
  H   H110      1.0  0.18042  0.40990  0.57286  1.0000
  C   C141      1.0  0.17120  0.32422  0.53137  1.0000
  H   H111      1.0  0.23525  0.22733  0.54753  1.0000
  H   H112      1.0  0.24268  0.32316  0.58840  1.0000
  C   C142      1.0  0.26828  0.35447  0.55382  1.0000
  H   H113      1.0  0.21866  0.32519  0.52382  1.0000
  H   H114      1.0  0.22133  0.48481  0.62412  1.0000
  H   H115      1.0  0.27746  0.41125  0.66968  1.0000
  C   C143      1.0  0.24089  0.29162  0.99801  1.0000
  P   P4        1.0  0.24087  0.38699  0.55297  1.0000
  C   C144      1.0  0.28432  0.30092  0.57492  1.0000
  C   C145      1.0  0.30699  0.99408  0.90955  1.0000
  C   C146      1.0  0.27911  0.23178  0.52471  1.0000
  H   H116      1.0  0.23052  0.46548  0.89529  1.0000
  C   C147      1.0  0.25836  0.44416  0.51662  1.0000
  C   C148      1.0  0.26321  0.32609  0.57397  1.0000
  C   C149      1.0  0.24288  0.46773  0.98120  1.0000
  H   H117      1.0  0.31397  0.45662  0.91970  1.0000
  H   H118      1.0  0.32508  0.06678  0.98200  1.0000
  C   C150      1.0  0.33409  0.24422  0.67839  1.0000
  C   C151      1.0  0.24839  0.23895  0.52741  1.0000
  H   H119      1.0  0.29915  0.37861  0.51848  1.0000
  H   H120      1.0  0.29483  0.27234  0.86555  1.0000
  S   S19       1.0  0.22368  0.33069  0.00527  1.0000
  C   C152      1.0  0.15654  0.47871  0.97197  1.0000
  H   H121      1.0  0.30201  0.35646  0.95288  1.0000
  C   C153      1.0  0.23047  0.45751  0.92180  1.0000
  H   H122      1.0  0.25151  0.46495  0.67312  1.0000
  C   C154      1.0  0.24935  0.44993  0.65049  1.0000
  H   H123      1.0  0.01218  0.36850  0.54609  1.0000
  Fe  Fe9       1.0  0.32998  0.17873  0.94326  1.0000
  C   C155      1.0  0.31683  0.37589  0.94357  1.0000
  C   C156      1.0  0.14654  0.49158  0.00296  1.0000
  H   H124      1.0  0.17074  0.48981  0.92027  1.0000
  S   S20       1.0  0.33291  0.12156  0.57869  1.0000
  H   H125      1.0  0.28156  0.41159  0.94273  1.0000
  C   C157      1.0  0.18348  0.48928  0.51200  1.0000
  C   C158      1.0  0.32465  0.29791  0.89951  1.0000
  H   H126      1.0  0.33498  0.25779  0.82440  1.0000
  C   C159      1.0  0.00320  0.41081  0.51430  1.0000
  H   H127      1.0  0.33009  0.35325  0.00646  1.0000
  H   H128      1.0  0.27877  0.90651  0.02557  1.0000
  C   C160      1.0  0.24852  0.77898  0.37953  1.0000
  C   C161      1.0  0.21482  0.82957  0.46459  1.0000
  H   H129      1.0  0.18306  0.71577  0.48545  1.0000
  C   C162      1.0  0.18157  0.83391  0.31175  1.0000
  H   H130      1.0  0.05308  0.58425  0.14407  1.0000
  H   H131      1.0  0.11745  0.59447  0.04063  1.0000
  S   S21       1.0  0.31727  0.86704  0.07458  1.0000
  H   H132      1.0  0.30506  0.94867  0.13151  1.0000
  H   H133      1.0  0.13400  0.56111  0.08995  1.0000
  H   H134      1.0  0.13610  0.53598  0.02997  1.0000
  H   H135      1.0  0.24354  0.73236  0.40669  1.0000
  H   H136      1.0  0.18001  0.52789  0.42139  1.0000
  C   C163      1.0  0.27409  0.55882  0.02381  1.0000
  C   C164      1.0  0.15110  0.72162  0.44500  1.0000
  C   C165      1.0  0.01223  0.50996  0.04228  1.0000
  C   C166      1.0  0.17413  0.87576  0.35457  1.0000
  H   H137      1.0  0.12371  0.73261  0.40148  1.0000
  C   C167      1.0  0.24883  0.75661  0.01036  1.0000
  H   H138      1.0  0.00596  0.53260  0.02980  1.0000
  C   C168      1.0  0.18076  0.51699  0.44670  1.0000
  C   C169      1.0  0.10336  0.59279  0.06327  1.0000
  S   S22       1.0  0.32132  0.96105  0.04437  1.0000
  H   H139      1.0  0.00635  0.58361  0.49170  1.0000
  P   P5        1.0  0.21770  0.79906  0.40079  1.0000
  C   C170      1.0  0.27489  0.77562  0.01672  1.0000
  C   C171      1.0  0.29987  0.75830  0.46334  1.0000
  H   H140      1.0  0.18622  0.56391  0.47195  1.0000
  C   C172      1.0  0.28997  0.72522  0.46344  1.0000
  H   H141      1.0  0.24616  0.85725  0.01825  1.0000
  H   H142      1.0  0.29949  0.70829  0.44528  1.0000
  H   H143      1.0  0.20368  0.78993  0.32848  1.0000
  C   C173      1.0  0.09482  0.57104  0.12038  1.0000
  H   H144      1.0  0.16022  0.88043  0.30212  1.0000
  H   H145      1.0  0.06466  0.50480  0.11846  1.0000
  H   H146      1.0  0.31697  0.73771  0.33606  1.0000
  C   C174      1.0  0.23186  0.82475  0.43476  1.0000
  C   C175      1.0  0.29766  0.74905  0.34774  1.0000
  H   H147      1.0  0.17912  0.82547  0.28571  1.0000
  C   C176      1.0  0.11716  0.67079  0.03491  1.0000
  H   H148      1.0  0.28641  0.70646  0.37860  1.0000
  H   H149      1.0  0.10226  0.55649  0.14205  1.0000
  C   C177      1.0  0.04191  0.49945  0.04032  1.0000
  C   C178      1.0  0.19146  0.76862  0.41763  1.0000
  C   C179      1.0  0.02796  0.67673  0.06387  1.0000
  H   H150      1.0  0.27710  0.78885  0.04045  1.0000
  H   H151      1.0  0.27266  0.83899  0.40800  1.0000
  C   C180      1.0  0.22503  0.85089  0.48997  1.0000
  C   C181      1.0  0.03017  0.65599  0.03544  1.0000
  H   H152      1.0  0.26023  0.68834  0.48603  1.0000
  H   H153      1.0  0.12235  0.65598  0.05712  1.0000
  H   H154      1.0  0.04621  0.67853  0.08185  1.0000
  C   C182      1.0  0.25198  0.86813  0.48546  1.0000
  C   C183      1.0  0.19792  0.75183  0.44815  1.0000
  C   C184      1.0  0.26770  0.71376  0.48664  1.0000
  C   C185      1.0  0.25902  0.84203  0.43061  1.0000
  C   C186      1.0  0.18418  0.53750  0.47536  1.0000
  C   C187      1.0  0.28728  0.77971  0.48718  1.0000
  H   H155      1.0  0.11864  0.49581  0.10687  1.0000
  S   S23       1.0  0.32766  0.77138  0.43275  1.0000
  H   H156      1.0  0.05866  0.51423  0.02689  1.0000
  C   C188      1.0  0.05769  0.60583  0.09370  1.0000
  C   C189      1.0  0.00708  0.65589  0.01136  1.0000
  C   C190      1.0  0.16453  0.76148  0.40076  1.0000
  C   C191      1.0  0.26888  0.86381  0.45573  1.0000
  H   H157      1.0  0.01735  0.53079  0.46372  1.0000
  C   C192      1.0  0.11276  0.57377  0.09112  1.0000
  P   P6        1.0  0.26153  0.49226  0.01304  1.0000
  C   C193      1.0  0.19556  0.81389  0.33602  1.0000
  H   H158      1.0  0.02656  0.65512  0.48757  1.0000
  C   C194      1.0  0.29044  0.78158  0.33955  1.0000
  C   C195      1.0  0.06717  0.58679  0.12154  1.0000
  C   C196      1.0  0.13715  0.69596  0.02514  1.0000
  C   C197      1.0  0.26598  0.79650  0.35533  1.0000
  C   C198      1.0  0.19910  0.82479  0.36975  1.0000
  H   H159      1.0  0.19352  0.81713  0.46827  1.0000
  C   C199      1.0  0.18812  0.85580  0.37892  1.0000
  H   H160      1.0  0.21853  0.75686  0.46142  1.0000
  H   H161      1.0  0.28969  0.87740  0.45214  1.0000
  P   P7        1.0  0.06424  0.63347  0.02801  1.0000
  H   H162      1.0  0.32151  0.82655  0.23590  1.0000
  H   H163      1.0  0.03598  0.61721  0.09493  1.0000
  H   H164      1.0  0.01735  0.58602  0.00974  1.0000
  H   H165      1.0  0.19043  0.86474  0.40476  1.0000
  H   H166      1.0  0.28346  0.61030  0.03286  1.0000
  C   C200      1.0  0.17091  0.86486  0.32100  1.0000
  H   H167      1.0  0.13555  0.70350  0.45573  1.0000
  H   H168      1.0  0.29404  0.80529  0.48712  1.0000
  C   C201      1.0  0.25602  0.74633  0.38766  1.0000
  H   H169      1.0  0.26100  0.82188  0.34898  1.0000
  H   H170      1.0  0.15883  0.77385  0.37715  1.0000
  H   H171      1.0  0.29164  0.55044  0.04065  1.0000
  C   C202      1.0  0.07610  0.60966  0.06466  1.0000
  H   H172      1.0  0.16591  0.89979  0.36172  1.0000
  C   C203      1.0  0.32463  0.95943  0.14342  1.0000
  C   C204      1.0  0.14447  0.73808  0.41447  1.0000
  H   H173      1.0  0.32655  0.92257  0.18336  1.0000
  C   C205      1.0  0.17785  0.72851  0.46179  1.0000
  C   C206      1.0  0.09100  0.66522  0.01600  1.0000
  C   C207      1.0  0.28039  0.73142  0.37166  1.0000
  C   C208      1.0  0.26940  0.59270  0.01968  1.0000
  H   H174      1.0  0.15782  0.69967  0.03898  1.0000
  H   H175      1.0  0.30409  0.79542  0.32138  1.0000
  H   H176      1.0  0.23126  0.75546  0.02947  1.0000
  C   C209      1.0  0.33546  0.98824  0.01229  1.0000
  H   H177      1.0  0.25977  0.88497  0.50487  1.0000
  H   H178      1.0  0.20072  0.49254  0.03919  1.0000
  Fe  Fe10      1.0  0.13196  0.65142  0.53594  1.0000
  S   S24       1.0  0.13636  0.61002  0.57348  1.0000
  C   C210      1.0  0.22770  0.58139  0.98244  1.0000
  Fe  Fe11      1.0  0.19621  0.67660  0.54788  1.0000
  S   S25       1.0  0.20490  0.63622  0.58695  1.0000
  S   S26       1.0  0.22657  0.72256  0.54024  1.0000
  Fe  Fe12      1.0  0.18147  0.60225  0.54971  1.0000
  S   S27       1.0  0.19419  0.54806  0.54455  1.0000
  Fe  Fe13      1.0  0.15892  0.64665  0.60761  1.0000
  S   S28       1.0  0.14044  0.64696  0.66217  1.0000
  H   H179      1.0  0.01714  0.66459  0.67143  1.0000
  S   S29       1.0  0.15125  0.68896  0.57126  1.0000
  Fe  Fe14      1.0  0.12911  0.67624  0.89576  1.0000
  S   S30       1.0  0.14489  0.63604  0.86134  1.0000
  S   S31       1.0  0.08302  0.69948  0.88986  1.0000
  Fe  Fe15      1.0  0.19120  0.68526  0.92940  1.0000
  S   S32       1.0  0.21128  0.64501  0.89736  1.0000
  S   S33       1.0  0.21219  0.71442  0.97390  1.0000
  Fe  Fe16      1.0  0.18593  0.66726  0.85323  1.0000
  S   S34       1.0  0.20888  0.67410  0.80145  1.0000
  Fe  Fe17      1.0  0.16881  0.61608  0.90757  1.0000
  S   S35       1.0  0.17038  0.55995  0.91198  1.0000
  S   S36       1.0  0.16873  0.70948  0.88442  1.0000
  S   S37       1.0  0.15018  0.65426  0.94285  1.0000
  C   C211      1.0  0.04891  0.67928  0.90080  1.0000
  C   C212      1.0  0.04772  0.64550  0.90775  1.0000
  C   C213      1.0  0.02237  0.69757  0.90257  1.0000
  H   H180      1.0  0.06785  0.63105  0.90586  1.0000
  H   H181      1.0  0.02308  0.72376  0.89721  1.0000
  H   H182      1.0  0.26631  0.72743  0.93173  1.0000
  C   C214      1.0  0.24536  0.73894  0.97973  1.0000
  C   C215      1.0  0.14424  0.56836  0.80135  1.0000
  H   H183      1.0  0.21193  0.85420  0.51303  1.0000
  H   H184      1.0  0.31939  0.97911  0.52002  1.0000
  C   C216      1.0  0.16062  0.53436  0.94741  1.0000
  H   H185      1.0  0.21770  0.58824  0.78979  1.0000
  C   C217      1.0  0.05502  0.66031  0.53147  1.0000
  C   C218      1.0  0.05570  0.66502  0.56682  1.0000
  H   H186      1.0  0.11223  0.51971  0.69661  1.0000
  H   H187      1.0  0.07694  0.66607  0.57987  1.0000
  C   C219      1.0  0.06352  0.49984  0.74867  1.0000
  C   C220      1.0  0.16062  0.65323  0.70037  1.0000
  C   C221      1.0  0.19107  0.66146  0.70040  1.0000
  C   C222      1.0  0.20569  0.66771  0.73153  1.0000
  C   C223      1.0  0.19010  0.66547  0.76280  1.0000
  C   C224      1.0  0.15981  0.65685  0.76270  1.0000
  C   C225      1.0  0.14519  0.65070  0.73168  1.0000
  H   H188      1.0  0.20334  0.66307  0.67654  1.0000
  H   H189      1.0  0.22918  0.67428  0.73140  1.0000
  H   H190      1.0  0.14773  0.65509  0.78661  1.0000
  H   H191      1.0  0.12189  0.64350  0.73198  1.0000
  H   H192      1.0  0.00527  0.75371  0.68081  1.0000
  S   S38       1.0  0.33223  0.79959  0.99959  1.0000
  C   C226      1.0  0.08430  0.57317  0.94800  1.0000
  C   C227      1.0  0.07173  0.59804  0.66457  1.0000
  H   H193      1.0  0.07274  0.65526  0.82745  1.0000
  C   C228      1.0  0.15104  0.54726  0.97859  1.0000
  C   C229      1.0  0.30056  0.90139  0.97673  1.0000
  H   H194      1.0  0.10490  0.52898  0.63469  1.0000
  H   H195      1.0  0.14670  0.73525  0.98918  1.0000
  H   H196      1.0  0.00882  0.64168  0.98829  1.0000
  C   C230      1.0  0.09643  0.54659  0.65294  1.0000
  C   C231      1.0  0.08262  0.61368  0.79545  1.0000
  C   C232      1.0  0.02039  0.63034  0.91705  1.0000
  H   H197      1.0  0.10537  0.62177  0.79091  1.0000
  C   C233      1.0  0.08192  0.57480  0.64125  1.0000
  C   C234      1.0  0.08701  0.51533  0.76626  1.0000
  H   H198      1.0  0.15042  0.57225  0.71435  1.0000
  C   C235      1.0  0.33278  0.87144  0.59320  1.0000
  H   H199      1.0  0.02024  0.63784  0.83850  1.0000
  H   H200      1.0  0.06932  0.61233  0.71719  1.0000
  H   H201      1.0  0.33045  0.88749  0.61501  1.0000
  H   H202      1.0  0.20952  0.59009  0.96661  1.0000
  C   C236      1.0  0.05817  0.74362  0.61920  1.0000
  C   C237      1.0  0.08335  0.75430  0.63715  1.0000
  C   C238      1.0  0.08076  0.76425  0.67143  1.0000
  C   C239      1.0  0.05226  0.76422  0.68683  1.0000
  P   P8        1.0  0.11290  0.78097  0.69376  1.0000
  C   C240      1.0  0.11434  0.76606  0.73765  1.0000
  C   C241      1.0  0.14662  0.77050  0.67056  1.0000
  C   C242      1.0  0.15255  0.73744  0.66306  1.0000
  C   C243      1.0  0.17747  0.72918  0.64332  1.0000
  C   C244      1.0  0.19650  0.75381  0.63045  1.0000
  C   C245      1.0  0.19099  0.78679  0.63797  1.0000
  C   C246      1.0  0.16620  0.79517  0.65802  1.0000
  C   C247      1.0  0.13724  0.74503  0.74880  1.0000
  C   C248      1.0  0.13871  0.73519  0.78314  1.0000
  C   C249      1.0  0.11725  0.74569  0.80657  1.0000
  C   C250      1.0  0.09467  0.76687  0.79591  1.0000
  C   C251      1.0  0.09347  0.77742  0.76179  1.0000
  C   C252      1.0  0.10931  0.82521  0.69473  1.0000
  C   C253      1.0  0.12396  0.84344  0.72006  1.0000
  H   H203      1.0  0.05120  0.51306  0.72924  1.0000
  C   C254      1.0  0.10492  0.89415  0.69576  1.0000
  C   C255      1.0  0.09054  0.87619  0.67026  1.0000
  C   C256      1.0  0.09278  0.84184  0.66963  1.0000
  C   C257      1.0  0.06408  0.63290  0.81600  1.0000
  H   H204      1.0  0.03310  0.55205  0.77727  1.0000
  H   H205      1.0  0.06044  0.73551  0.59295  1.0000
  H   H206      1.0  0.10464  0.75491  0.62386  1.0000
  H   H207      1.0  0.04919  0.77220  0.71278  1.0000
  H   H208      1.0  0.13759  0.71801  0.67190  1.0000
  H   H209      1.0  0.18168  0.70361  0.63740  1.0000
  H   H210      1.0  0.21525  0.74726  0.61425  1.0000
  H   H211      1.0  0.20574  0.80585  0.62782  1.0000
  H   H212      1.0  0.16223  0.82092  0.66305  1.0000
  H   H213      1.0  0.15435  0.73638  0.73152  1.0000
  H   H214      1.0  0.15675  0.71959  0.79180  1.0000
  H   H215      1.0  0.11832  0.73768  0.83310  1.0000
  H   H216      1.0  0.07835  0.77540  0.81436  1.0000
  H   H217      1.0  0.07658  0.79501  0.75455  1.0000
  H   H218      1.0  0.13733  0.83116  0.73927  1.0000
  C   C258      1.0  0.07196  0.58404  0.78158  1.0000
  H   H219      1.0  0.01963  0.60421  0.92219  1.0000
  H   H220      1.0  0.07773  0.88891  0.65085  1.0000
  H   H221      1.0  0.08175  0.82842  0.64942  1.0000
  C   C259      1.0  0.29464  0.75954  0.96188  1.0000
  H   H222      1.0  0.21696  0.53058  0.97462  1.0000
  H   H223      1.0  0.10321  0.92078  0.69617  1.0000
  C   C260      1.0  0.02710  0.75384  0.66865  1.0000
  C   C261      1.0  0.18611  0.52369  0.50815  1.0000
  C   C262      1.0  0.03511  0.55730  0.96860  1.0000
  C   C263      1.0  0.29084  0.73016  0.58875  1.0000
  C   C264      1.0  0.03453  0.62307  0.82230  1.0000
  H   H224      1.0  0.10526  0.61361  0.97344  1.0000
  C   C265      1.0  0.32578  0.69219  0.56346  1.0000
  C   C266      1.0  0.06112  0.60377  0.99412  1.0000
  C   C267      1.0  0.15658  0.57220  0.74104  1.0000
  H   H225      1.0  0.29637  0.83199  0.78953  1.0000
  S   S39       1.0  0.17596  0.64181  0.50927  1.0000
  C   C268      1.0  0.03420  0.68438  0.75353  1.0000
  C   C269      1.0  0.06456  0.69177  0.74881  1.0000
  C   C270      1.0  0.07738  0.69031  0.71628  1.0000
  C   C271      1.0  0.06009  0.68086  0.68850  1.0000
  C   C272      1.0  0.30671  0.96044  0.91762  1.0000
  C   C273      1.0  0.14374  0.52590  0.00606  1.0000
  H   H226      1.0  0.31318  0.90614  0.55780  1.0000
  H   H227      1.0  0.18078  0.57687  0.83596  1.0000
  H   H228      1.0  0.20227  0.58533  0.72910  1.0000
  C   C274      1.0  0.13086  0.71621  0.99708  1.0000
  C   C275      1.0  0.01630  0.67553  0.72557  1.0000
  H   H229      1.0  0.07911  0.57906  0.61404  1.0000
  H   H230      1.0  0.07830  0.69818  0.77051  1.0000
  H   H231      1.0  0.10087  0.69596  0.71256  1.0000
  H   H232      1.0  0.07040  0.67920  0.66338  1.0000
  C   C276      1.0  0.09049  0.56486  0.71165  1.0000
  C   C277      1.0  0.26844  0.74081  0.95538  1.0000
  C   C278      1.0  0.08536  0.59848  0.97197  1.0000
  C   C279      1.0  0.31257  0.75511  0.58759  1.0000
  H   H233      1.0  0.13297  0.89172  0.74026  1.0000
  C   C280      1.0  0.28222  0.86431  0.82978  1.0000
  P   P9        1.0  0.09646  0.55798  0.75683  1.0000
  C   C281      1.0  0.03005  0.74338  0.63491  1.0000
  C   C282      1.0  0.10059  0.54152  0.68799  1.0000
  H   H234      1.0  0.25993  0.86742  0.81962  1.0000
  C   C283      1.0  0.04209  0.57457  0.78773  1.0000
  C   C284      1.0  0.07631  0.59340  0.69967  1.0000
  C   C285      1.0  0.12166  0.87778  0.72061  1.0000
  C   C286      1.0  0.02353  0.59399  0.80806  1.0000
  H   H235      1.0  0.10308  0.56944  0.93081  1.0000
  H   H236      1.0  0.28963  0.95120  0.93492  1.0000
  C   C287      1.0  0.26337  0.84644  0.96810  1.0000
  C   C288      1.0  0.28367  0.85566  0.94233  1.0000
  C   C289      1.0  0.18625  0.57963  0.74927  1.0000
  H   H237      1.0  0.02975  0.67406  0.61224  1.0000
  H   H238      1.0  0.26856  0.73529  0.59817  1.0000
  C   C290      1.0  0.13520  0.56667  0.76705  1.0000
  C   C291      1.0  0.08482  0.68576  0.98789  1.0000
  H   H239      1.0  0.12821  0.56482  0.82199  1.0000
  P   P10       1.0  0.32848  0.89583  0.91316  1.0000
  H   H240      1.0  0.14929  0.57363  0.98152  1.0000
  C   C292      1.0  0.02979  0.67315  0.69313  1.0000
  C   C293      1.0  0.17403  0.57532  0.80943  1.0000
  H   H241      1.0  0.25477  0.50009  0.93879  1.0000
  C   C294      1.0  0.10458  0.71127  0.97864  1.0000
  C   C295      1.0  0.19495  0.58133  0.78343  1.0000
  C   C296      1.0  0.05924  0.55250  0.94638  1.0000
  C   C297      1.0  0.32278  0.88188  0.56113  1.0000
  H   H242      1.0  0.01547  0.54157  0.96690  1.0000
  H   H243      1.0  0.06101  0.62003  0.65508  1.0000
  C   C298      1.0  0.30276  0.84440  0.81282  1.0000
  C   C299      1.0  0.32824  0.93948  0.90338  1.0000
  C   C300      1.0  0.02891  0.66955  0.58514  1.0000
  H   H244      1.0  0.27996  0.67997  0.57617  1.0000
  C   C301      1.0  0.27996  0.89238  0.00223  1.0000
  H   H245      1.0  0.28542  0.84028  0.92000  1.0000
  S   S40       1.0  0.08849  0.65795  0.50724  1.0000
  C   C302      1.0  0.29031  0.88003  0.86005  1.0000
  C   C303      1.0  0.26147  0.86482  0.99802  1.0000
  H   H246      1.0  0.24268  0.63026  0.99546  1.0000
  H   H247      1.0  0.09987  0.72670  0.95659  1.0000
  C   C304      1.0  0.29730  0.69884  0.57637  1.0000
  H   H248      1.0  0.33063  0.66796  0.55359  1.0000
  C   C305      1.0  0.24635  0.60400  0.99876  1.0000
  H   H249      1.0  0.31773  0.86913  0.50822  1.0000
  H   H250      1.0  0.06476  0.68203  0.97298  1.0000
  H   H251      1.0  0.27415  0.89532  0.87305  1.0000
  C   C306      1.0  0.30197  0.88373  0.94613  1.0000
  C   C307      1.0  0.26538  0.76817  0.51075  1.0000
  H   H252      1.0  0.31238  0.76036  0.94298  1.0000
  H   H253      1.0  0.31538  0.92217  0.98092  1.0000
  C   C308      1.0  0.23226  0.54755  0.98665  1.0000
  C   C309      1.0  0.03613  0.58268  0.99258  1.0000
  C   C310      1.0  0.16331  0.50002  0.94427  1.0000
  H   H254      1.0  0.24971  0.82442  0.96530  1.0000
  H   H255      1.0  0.01059  0.73498  0.62087  1.0000
  C   C311      1.0  0.29816  0.77705  0.99260  1.0000
  H   H256      1.0  0.01457  0.60659  0.72461  1.0000
  H   H257      1.0  0.25582  0.78515  0.52885  1.0000
  C   C312      1.0  0.31893  0.87562  0.87377  1.0000
  C   C313      1.0  0.25611  0.53597  0.00644  1.0000
  H   H258      1.0  0.30679  0.77934  0.59668  1.0000
  H   H259      1.0  0.05851  0.53287  0.92782  1.0000
  C   C314      1.0  0.32529  0.86101  0.53314  1.0000
  C   C315      1.0  0.33151  0.84046  0.82594  1.0000
  H   H260      1.0  0.02533  0.68494  0.77919  1.0000
  H   H261      1.0  0.12034  0.50847  0.80577  1.0000
  C   C316      1.0  0.02724  0.65878  0.51491  1.0000
  H   H262      1.0  0.31565  0.52576  0.98538  1.0000
  C   C317      1.0  0.10226  0.49749  0.79159  1.0000
  H   H263      1.0  0.00801  0.55392  0.69439  1.0000
  C   C318      1.0  0.25524  0.73517  0.51058  1.0000
  C   C319      1.0  0.32165  0.50142  0.99436  1.0000
  C   C320      1.0  0.47936  0.07225  0.02974  1.0000
  H   H264      1.0  0.52328  0.00403  0.47130  1.0000
  H   H265      1.0  0.65285  0.14983  0.43351  1.0000
  H   H266      1.0  0.55908  0.16022  0.39318  1.0000
  C   C321      1.0  0.39967  0.09094  0.20625  1.0000
  H   H267      1.0  0.49216  0.05219  0.04044  1.0000
  H   H268      1.0  0.57811  0.07538  0.07679  1.0000
  H   H269      1.0  0.36057  0.10168  0.02016  1.0000
  C   C322      1.0  0.54433  0.09380  0.40409  1.0000
  C   C323      1.0  0.45742  0.10395  0.46645  1.0000
  C   C324      1.0  0.56449  0.08021  0.47493  1.0000
  H   H270      1.0  0.58206  0.06074  0.40804  1.0000
  H   H271      1.0  0.40945  0.02478  0.46188  1.0000
  C   C325      1.0  0.50476  0.99587  0.45573  1.0000
  H   H272      1.0  0.57754  0.04023  0.34931  1.0000
  H   H273      1.0  0.47035  0.17773  0.50431  1.0000
  C   C326      1.0  0.53923  0.06957  0.33731  1.0000
  C   C327      1.0  0.50401  0.00487  0.42116  1.0000
  C   C328      1.0  0.39923  0.06430  0.15087  1.0000
  H   H274      1.0  0.52786  0.00325  0.01724  1.0000
  C   C329      1.0  0.50409  0.14832  0.47974  1.0000
  C   C330      1.0  0.42968  0.11340  0.15974  1.0000
  C   C331      1.0  0.57148  0.16682  0.41576  1.0000
  H   H275      1.0  0.60907  0.08860  0.45483  1.0000
  C   C332      1.0  0.53656  0.21319  0.04362  1.0000
  H   H276      1.0  0.62923  0.07852  0.35759  1.0000
  H   H277      1.0  0.59003  0.21082  0.39220  1.0000
  H   H278      1.0  0.44987  0.02998  0.12803  1.0000
  C   C333      1.0  0.37531  0.03373  0.49979  1.0000
  H   H279      1.0  0.52176  0.01997  0.41027  1.0000
  H   H280      1.0  0.61498  0.19350  0.49660  1.0000
  C   C334      1.0  0.57800  0.19107  0.01139  1.0000
  H   H281      1.0  0.50625  0.12393  0.39077  1.0000
  C   C335      1.0  0.36422  0.00091  0.14331  1.0000
  C   C336      1.0  0.58563  0.15713  0.47459  1.0000
  H   H282      1.0  0.50584  0.17778  0.06552  1.0000
  H   H283      1.0  0.50159  0.10203  0.33260  1.0000
  H   H284      1.0  0.53723  0.06015  0.31159  1.0000
  H   H285      1.0  0.65045  0.00054  0.44777  1.0000
  H   H286      1.0  0.47962  0.00131  0.37393  1.0000
  C   C337      1.0  0.52593  0.18121  0.05024  1.0000
  P   P11       1.0  0.54723  0.11004  0.44687  1.0000
  C   C338      1.0  0.65484  0.12531  0.42296  1.0000
  C   C339      1.0  0.38989  0.01480  0.47483  1.0000
  C   C340      1.0  0.57009  0.14702  0.44540  1.0000
  C   C341      1.0  0.45070  0.06583  0.01721  1.0000
  C   C342      1.0  0.41259  0.01452  0.09675  1.0000
  H   H287      1.0  0.61726  0.04184  0.05012  1.0000
  C   C343      1.0  0.48647  0.09687  0.45571  1.0000
  H   H288      1.0  0.52400  0.06790  0.50337  1.0000
  C   C344      1.0  0.56722  0.15911  0.01753  1.0000
  H   H289      1.0  0.63320  0.04956  0.49413  1.0000
  C   C345      1.0  0.51919  0.09312  0.34912  1.0000
  C   C346      1.0  0.60298  0.18595  0.47391  1.0000
  H   H290      1.0  0.62468  0.13449  0.38141  1.0000
  H   H291      1.0  0.61831  0.22744  0.44376  1.0000
  C   C347      1.0  0.54898  0.12146  0.14813  1.0000
  C   C348      1.0  0.46438  0.99925  0.08698  1.0000
  C   C349      1.0  0.37024  0.07090  0.06372  1.0000
  H   H292      1.0  0.48651  0.07403  0.15885  1.0000
  C   C350      1.0  0.41920  0.08851  0.13830  1.0000
  H   H293      1.0  0.46655  0.03365  0.49965  1.0000
  C   C351      1.0  0.56192  0.05825  0.35866  1.0000
  C   C352      1.0  0.51000  0.11917  0.46196  1.0000
  H   H294      1.0  0.56644  0.13334  0.16278  1.0000
  P   P12       1.0  0.52762  0.11266  0.04702  1.0000
  H   H295      1.0  0.48349  0.15437  0.01049  1.0000
  H   H296      1.0  0.37228  0.04900  0.19463  1.0000
  C   C353      1.0  0.56447  0.07016  0.39198  1.0000
  C   C354      1.0  0.50395  0.09094  0.11018  1.0000
  C   C355      1.0  0.42004  0.11451  0.19376  1.0000
  P   P13       1.0  0.66466  0.02102  0.37814  1.0000
  C   C356      1.0  0.59544  0.07497  0.47301  1.0000
  C   C357      1.0  0.52182  0.10535  0.38224  1.0000
  H   H297      1.0  0.33677  0.23171  0.01589  1.0000
  P   P14       1.0  0.38408  0.03419  0.12195  1.0000
  C   C358      1.0  0.45164  0.13315  0.48374  1.0000
  H   H298      1.0  0.52187  0.16549  0.48591  1.0000
  C   C359      1.0  0.47491  0.15536  0.49030  1.0000
  C   C360      1.0  0.54911  0.12427  0.11248  1.0000
  H   H299      1.0  0.52457  0.23419  0.05344  1.0000
  H   H300      1.0  0.42612  0.08855  0.11169  1.0000
  C   C361      1.0  0.52644  0.10333  0.16482  1.0000
  C   C362      1.0  0.35251  0.09224  0.04451  1.0000
  H   H301      1.0  0.57087  0.24283  0.01897  1.0000
  H   H302      1.0  0.63847  0.48744  0.48873  1.0000
  C   C363      1.0  0.52666  0.10895  0.09315  1.0000
  C   C364      1.0  0.58896  0.19562  0.41510  1.0000
  H   H303      1.0  0.52640  0.10116  0.19245  1.0000
  C   C365      1.0  0.50397  0.08805  0.14585  1.0000
  C   C366      1.0  0.63903  0.11662  0.39364  1.0000
  C   C367      1.0  0.55382  0.08360  0.02963  1.0000
  C   C368      1.0  0.49128  0.10441  0.02869  1.0000
  C   C369      1.0  0.66082  0.06191  0.39561  1.0000
  C   C370      1.0  0.57683  0.07048  0.04975  1.0000
  H   H304      1.0  0.48614  0.07919  0.09625  1.0000
  C   C371      1.0  0.35977  0.05820  0.09510  1.0000
  H   H305      1.0  0.43926  0.08669  0.46182  1.0000
  H   H306      1.0  0.42780  0.13408  0.21026  1.0000
  H   H307      1.0  0.48767  0.00015  0.09432  1.0000
  H   H308      1.0  0.56692  0.13823  0.09996  1.0000
  C   C372      1.0  0.54097  0.15390  0.03693  1.0000
  C   C373      1.0  0.64181  0.08495  0.38014  1.0000
  H   H309      1.0  0.34419  0.41311  0.02234  1.0000
  C   C374      1.0  0.59931  0.05163  0.03470  1.0000
  C   C375      1.0  0.60480  0.20511  0.44413  1.0000
  C   C376      1.0  0.66182  0.48060  0.48969  1.0000
  H   H310      1.0  0.44481  0.13223  0.14977  1.0000
  C   C377      1.0  0.38902  0.06611  0.18482  1.0000
  H   H311      1.0  0.49055  0.07396  0.44264  1.0000
  H   H312      1.0  0.54920  0.00311  0.07525  1.0000
  C   C378      1.0  0.40404  0.99477  0.06921  1.0000
  C   C379      1.0  0.48034  0.99432  0.40070  1.0000
  C   C380      1.0  0.60919  0.05276  0.49528  1.0000
  H   H313      1.0  0.39213  0.06460  0.05412  1.0000
  H   H314      1.0  0.39764  0.99425  0.18253  1.0000
  C   C381      1.0  0.66532  0.02042  0.33195  1.0000
  H   H315      1.0  0.39155  0.09232  0.23238  1.0000
  H   H316      1.0  0.42914  0.13828  0.49250  1.0000
  C   C382      1.0  0.33798  0.43783  0.01472  1.0000
  H   H317      1.0  0.44140  0.04112  0.01850  1.0000
  C   C383      1.0  0.56261  0.21810  0.02423  1.0000
  C   C384      1.0  0.47461  0.12962  0.01331  1.0000
  C   C385      1.0  0.44289  0.01630  0.10587  1.0000
  H   H318      1.0  0.58431  0.14281  0.49798  1.0000
  C   C386      1.0  0.63368  0.99772  0.39620  1.0000
  C   C387      1.0  0.54758  0.06325  0.49995  1.0000
  Fe  Fe18      1.0  0.40727  0.17173  0.57826  1.0000
  S   S41       1.0  0.40460  0.11853  0.59324  1.0000
  S   S42       1.0  0.45243  0.19861  0.57979  1.0000
  H   H319      1.0  0.53645  0.08789  0.97832  1.0000
  Fe  Fe19      1.0  0.37473  0.11253  0.54774  1.0000
  H   H320      1.0  0.45592  0.37560  0.99292  1.0000
  S   S43       1.0  0.36778  0.18619  0.61104  1.0000
  S   S44       1.0  0.37911  0.16594  0.53101  1.0000
  Fe  Fe20      1.0  0.39866  0.18044  0.93088  1.0000
  S   S45       1.0  0.39640  0.14256  0.88983  1.0000
  S   S46       1.0  0.44235  0.20563  0.94603  1.0000
  Fe  Fe21      1.0  0.35643  0.16998  0.87073  1.0000
  Fe  Fe22      1.0  0.36400  0.11568  0.92503  1.0000
  C   C388      1.0  0.35459  0.11461  0.74618  1.0000
  S   S47       1.0  0.36040  0.21012  0.91016  1.0000
  S   S48       1.0  0.36890  0.15215  0.96747  1.0000
  Fe  Fe23      1.0  0.62205  0.13027  0.56810  1.0000
  S   S49       1.0  0.64797  0.08839  0.59095  1.0000
  S   S50       1.0  0.57277  0.11710  0.56232  1.0000
  S   S51       1.0  0.38941  0.07384  0.50876  1.0000
  C   C389      1.0  0.37339  0.27673  0.70432  1.0000
  S   S52       1.0  0.64493  0.16931  0.59925  1.0000
  H   H321      1.0  0.40266  0.37770  0.97702  1.0000
  Fe  Fe24      1.0  0.61645  0.14654  0.92884  1.0000
  S   S53       1.0  0.63956  0.11465  0.89044  1.0000
  S   S54       1.0  0.56696  0.13206  0.93012  1.0000
  C   C390      1.0  0.56141  0.04118  0.52232  1.0000
  C   C391      1.0  0.35427  0.30712  0.90636  1.0000
  C   C392      1.0  0.35407  0.28465  0.73118  1.0000
  H   H322      1.0  0.36056  0.20970  0.74590  1.0000
  S   S55       1.0  0.64958  0.13581  0.97077  1.0000
  C   C393      1.0  0.34737  0.27445  0.98494  1.0000
  C   C394      1.0  0.60317  0.01911  0.87742  1.0000
  H   H323      1.0  0.41926  0.15103  0.73965  1.0000
  H   H324      1.0  0.57692  0.05596  0.95194  1.0000
  H   H325      1.0  0.41620  0.09441  0.71697  1.0000
  C   C395      1.0  0.47709  0.18580  0.93922  1.0000
  C   C396      1.0  0.50399  0.20312  0.94487  1.0000
  C   C397      1.0  0.53187  0.18751  0.94107  1.0000
  C   C398      1.0  0.53301  0.15414  0.93258  1.0000
  C   C399      1.0  0.50615  0.13697  0.92669  1.0000
  C   C400      1.0  0.47838  0.15278  0.92949  1.0000
  H   H326      1.0  0.50328  0.22870  0.95229  1.0000
  H   H327      1.0  0.55239  0.20110  0.94526  1.0000
  P   P15       1.0  0.36243  0.32926  0.94513  1.0000
  H   H328      1.0  0.45794  0.13914  0.92492  1.0000
  H   H329      1.0  0.36728  0.44575  0.90613  1.0000
  C   C401      1.0  0.47592  0.99961  0.54133  1.0000
  C   C402      1.0  0.35392  0.13173  0.77739  1.0000
  C   C403      1.0  0.48615  0.17596  0.57654  1.0000
  C   C404      1.0  0.48560  0.14193  0.57165  1.0000
  C   C405      1.0  0.51239  0.12448  0.56771  1.0000
  C   C406      1.0  0.54017  0.14072  0.56896  1.0000
  C   C407      1.0  0.54097  0.17477  0.57431  1.0000
  C   C408      1.0  0.51401  0.19233  0.57788  1.0000
  H   H330      1.0  0.46445  0.12919  0.56999  1.0000
  H   H331      1.0  0.36187  0.17936  0.69102  1.0000
  H   H332      1.0  0.56225  0.18760  0.57517  1.0000
  H   H333      1.0  0.51475  0.21873  0.58133  1.0000
  H   H334      1.0  0.52506  0.03326  0.94103  1.0000
  H   H335      1.0  0.39621  0.28594  0.70404  1.0000
  C   C409      1.0  0.41829  0.29981  0.95095  1.0000
  C   C410      1.0  0.34021  0.27222  0.84680  1.0000
  C   C411      1.0  0.53016  0.16639  0.83436  1.0000
  C   C412      1.0  0.56006  0.17415  0.84093  1.0000
  C   C413      1.0  0.58031  0.17807  0.81384  1.0000
  C   C414      1.0  0.57074  0.17408  0.78016  1.0000
  C   C415      1.0  0.54079  0.16574  0.77327  1.0000
  C   C416      1.0  0.52051  0.16214  0.80070  1.0000
  P   P16       1.0  0.52923  0.15896  0.72952  1.0000
  C   C417      1.0  0.55779  0.13518  0.70845  1.0000
  C   C418      1.0  0.49379  0.13726  0.72773  1.0000
  C   C419      1.0  0.46736  0.15377  0.73643  1.0000
  C   C420      1.0  0.43958  0.13815  0.73297  1.0000
  C   C421      1.0  0.46403  0.08949  0.71163  1.0000
  C   C422      1.0  0.49193  0.10492  0.71535  1.0000
  C   C423      1.0  0.56333  0.13915  0.67326  1.0000
  C   C424      1.0  0.58608  0.12136  0.65745  1.0000
  C   C425      1.0  0.60333  0.09943  0.67645  1.0000
  C   C426      1.0  0.59779  0.09506  0.71135  1.0000
  C   C427      1.0  0.57489  0.11255  0.72727  1.0000
  C   C428      1.0  0.52445  0.19756  0.70684  1.0000
  C   C429      1.0  0.53959  0.22624  0.71706  1.0000
  C   C430      1.0  0.53581  0.25585  0.69903  1.0000
  C   C431      1.0  0.51688  0.25705  0.67075  1.0000
  C   C432      1.0  0.50174  0.22863  0.66043  1.0000
  C   C433      1.0  0.50560  0.19898  0.67822  1.0000
  H   H336      1.0  0.51454  0.16335  0.85550  1.0000
  H   H337      1.0  0.56761  0.17689  0.86706  1.0000
  H   H338      1.0  0.60358  0.18385  0.81900  1.0000
  H   H339      1.0  0.58695  0.17691  0.75957  1.0000
  H   H340      1.0  0.49737  0.15560  0.79649  1.0000
  H   H341      1.0  0.46818  0.17891  0.74547  1.0000
  C   C434      1.0  0.35735  0.13163  0.71479  1.0000
  H   H342      1.0  0.51184  0.09176  0.70792  1.0000
  H   H343      1.0  0.55036  0.15600  0.65786  1.0000
  H   H344      1.0  0.59057  0.12484  0.63046  1.0000
  H   H345      1.0  0.62126  0.08608  0.66420  1.0000
  H   H346      1.0  0.61166  0.07852  0.72612  1.0000
  H   H347      1.0  0.57091  0.10872  0.75435  1.0000
  H   H348      1.0  0.55439  0.22590  0.73879  1.0000
  H   H349      1.0  0.54767  0.27785  0.70693  1.0000
  H   H350      1.0  0.51402  0.27991  0.65668  1.0000
  H   H351      1.0  0.48708  0.22941  0.63843  1.0000
  H   H352      1.0  0.49399  0.17715  0.66930  1.0000
  H   H353      1.0  0.35149  0.11835  0.80131  1.0000
  C   C435      1.0  0.34735  0.36991  0.93766  1.0000
  C   C436      1.0  0.35947  0.45945  0.00096  1.0000
  H   H354      1.0  0.38241  0.45154  0.99803  1.0000
  C   C437      1.0  0.46819  0.02204  0.59811  1.0000
  C   C438      1.0  0.66848  0.00419  0.53235  1.0000
  C   C439      1.0  0.47511  0.99552  0.57703  1.0000
  H   H355      1.0  0.66534  0.17879  0.69489  1.0000
  H   H356      1.0  0.35838  0.26005  0.96552  1.0000
  C   C440      1.0  0.36925  0.00121  0.96505  1.0000
  C   C441      1.0  0.45110  0.01704  0.95159  1.0000
  C   C442      1.0  0.43787  0.10613  0.72034  1.0000
  C   C443      1.0  0.35792  0.03333  0.96256  1.0000
  S   S56       1.0  0.65372  0.13568  0.52345  1.0000
  C   C444      1.0  0.34501  0.30876  0.98139  1.0000
  C   C445      1.0  0.36527  0.39510  0.92328  1.0000
  H   H357      1.0  0.33854  0.03476  0.53544  1.0000
  Fe  Fe25      1.0  0.36357  0.13217  0.62304  1.0000
  C   C446      1.0  0.46802  0.03015  0.52701  1.0000
  C   C447      1.0  0.46200  0.32608  0.97510  1.0000
  C   C448      1.0  0.35582  0.16614  0.77749  1.0000
  C   C449      1.0  0.35885  0.18312  0.74611  1.0000
  H   H358      1.0  0.48525  0.32496  0.98262  1.0000
  C   C450      1.0  0.36966  0.28231  0.85275  1.0000
  H   H359      1.0  0.46776  0.01890  0.62562  1.0000
  S   S57       1.0  0.35300  0.18922  0.81574  1.0000
  C   C451      1.0  0.46109  0.05253  0.58367  1.0000
  H   H360      1.0  0.63834  0.01242  0.91378  1.0000
  C   C452      1.0  0.61515  0.00725  0.90794  1.0000
  C   C453      1.0  0.66912  0.16001  0.78048  1.0000
  S   S58       1.0  0.35759  0.10899  0.67617  1.0000
  H   H361      1.0  0.45542  0.07301  0.59998  1.0000
  C   C454      1.0  0.50501  0.01905  0.94662  1.0000
  H   H362      1.0  0.38836  0.39053  0.91649  1.0000
  H   H363      1.0  0.51162  0.09823  0.56339  1.0000
  C   C455      1.0  0.47738  0.03467  0.94449  1.0000
  S   S59       1.0  0.37374  0.06088  0.93181  1.0000
  H   H364      1.0  0.36192  0.30005  0.75179  1.0000
  H   H365      1.0  0.65880  0.01930  0.55211  1.0000
  H   H366      1.0  0.39954  0.30802  0.88588  1.0000
  C   C456      1.0  0.35964  0.16601  0.71494  1.0000
  H   H367      1.0  0.56393  0.02218  0.84610  1.0000
  C   C457      1.0  0.46063  0.05643  0.54817  1.0000
  H   H368      1.0  0.45381  0.07971  0.53705  1.0000
  H   H369      1.0  0.47623  0.06053  0.93732  1.0000
  S   S60       1.0  0.64097  0.19225  0.91134  1.0000
  C   C458      1.0  0.44620  0.12294  0.00023  1.0000
  C   C459      1.0  0.66788  0.16403  0.71782  1.0000
  H   H370      1.0  0.46258  0.06479  0.70154  1.0000
  H   H371      1.0  0.60293  0.01935  0.53786  1.0000
  C   C460      1.0  0.57322  0.01282  0.86976  1.0000
  C   C461      1.0  0.55513  0.99519  0.89293  1.0000
  H   H372      1.0  0.42974  0.02932  0.94971  1.0000
  C   C462      1.0  0.36333  0.25670  0.67785  1.0000
  C   C463      1.0  0.37666  0.30012  0.88216  1.0000
  C   C464      1.0  0.44831  0.29861  0.96048  1.0000
  C   C465      1.0  0.35001  0.02048  0.51626  1.0000
  H   H373      1.0  0.46077  0.27605  0.95690  1.0000
  H   H374      1.0  0.40797  0.27774  0.94071  1.0000
  C   C466      1.0  0.57626  0.05886  0.97945  1.0000
  H   H375      1.0  0.50683  0.11125  0.91981  1.0000
  H   H376      1.0  0.61720  0.03258  0.98776  1.0000
  H   H377      1.0  0.54846  0.02956  0.54259  1.0000
  C   C467      1.0  0.40184  0.32891  0.95503  1.0000
  Fe  Fe26      1.0  0.33904  0.17569  0.56481  1.0000
  H   H378      1.0  0.61711  0.03347  0.85991  1.0000
  H   H379      1.0  0.38713  0.27565  0.83484  1.0000
  H   H380      1.0  0.36570  0.99637  0.85402  1.0000
  H   H381      1.0  0.43371  0.14250  0.98797  1.0000
  C   C468      1.0  0.66531  0.17866  0.75029  1.0000
  C   C469      1.0  0.44548  0.35464  0.98072  1.0000
  C   C470      1.0  0.41539  0.35590  0.97121  1.0000
  C   C471      1.0  0.55340  0.07709  0.99450  1.0000
  H   H382      1.0  0.38622  0.99345  0.94720  1.0000
  C   C472      1.0  0.59918  0.04613  0.99953  1.0000
  H   H383      1.0  0.41240  0.08592  0.99131  1.0000
  H   H384      1.0  0.59812  0.19482  0.99612  1.0000
  H   H385      1.0  0.65523  0.44489  0.53023  1.0000
  H   H386      1.0  0.65994  0.30654  0.88905  1.0000
  C   C473      1.0  0.43423  0.09109  0.00211  1.0000
  C   C474      1.0  0.59216  0.03579  0.51990  1.0000
  H   H387      1.0  0.37832  0.25041  0.65704  1.0000
  H   H388      1.0  0.66099  0.20477  0.75204  1.0000
  H   H389      1.0  0.35281  0.08801  0.74633  1.0000
  Fe  Fe27      1.0  0.66595  0.15946  0.87496  1.0000
  C   C475      1.0  0.35331  0.42633  0.91701  1.0000
  C   C476      1.0  0.35127  0.49115  0.99059  1.0000
  H   H390      1.0  0.57953  0.13881  0.00681  1.0000
  H   H391      1.0  0.33593  0.33370  0.51991  1.0000
  Fe  Fe28      1.0  0.41815  0.85055  0.43183  1.0000
  S   S61       1.0  0.40428  0.89790  0.40692  1.0000
  S   S62       1.0  0.46329  0.84906  0.45819  1.0000
  Fe  Fe29      1.0  0.66729  0.87612  0.45402  1.0000
  H   H392      1.0  0.57000  0.89584  0.48370  1.0000
  C   C477      1.0  0.37769  0.87060  0.27299  1.0000
  S   S63       1.0  0.37728  0.84775  0.46545  1.0000
  S   S64       1.0  0.39787  0.81791  0.39191  1.0000
  C   C478      1.0  0.56113  0.91343  0.50174  1.0000
  S   S65       1.0  0.38233  0.82933  0.07943  1.0000
  H   H393      1.0  0.61728  0.92593  0.34315  1.0000
  H   H394      1.0  0.34236  0.83964  0.29310  1.0000
  H   H395      1.0  0.36294  0.73787  0.09362  1.0000
  Fe  Fe30      1.0  0.40332  0.87737  0.06191  1.0000
  S   S66       1.0  0.45134  0.89552  0.05354  1.0000
  S   S67       1.0  0.37698  0.90821  0.09883  1.0000
  Fe  Fe31      1.0  0.63208  0.82537  0.41344  1.0000
  S   S68       1.0  0.63945  0.87969  0.40669  1.0000
  S   S69       1.0  0.58789  0.80224  0.39765  1.0000
  C   C479      1.0  0.59391  0.94565  0.03913  1.0000
  C   C480      1.0  0.37908  0.98324  0.46604  1.0000
  S   S70       1.0  0.33841  0.84538  0.16754  1.0000
  H   H396      1.0  0.38942  0.88637  0.18761  1.0000
  H   H397      1.0  0.41605  0.72114  0.08890  1.0000
  S   S71       1.0  0.65657  0.80686  0.08810  1.0000
  C   C481      1.0  0.53218  0.92560  0.49784  1.0000
  Fe  Fe32      1.0  0.35515  0.81915  0.42374  1.0000
  Fe  Fe33      1.0  0.62190  0.84272  0.07015  1.0000
  S   S72       1.0  0.57532  0.82053  0.06214  1.0000
  S   S73       1.0  0.63422  0.88079  0.10891  1.0000
  Fe  Fe34      1.0  0.38180  0.86530  0.36795  1.0000
  H   H398      1.0  0.59197  0.96672  0.08923  1.0000
  S   S74       1.0  0.33876  0.93076  0.47156  1.0000
  H   H399      1.0  0.51871  0.91716  0.47661  1.0000
  C   C482      1.0  0.58550  0.97002  0.39081  1.0000
  H   H400      1.0  0.65632  0.71557  0.29487  1.0000
  C   C483      1.0  0.48507  0.87389  0.05973  1.0000
  C   C484      1.0  0.51181  0.89200  0.06326  1.0000
  C   C485      1.0  0.53958  0.87601  0.06472  1.0000
  C   C486      1.0  0.54086  0.84171  0.06242  1.0000
  C   C487      1.0  0.51405  0.82354  0.05980  1.0000
  C   C488      1.0  0.48622  0.83951  0.05868  1.0000
  H   H401      1.0  0.51114  0.91862  0.06412  1.0000
  H   H402      1.0  0.56004  0.89018  0.06697  1.0000
  Fe  Fe35      1.0  0.34682  0.83820  0.03933  1.0000
  S   S75       1.0  0.39464  0.87947  0.31285  1.0000
  Fe  Fe36      1.0  0.34325  0.91199  0.05678  1.0000
  C   C489      1.0  0.37027  0.76788  0.13791  1.0000
  H   H403      1.0  0.47208  0.96578  0.04535  1.0000
  C   C490      1.0  0.49763  0.83720  0.43968  1.0000
  C   C491      1.0  0.49918  0.82118  0.40824  1.0000
  C   C492      1.0  0.52702  0.81065  0.39553  1.0000
  C   C493      1.0  0.55350  0.81694  0.41363  1.0000
  C   C494      1.0  0.55196  0.83356  0.44467  1.0000
  C   C495      1.0  0.52406  0.84312  0.45789  1.0000
  H   H404      1.0  0.47892  0.81625  0.39416  1.0000
  H   H405      1.0  0.52806  0.79747  0.37167  1.0000
  H   H406      1.0  0.57216  0.83793  0.45906  1.0000
  H   H407      1.0  0.52290  0.85470  0.48261  1.0000
  H   H408      1.0  0.37239  0.94604  0.20919  1.0000
  H   H409      1.0  0.42292  0.70327  0.27599  1.0000
  H   H410      1.0  0.51485  0.79697  0.05803  1.0000
  C   C496      1.0  0.63989  0.73451  0.29017  1.0000
  C   C497      1.0  0.58218  0.96645  0.06395  1.0000
  H   H411      1.0  0.46580  0.82532  0.05583  1.0000
  S   S76       1.0  0.65227  0.86386  0.02932  1.0000
  C   C498      1.0  0.42548  0.97750  0.05065  1.0000
  C   C499      1.0  0.34090  0.84255  0.23778  1.0000
  C   C500      1.0  0.37913  0.87618  0.21049  1.0000
  S   S77       1.0  0.65686  0.82207  0.46322  1.0000
  C   C501      1.0  0.39743  0.76088  0.47455  1.0000
  Fe  Fe37      1.0  0.36196  0.89310  0.43762  1.0000
  C   C502      1.0  0.52841  0.77236  0.14166  1.0000
  C   C503      1.0  0.54477  0.75604  0.16684  1.0000
  C   C504      1.0  0.53170  0.74925  0.19873  1.0000
  C   C505      1.0  0.50234  0.75890  0.20555  1.0000
  C   C506      1.0  0.48544  0.77444  0.18004  1.0000
  C   C507      1.0  0.49893  0.78173  0.14826  1.0000
  P   P17       1.0  0.44773  0.78795  0.18837  1.0000
  C   C508      1.0  0.42148  0.77154  0.15797  1.0000
  C   C509      1.0  0.43336  0.77412  0.22948  1.0000
  C   C510      1.0  0.43442  0.74053  0.23835  1.0000
  C   C511      1.0  0.42201  0.72921  0.26928  1.0000
  C   C512      1.0  0.40789  0.75122  0.29127  1.0000
  C   C513      1.0  0.40603  0.78450  0.28222  1.0000
  C   C514      1.0  0.41836  0.79582  0.25130  1.0000
  C   C515      1.0  0.39132  0.78025  0.16082  1.0000
  C   C516      1.0  0.48182  0.97624  0.47007  1.0000
  H   H412      1.0  0.35619  0.75800  0.50257  1.0000
  S   S78       1.0  0.33772  0.86443  0.39668  1.0000
  C   C517      1.0  0.43026  0.74963  0.13225  1.0000
  C   C518      1.0  0.44973  0.83225  0.18458  1.0000
  C   C519      1.0  0.46154  0.85102  0.21133  1.0000
  C   C520      1.0  0.46508  0.88515  0.20761  1.0000
  C   C521      1.0  0.45725  0.90068  0.17696  1.0000
  C   C522      1.0  0.44601  0.88208  0.15001  1.0000
  C   C523      1.0  0.44226  0.84799  0.15372  1.0000
  H   H413      1.0  0.53885  0.77834  0.11720  1.0000
  C   C524      1.0  0.35357  0.97017  0.48219  1.0000
  H   H414      1.0  0.54437  0.73672  0.21831  1.0000
  H   H415      1.0  0.49318  0.75450  0.23081  1.0000
  H   H416      1.0  0.48677  0.79492  0.12863  1.0000
  H   H417      1.0  0.44452  0.72304  0.22111  1.0000
  C   C525      1.0  0.35261  0.84998  0.27026  1.0000
  H   H418      1.0  0.39806  0.74250  0.31514  1.0000
  H   H419      1.0  0.39472  0.80160  0.29899  1.0000
  H   H420      1.0  0.41543  0.82134  0.24427  1.0000
  H   H421      1.0  0.38404  0.79684  0.18068  1.0000
  Fe  Fe38      1.0  0.35372  0.86094  0.11377  1.0000
  H   H422      1.0  0.45317  0.74173  0.12987  1.0000
  H   H423      1.0  0.46793  0.83928  0.23509  1.0000
  H   H424      1.0  0.47366  0.89954  0.22861  1.0000
  H   H425      1.0  0.45982  0.92711  0.17401  1.0000
  H   H426      1.0  0.44013  0.89407  0.12616  1.0000
  H   H427      1.0  0.43382  0.83404  0.13233  1.0000
  C   C526      1.0  0.62456  0.73551  0.25919  1.0000
  H   H428      1.0  0.41008  0.89979  0.24481  1.0000
  H   H429      1.0  0.39011  0.96925  0.44636  1.0000
  H   H430      1.0  0.56530  0.85009  0.12841  1.0000
  C   C527      1.0  0.40918  0.73754  0.10912  1.0000
  H   H431      1.0  0.63243  0.91756  0.28295  1.0000
  C   C528      1.0  0.45840  0.96526  0.44924  1.0000
  H   H432      1.0  0.56639  0.95016  0.43738  1.0000
  C   C529      1.0  0.35407  0.85560  0.20774  1.0000
  H   H433      1.0  0.66373  0.96547  0.26642  1.0000
  C   C530      1.0  0.39072  0.88379  0.24294  1.0000
  C   C531      1.0  0.54102  0.84722  0.17610  1.0000
  C   C532      1.0  0.56622  0.84362  0.15526  1.0000
  C   C533      1.0  0.59269  0.83158  0.16905  1.0000
  C   C534      1.0  0.59426  0.82377  0.20378  1.0000
  C   C535      1.0  0.56886  0.82632  0.22481  1.0000
  C   C536      1.0  0.54230  0.83851  0.21074  1.0000
  P   P18       1.0  0.57124  0.81672  0.26993  1.0000
  C   C537      1.0  0.59803  0.78436  0.27772  1.0000
  C   C538      1.0  0.58383  0.85300  0.29206  1.0000
  C   C539      1.0  0.57492  0.85833  0.32604  1.0000
  C   C540      1.0  0.58628  0.88510  0.34409  1.0000
  C   C541      1.0  0.60698  0.90650  0.32854  1.0000
  C   C542      1.0  0.61568  0.90164  0.29464  1.0000
  C   C543      1.0  0.60431  0.87490  0.27645  1.0000
  C   C544      1.0  0.61343  0.78299  0.30884  1.0000
  H   H434      1.0  0.38741  0.75248  0.45100  1.0000
  H   H435      1.0  0.61247  0.92973  0.04533  1.0000
  C   C545      1.0  0.54613  0.98688  0.02306  1.0000
  C   C546      1.0  0.60351  0.76012  0.25309  1.0000
  C   C547      1.0  0.53500  0.80421  0.28665  1.0000
  C   C548      1.0  0.52879  0.77099  0.29448  1.0000
  C   C549      1.0  0.50119  0.76181  0.30890  1.0000
  C   C550      1.0  0.47966  0.78567  0.31564  1.0000
  C   C551      1.0  0.48548  0.81870  0.30760  1.0000
  C   C552      1.0  0.51306  0.82798  0.29325  1.0000
  H   H436      1.0  0.52045  0.85639  0.16520  1.0000
  H   H437      1.0  0.61221  0.82840  0.15291  1.0000
  H   H438      1.0  0.61546  0.81581  0.21405  1.0000
  H   H439      1.0  0.52260  0.84137  0.22631  1.0000
  H   H440      1.0  0.56019  0.84105  0.33919  1.0000
  H   H441      1.0  0.58002  0.88818  0.37068  1.0000
  C   C553      1.0  0.36282  0.95776  0.18686  1.0000
  H   H442      1.0  0.34711  0.77542  0.13993  1.0000
  H   H443      1.0  0.61252  0.87074  0.25078  1.0000
  H   H444      1.0  0.60965  0.80116  0.32841  1.0000
  C   C554      1.0  0.37922  0.74676  0.11186  1.0000
  H   H445      1.0  0.59208  0.76052  0.22888  1.0000
  H   H446      1.0  0.54538  0.75222  0.29019  1.0000
  H   H447      1.0  0.49674  0.73626  0.31558  1.0000
  H   H448      1.0  0.45862  0.77870  0.32768  1.0000
  H   H449      1.0  0.46878  0.83719  0.31317  1.0000
  H   H450      1.0  0.51750  0.85381  0.28796  1.0000
  H   H451      1.0  0.44080  0.94940  0.45936  1.0000
  H   H452      1.0  0.62925  0.71741  0.23974  1.0000
  H   H453      1.0  0.56773  0.74916  0.16169  1.0000
  H   H454      1.0  0.43935  0.96597  0.39887  1.0000
  C   C555      1.0  0.63416  0.75811  0.31505  1.0000
  S   S79       1.0  0.37051  0.88398  0.01919  1.0000
  C   C556      1.0  0.45762  0.97446  0.41473  1.0000
  C   C557      1.0  0.55814  0.98687  0.05602  1.0000
  H   H455      1.0  0.41850  0.96127  0.03030  1.0000
  H   H456      1.0  0.64587  0.75731  0.33920  1.0000
  C   C558      1.0  0.66278  0.99017  0.31492  1.0000
  H   H457      1.0  0.44117  0.76809  0.45208  1.0000
  H   H458      1.0  0.56724  0.96137  0.37508  1.0000
  C   C559      1.0  0.58496  0.96369  0.42597  1.0000
  C   C560      1.0  0.60851  0.97463  0.44635  1.0000
  H   H459      1.0  0.60828  0.96954  0.47362  1.0000
  C   C561      1.0  0.42771  0.76944  0.47517  1.0000
  C   C562      1.0  0.60974  0.98702  0.37594  1.0000
  H   H460      1.0  0.66676  0.80279  0.24884  1.0000
  S   S80       1.0  0.65790  0.91051  0.49844  1.0000
  C   C563      1.0  0.45566  0.97991  0.05935  1.0000
  C   C564      1.0  0.37682  0.98536  0.17195  1.0000
  C   C565      1.0  0.37979  0.76406  0.50396  1.0000
  C   C566      1.0  0.63263  0.99180  0.43156  1.0000
  H   H461      1.0  0.65949  0.96735  0.32915  1.0000
  C   C567      1.0  0.66551  0.98890  0.27934  1.0000
  C   C568      1.0  0.33683  0.94465  0.17249  1.0000
  Fe  Fe39      1.0  0.66743  0.89952  0.06940  1.0000
  H   H462      1.0  0.60960  0.99171  0.34871  1.0000
  C   C569      1.0  0.33828  0.98739  0.12883  1.0000
  H   H463      1.0  0.38064  0.99198  0.06271  1.0000
  H   H464      1.0  0.46398  0.78761  0.50557  1.0000
  C   C570      1.0  0.44055  0.78048  0.50542  1.0000
  H   H465      1.0  0.36749  0.95437  0.99182  1.0000
  C   C571      1.0  0.42792  0.80683  0.64734  1.0000
  H   H466      1.0  0.36969  0.71137  0.55254  1.0000
  C   C572      1.0  0.36839  0.84877  0.93634  1.0000
  C   C573      1.0  0.52823  0.85473  0.93034  1.0000
  C   C574      1.0  0.41002  0.80749  0.61818  1.0000
  P   P19       1.0  0.36910  0.78112  0.57206  1.0000
  C   C575      1.0  0.40981  0.75183  0.66083  1.0000
  H   H467      1.0  0.52527  0.82880  0.92475  1.0000
  C   C576      1.0  0.56764  0.94675  0.55207  1.0000
  C   C577      1.0  0.57881  0.92392  0.52888  1.0000
  H   H468      1.0  0.63908  0.57565  0.55862  1.0000
  C   C578      1.0  0.41564  0.89318  0.94591  1.0000
  H   H469      1.0  0.52448  0.90741  0.99694  1.0000
  C   C579      1.0  0.39567  0.83764  0.94907  1.0000
  C   C580      1.0  0.42778  0.77904  0.66870  1.0000
  C   C581      1.0  0.41933  0.85981  0.95380  1.0000
  C   C582      1.0  0.39170  0.78033  0.61021  1.0000
  C   C583      1.0  0.45247  0.98402  0.96187  1.0000
  H   H470      1.0  0.43370  0.79226  0.55783  1.0000
  C   C584      1.0  0.39240  0.77557  0.53448  1.0000
  H   H471      1.0  0.38556  0.93060  0.92906  1.0000
  H   H472      1.0  0.37828  0.73095  0.62599  1.0000
  H   H473      1.0  0.60119  0.91433  0.53190  1.0000
  C   C585      1.0  0.42308  0.78342  0.53499  1.0000
  H   H474      1.0  0.51775  0.84870  0.98398  1.0000
  C   C586      1.0  0.43825  0.87804  0.53436  1.0000
  C   C587      1.0  0.45469  0.93460  0.52500  1.0000
  H   H475      1.0  0.54719  0.92712  0.89127  1.0000
  H   H476      1.0  0.39796  0.81196  0.95643  1.0000
  P   P20       1.0  0.54216  0.96468  0.95564  1.0000
  C   C588      1.0  0.48007  0.96820  0.96374  1.0000
  C   C589      1.0  0.36449  0.88222  0.92820  1.0000
  C   C590      1.0  0.40882  0.88856  0.53840  1.0000
  C   C591      1.0  0.53652  0.92177  0.94520  1.0000
  H   H477      1.0  0.44199  0.82787  0.65331  1.0000
  C   C592      1.0  0.50650  0.98533  0.95502  1.0000
  H   H478      1.0  0.58154  0.95502  0.57296  1.0000
  C   C593      1.0  0.46115  0.90092  0.52767  1.0000
  C   C594      1.0  0.66272  0.57129  0.55470  1.0000
  C   C595      1.0  0.34774  0.71696  0.56266  1.0000
  C   C596      1.0  0.52395  0.86589  0.96366  1.0000
  H   H479      1.0  0.53084  0.97674  0.56652  1.0000
  H   H480      1.0  0.44167  0.77852  0.69129  1.0000
  C   C597      1.0  0.34604  0.84050  0.59702  1.0000
  C   C598      1.0  0.40221  0.92205  0.53605  1.0000
  H   H481      1.0  0.41053  0.82915  0.60174  1.0000
  H   H482      1.0  0.53986  0.86828  0.87855  1.0000
  H   H483      1.0  0.44017  0.85133  0.96465  1.0000
  C   C599      1.0  0.33842  0.83008  0.53692  1.0000
  H   H484      1.0  0.39103  0.87073  0.54232  1.0000
  C   C600      1.0  0.54065  0.91041  0.91172  1.0000
  H   H485      1.0  0.48058  0.94262  0.97179  1.0000
  C   C601      1.0  0.65852  0.97149  0.52804  1.0000
  H   H486      1.0  0.53185  0.99095  0.88671  1.0000
  C   C602      1.0  0.42504  0.94503  0.52946  1.0000
  H   H487      1.0  0.34010  0.81432  0.51493  1.0000
  C   C603      1.0  0.34897  0.95251  0.87961  1.0000
  H   H488      1.0  0.35003  0.83136  0.93374  1.0000
  C   C604      1.0  0.53649  0.87699  0.90437  1.0000
  C   C605      1.0  0.38825  0.90448  0.93347  1.0000
  H   H489      1.0  0.37925  0.93016  0.53828  1.0000
  H   H490      1.0  0.43375  0.91037  0.95050  1.0000
  C   C606      1.0  0.52798  0.89923  0.97101  1.0000
  C   C607      1.0  0.39191  0.75237  0.63164  1.0000
  H   H491      1.0  0.36521  0.93667  0.86757  1.0000
  H   H492      1.0  0.44323  0.85202  0.53472  1.0000
  H   H493      1.0  0.47957  0.97170  0.58855  1.0000
  H   H494      1.0  0.64114  0.96159  0.54461  1.0000
  H   H495      1.0  0.40977  0.73022  0.67733  1.0000
  C   C608      1.0  0.35838  0.97889  0.99003  1.0000
  H   H496      1.0  0.65848  0.51855  0.56003  1.0000
  C   C609      1.0  0.56675  0.98406  0.92426  1.0000
  C   C610      1.0  0.33919  0.98891  0.50743  1.0000
  H   H497      1.0  0.41934  0.97086  0.52698  1.0000
  C   C611      1.0  0.52064  0.94841  0.52117  1.0000
  H   H498      1.0  0.59109  0.92874  0.98757  1.0000
  H   H499      1.0  0.36785  0.50779  0.97951  1.0000
  C   C612      1.0  0.55798  0.96613  0.99795  1.0000
  C   C613      1.0  0.53867  0.95892  0.54834  1.0000
  H   H500      1.0  0.36211  0.85289  0.86578  1.0000
  H   H501      1.0  0.60703  0.98130  0.95490  1.0000
  H   H502      1.0  0.43210  0.97066  0.96830  1.0000
  H   H503      1.0  0.66118  0.88521  0.91301  1.0000
  H   H504      1.0  0.48354  0.89193  0.52351  1.0000
  H   H505      1.0  0.34744  0.82505  0.81276  1.0000
  P   P21       1.0  0.48348  0.96456  0.51463  1.0000
  C   C614      1.0  0.33969  0.85616  0.85621  1.0000
  C   C615      1.0  0.58179  0.94529  0.00635  1.0000
  C   C616      1.0  0.34112  0.74878  0.57421  1.0000
  C   C617      1.0  0.34988  0.82003  0.56853  1.0000
  C   C618      1.0  0.59715  0.98963  0.93125  1.0000
  C   C619      1.0  0.34916  0.98617  0.87160  1.0000
  H   H506      1.0  0.35331  0.83279  0.62213  1.0000
  Fe  Fe40      1.0  0.90594  0.33944  0.42113  1.0000
  S   S81       1.0  0.88470  0.38808  0.40873  1.0000
  S   S82       1.0  0.95300  0.33478  0.39861  1.0000
  Fe  Fe41      1.0  0.84679  0.31131  0.45375  1.0000
  S   S83       1.0  0.82251  0.35852  0.44285  1.0000
  C   C620      1.0  0.70400  0.99701  0.48626  1.0000
  Fe  Fe42      1.0  0.84565  0.35763  0.39099  1.0000
  S   S84       1.0  0.82134  0.36674  0.34048  1.0000
  Fe  Fe43      1.0  0.86440  0.38426  0.46123  1.0000
  H   H507      1.0  0.95107  0.33193  0.31345  1.0000
  S   S85       1.0  0.86750  0.30896  0.40095  1.0000
  S   S86       1.0  0.88779  0.33706  0.47475  1.0000
  Fe  Fe44      1.0  0.83914  0.32528  0.07038  1.0000
  S   S87       1.0  0.82161  0.36234  0.10863  1.0000
  S   S88       1.0  0.81719  0.27777  0.04880  1.0000
  Fe  Fe45      1.0  0.90178  0.35856  0.06766  1.0000
  S   S89       1.0  0.88798  0.39695  0.10494  1.0000
  S   S90       1.0  0.94761  0.36992  0.04440  1.0000
  Fe  Fe46      1.0  0.86581  0.35666  0.13566  1.0000
  S   S91       1.0  0.88114  0.35710  0.19163  1.0000
  Fe  Fe47      1.0  0.84557  0.40054  0.07525  1.0000
  S   S92       1.0  0.82984  0.45345  0.06684  1.0000
  S   S93       1.0  0.88230  0.31739  0.09967  1.0000
  S   S94       1.0  0.86029  0.36425  0.03575  1.0000
  S   S95       1.0  0.82782  0.26563  0.48253  1.0000
  H   H508      1.0  0.68894  0.05268  0.43964  1.0000
  H   H509      1.0  0.97567  0.40943  0.42649  1.0000
  H   H510      1.0  0.91905  0.45460  0.35193  1.0000
  C   C621      1.0  0.78298  0.26389  0.02932  1.0000
  H   H511      1.0  0.75538  0.30255  0.04838  1.0000
  C   C622      1.0  0.98468  0.16222  0.21826  1.0000
  C   C623      1.0  0.93315  0.45676  0.37424  1.0000
  H   H512      1.0  0.99565  0.28557  0.36616  1.0000
  H   H513      1.0  0.95206  0.34555  0.12578  1.0000
  C   C624      1.0  0.83814  0.36367  0.29917  1.0000
  C   C625      1.0  0.86913  0.36146  0.29485  1.0000
  C   C626      1.0  0.88169  0.35977  0.26174  1.0000
  C   C627      1.0  0.86356  0.36003  0.23248  1.0000
  C   C628      1.0  0.83256  0.36222  0.23671  1.0000
  C   C629      1.0  0.81997  0.36419  0.26988  1.0000
  H   H514      1.0  0.88341  0.36138  0.31704  1.0000
  H   H515      1.0  0.90566  0.35832  0.25873  1.0000
  H   H516      1.0  0.81829  0.36249  0.21450  1.0000
  H   H517      1.0  0.79599  0.36605  0.27288  1.0000
  C   C630      1.0  0.87372  0.46432  0.50252  1.0000
  C   C631      1.0  0.81959  0.44935  0.41184  1.0000
  H   H518      1.0  0.73498  0.43270  0.42655  1.0000
  C   C632      1.0  0.76518  0.39451  0.05334  1.0000
  H   H519      1.0  0.96018  0.31290  0.25440  1.0000
  C   C633      1.0  0.67272  0.04892  0.31292  1.0000
  C   C634      1.0  0.99011  0.26072  0.35832  1.0000
  C   C635      1.0  0.72045  0.36107  0.04839  1.0000
  H   H520      1.0  0.81137  0.43534  0.35974  1.0000
  C   C636      1.0  0.98683  0.28892  0.19507  1.0000
  C   C637      1.0  0.67530  0.01618  0.03347  1.0000
  C   C638      1.0  0.98344  0.35330  0.05207  1.0000
  C   C639      1.0  0.95105  0.42000  0.50112  1.0000
  C   C640      1.0  0.95546  0.40466  0.18647  1.0000
  H   H521      1.0  0.96815  0.30660  0.07230  1.0000
  C   C641      1.0  0.96915  0.17292  0.24715  1.0000
  C   C642      1.0  0.98778  0.33980  0.41969  1.0000
  C   C643      1.0  0.94907  0.48864  0.12987  1.0000
  C   C644      1.0  0.73964  0.38028  0.06816  1.0000
  H   H522      1.0  0.97234  0.32530  0.46986  1.0000
  H   H523      1.0  0.87962  0.26184  0.32537  1.0000
  H   H524      1.0  0.75737  0.42510  0.36925  1.0000
  C   C645      1.0  0.96882  0.46183  0.43280  1.0000
  H   H525      1.0  0.73482  0.38411  0.09500  1.0000
  H   H526      1.0  0.94130  0.21007  0.26870  1.0000
  H   H527      1.0  0.91136  0.30662  0.34853  1.0000
  C   C646      1.0  0.88745  0.47648  0.12973  1.0000
  H   H528      1.0  0.87349  0.29049  0.22158  1.0000
  H   H529      1.0  0.86902  0.21961  0.11921  1.0000
  C   C647      1.0  0.96690  0.40390  0.21960  1.0000
  H   H530      1.0  0.76803  0.29293  0.46989  1.0000
  H   H531      1.0  0.82816  0.28897  0.18676  1.0000
  C   C648      1.0  0.94340  0.30931  0.16518  1.0000
  H   H532      1.0  0.72179  0.00672  0.47012  1.0000
  H   H533      1.0  0.96813  0.22457  0.16324  1.0000
  C   C649      1.0  0.88077  0.48054  0.47178  1.0000
  H   H534      1.0  0.88950  0.48674  0.07592  1.0000
  H   H535      1.0  0.98188  0.44377  0.08437  1.0000
  C   C650      1.0  0.93414  0.48031  0.16034  1.0000
  C   C651      1.0  0.95297  0.20226  0.24593  1.0000
  H   H536      1.0  0.94688  0.26210  0.38272  1.0000
  H   H537      1.0  0.77326  0.02308  0.40075  1.0000
  C   C652      1.0  0.67287  0.10211  0.43920  1.0000
  H   H538      1.0  0.70836  0.28032  0.02305  1.0000
  C   C653      1.0  0.92556  0.45142  0.02526  1.0000
  C   C654      1.0  0.83633  0.47914  0.03034  1.0000
  C   C655      1.0  0.99769  0.40758  0.22484  1.0000
  H   H539      1.0  0.97013  0.17035  0.33601  1.0000
  C   C656      1.0  0.99863  0.46008  0.07316  1.0000
  C   C657      1.0  0.76536  0.27070  0.48511  1.0000
  C   C658      1.0  0.90338  0.47387  0.16020  1.0000
  H   H540      1.0  0.99710  0.13942  0.21920  1.0000
  H   H541      1.0  0.99614  0.17264  0.16564  1.0000
  C   C659      1.0  0.69983  0.00264  0.38945  1.0000
  C   C660      1.0  0.80153  0.43956  0.38473  1.0000
  H   H542      1.0  0.67414  0.01643  0.23294  1.0000
  C   C661      1.0  0.75844  0.43835  0.42260  1.0000
  H   H543      1.0  0.67734  0.07204  0.32544  1.0000
  H   H544      1.0  0.89179  0.46690  0.18363  1.0000
  C   C662      1.0  0.96803  0.21025  0.18679  1.0000
  C   C663      1.0  0.98121  0.42955  0.49778  1.0000
  H   H545      1.0  0.67451  0.02590  0.05911  1.0000
  H   H546      1.0  0.93165  0.40134  0.18234  1.0000
  C   C664      1.0  0.96182  0.32988  0.14528  1.0000
  H   H547      1.0  0.88876  0.24137  0.26688  1.0000
  H   H548      1.0  0.91483  0.22069  0.15376  1.0000
  C   C665      1.0  0.93613  0.48700  0.39076  1.0000
  C   C666      1.0  0.96522  0.43143  0.41640  1.0000
  C   C667      1.0  0.79068  0.25264  0.49409  1.0000
  H   H549      1.0  0.82154  0.45977  0.46539  1.0000
  C   C668      1.0  0.72688  0.35594  0.01381  1.0000
  H   H550      1.0  0.84342  0.45266  0.40787  1.0000
  C   C669      1.0  0.93522  0.48435  0.02336  1.0000
  H   H551      1.0  0.91957  0.30968  0.16093  1.0000
  C   C670      1.0  0.77100  0.43391  0.39012  1.0000
  C   C671      1.0  0.72575  0.02226  0.39210  1.0000
  P   P22       1.0  0.99133  0.46442  0.47088  1.0000
  H   H552      1.0  0.82574  0.25383  0.13514  1.0000
  C   C672      1.0  0.94789  0.42907  0.38693  1.0000
  H   H553      1.0  0.94638  0.47872  0.18407  1.0000
  H   H554      1.0  0.96953  0.15836  0.27048  1.0000
  C   C673      1.0  0.77640  0.44874  0.44985  1.0000
  H   H555      1.0  0.99689  0.27317  0.21418  1.0000
  C   C674      1.0  0.98744  0.32174  0.06585  1.0000
  H   H556      1.0  0.94528  0.40542  0.37455  1.0000
  C   C675      1.0  0.95580  0.28824  0.18979  1.0000
  H   H557      1.0  0.92749  0.43744  0.04882  1.0000
  P   P23       1.0  0.93242  0.25983  0.21386  1.0000
  C   C676      1.0  0.92561  0.27507  0.25645  1.0000
  C   C677      1.0  0.89750  0.25484  0.19116  1.0000
  C   C678      1.0  0.87262  0.27387  0.20013  1.0000
  C   C679      1.0  0.84676  0.27322  0.18025  1.0000
  C   C680      1.0  0.84543  0.25351  0.15122  1.0000
  C   C681      1.0  0.86992  0.23424  0.14222  1.0000
  C   C682      1.0  0.89588  0.23492  0.16202  1.0000
  C   C683      1.0  0.90277  0.26094  0.27678  1.0000
  C   C684      1.0  0.89762  0.27228  0.30991  1.0000
  C   C685      1.0  0.91534  0.29760  0.32300  1.0000
  C   C686      1.0  0.93795  0.31190  0.30301  1.0000
  C   C687      1.0  0.94303  0.30087  0.26972  1.0000
  C   C688      1.0  0.95400  0.48962  0.41986  1.0000
  H   H558      1.0  0.93354  0.20471  0.36728  1.0000
  C   C689      1.0  0.95213  0.22110  0.21563  1.0000
  H   H559      1.0  0.72471  0.04877  0.38908  1.0000
  C   C690      1.0  0.95498  0.21501  0.35942  1.0000
  H   H560      1.0  0.95180  0.39991  0.24107  1.0000
  C   C691      1.0  0.75586  0.28039  0.03336  1.0000
  C   C692      1.0  0.98411  0.18089  0.18810  1.0000
  C   C693      1.0  0.96241  0.24735  0.36803  1.0000
  H   H561      1.0  0.68485  0.10856  0.46226  1.0000
  C   C694      1.0  0.73655  0.26004  0.49589  1.0000
  C   C695      1.0  0.97555  0.19578  0.34161  1.0000
  H   H562      1.0  0.68110  0.06962  0.26274  1.0000
  H   H563      1.0  0.96579  0.40838  0.13284  1.0000
  H   H564      1.0  0.88308  0.46656  0.44854  1.0000
  C   C696      1.0  0.80712  0.45358  0.44434  1.0000
  C   C697      1.0  0.99149  0.33256  0.45443  1.0000
  C   C698      1.0  0.97476  0.40888  0.15854  1.0000
  H   H565      1.0  0.68045  0.06431  0.00963  1.0000
  C   C699      1.0  0.67544  0.07040  0.42598  1.0000
  H   H566      1.0  0.77988  0.40970  0.06861  1.0000
  C   C700      1.0  0.67536  0.04757  0.27729  1.0000
  C   C701      1.0  0.72916  0.26751  0.01910  1.0000
  H   H567      1.0  0.00166  0.30026  0.29776  1.0000
  H   H568      1.0  0.70074  0.34982  0.05993  1.0000
  C   C702      1.0  0.99274  0.32983  0.15006  1.0000
  H   H569      1.0  0.86355  0.47169  0.12950  1.0000
  H   H570      1.0  0.71724  0.27442  0.48898  1.0000
  C   C703      1.0  0.75346  0.00774  0.39822  1.0000
  H   H571      1.0  0.99743  0.36052  0.29030  1.0000
  C   C704      1.0  0.77186  0.38923  0.01889  1.0000
  C   C705      1.0  0.90232  0.48469  0.09923  1.0000
  S   S96       1.0  0.86571  0.42154  0.50448  1.0000
  C   C706      1.0  0.67157  0.01761  0.26049  1.0000
  H   H572      1.0  0.93367  0.43368  0.48822  1.0000
  C   C707      1.0  0.78285  0.23444  0.01041  1.0000
  C   C708      1.0  0.71263  0.48681  0.46859  1.0000
  H   H573      1.0  0.79183  0.40055  0.00793  1.0000
  C   C709      1.0  0.72213  0.46218  0.49137  1.0000
  C   C710      1.0  0.93335  0.49004  0.09894  1.0000
  P   P24       1.0  0.76105  0.45109  0.49250  1.0000
  H   H574      1.0  0.72757  0.38913  0.48550  1.0000
  H   H575      1.0  0.73734  0.33253  0.50553  1.0000
  C   C711      1.0  0.74681  0.38457  0.50144  1.0000
  C   C712      1.0  0.99050  0.49076  0.05934  1.0000
  H   H576      1.0  0.80354  0.22121  0.00714  1.0000
  H   H577      1.0  0.86639  0.47031  0.55660  1.0000
  S   S97       1.0  0.70852  0.13290  0.57915  1.0000
  H   H578      1.0  0.84448  0.47709  0.94374  1.0000
  C   C713      1.0  0.82238  0.00409  0.96000  1.0000
  H   H579      1.0  0.91969  0.38529  0.52330  1.0000
  Fe  Fe48      1.0  0.67930  0.17171  0.55593  1.0000
  S   S98       1.0  0.70305  0.14905  0.91253  1.0000
  C   C714      1.0  0.67483  0.13061  0.71520  1.0000
  H   H580      1.0  0.81921  0.44527  0.88336  1.0000
  Fe  Fe49      1.0  0.68126  0.09664  0.54884  1.0000
  H   H581      1.0  0.95870  0.35225  0.55203  1.0000
  H   H582      1.0  0.79819  0.20986  0.61647  1.0000
  C   C715      1.0  0.67789  0.11180  0.74538  1.0000
  S   S99       1.0  0.66942  0.18058  0.82045  1.0000
  H   H583      1.0  0.71166  0.34091  0.99917  1.0000
  C   C716      1.0  0.77875  0.48235  0.51828  1.0000
  H   H584      1.0  0.73035  0.19142  0.77124  1.0000
  C   C717      1.0  0.68070  0.02582  0.97225  1.0000
  H   H585      1.0  0.74279  0.09501  0.67161  1.0000
  C   C718      1.0  0.99505  0.38316  0.53396  1.0000
  H   H586      1.0  0.78490  0.10204  0.71259  1.0000
  H   H587      1.0  0.80849  0.42227  0.53428  1.0000
  H   H588      1.0  0.88725  0.13443  0.65328  1.0000
  H   H589      1.0  0.76840  0.09479  0.77266  1.0000
  C   C719      1.0  0.78658  0.22332  0.51325  1.0000
  C   C720      1.0  0.67865  0.03804  0.00545  1.0000
  H   H590      1.0  0.81895  0.36528  0.55200  1.0000
  Fe  Fe50      1.0  0.67674  0.17954  0.95010  1.0000
  H   H591      1.0  0.83391  0.11956  0.64813  1.0000
  H   H592      1.0  0.73165  0.04981  0.63239  1.0000
  H   H593      1.0  0.86339  0.22892  0.69335  1.0000
  C   C721      1.0  0.75958  0.06907  0.59166  1.0000
  H   H594      1.0  0.75358  0.03942  0.95982  1.0000
  S   S100      1.0  0.69415  0.22288  0.98325  1.0000
  C   C722      1.0  0.75773  0.21238  0.52359  1.0000
  C   C723      1.0  0.81957  0.30193  0.90833  1.0000
  C   C724      1.0  0.75369  0.09489  0.64688  1.0000
  H   H595      1.0  0.71552  0.17308  0.66056  1.0000
  H   H596      1.0  0.77040  0.25344  0.58657  1.0000
  C   C725      1.0  0.81073  0.32822  0.97342  1.0000
  H   H597      1.0  0.90068  0.44193  0.94395  1.0000
  C   C726      1.0  0.78600  0.46913  0.91419  1.0000
  Fe  Fe51      1.0  0.67395  0.10620  0.93121  1.0000
  C   C727      1.0  0.96499  0.37393  0.53721  1.0000
  C   C728      1.0  0.73247  0.23090  0.51532  1.0000
  C   C729      1.0  0.78484  0.12080  0.60328  1.0000
  S   S101      1.0  0.69558  0.21957  0.52950  1.0000
  H   H598      1.0  0.75357  0.04975  0.57393  1.0000
  C   C730      1.0  0.69825  0.29855  0.92092  1.0000
  H   H599      1.0  0.69392  0.27231  0.92416  1.0000
  H   H600      1.0  0.74637  0.19920  0.71138  1.0000
  H   H601      1.0  0.90221  0.18908  0.67575  1.0000
  C   C731      1.0  0.74724  0.06909  0.62457  1.0000
  C   C732      1.0  0.84210  0.48742  0.96893  1.0000
  C   C733      1.0  0.80075  0.02869  0.95786  1.0000
  C   C734      1.0  0.77763  0.47980  0.55410  1.0000
  C   C735      1.0  0.68461  0.35171  0.89748  1.0000
  C   C736      1.0  0.94302  0.39244  0.52091  1.0000
  C   C737      1.0  0.83887  0.29361  0.93490  1.0000
  C   C738      1.0  0.67473  0.12628  0.77784  1.0000
  C   C739      1.0  0.69118  0.01715  0.51136  1.0000
  H   H602      1.0  0.67786  0.11166  0.80077  1.0000
  C   C740      1.0  0.79228  0.40315  0.52870  1.0000
  H   H603      1.0  0.75676  0.19908  0.98148  1.0000
  H   H604      1.0  0.90610  0.41064  0.99834  1.0000
  C   C741      1.0  0.79594  0.32353  0.91423  1.0000
  C   C742      1.0  0.79138  0.33690  0.94685  1.0000
  C   C743      1.0  0.75623  0.22173  0.99579  1.0000
  P   P25       1.0  0.76079  0.36489  0.95379  1.0000
  C   C744      1.0  0.72871  0.34693  0.93304  1.0000
  S   S102      1.0  0.70406  0.05828  0.51550  1.0000
  H   H605      1.0  0.82279  0.29144  0.88324  1.0000
  H   H606      1.0  0.84060  0.43976  0.99431  1.0000
  H   H607      1.0  0.78718  0.09542  0.55516  1.0000
  C   C745      1.0  0.72900  0.23803  0.00020  1.0000
  C   C746      1.0  0.76634  0.41038  0.51023  1.0000
  C   C747      1.0  0.70934  0.36627  0.91336  1.0000
  H   H608      1.0  0.74090  0.13944  0.80192  1.0000
  C   C748      1.0  0.72302  0.31295  0.93663  1.0000
  C   C749      1.0  0.76993  0.40542  0.93682  1.0000
  C   C750      1.0  0.79305  0.40999  0.91270  1.0000
  C   C751      1.0  0.80093  0.44174  0.90138  1.0000
  H   H609      1.0  0.84919  0.29997  0.98811  1.0000
  C   C752      1.0  0.76292  0.46480  0.93807  1.0000
  C   C753      1.0  0.75475  0.43310  0.94918  1.0000
  C   C754      1.0  0.77848  0.09487  0.58107  1.0000
  C   C755      1.0  0.83449  0.30682  0.96734  1.0000
  C   C756      1.0  0.91064  0.45366  0.96591  1.0000
  H   H610      1.0  0.78109  0.32965  0.89341  1.0000
  S   S103      1.0  0.68168  0.11144  0.67523  1.0000
  C   C757      1.0  0.77836  0.34535  0.53079  1.0000
  H   H611      1.0  0.85707  0.27669  0.93055  1.0000
  H   H612      1.0  0.75192  0.48614  0.94860  1.0000
  H   H613      1.0  0.80590  0.20898  0.52024  1.0000
  C   C758      1.0  0.77046  0.02035  0.96073  1.0000
  H   H614      1.0  0.71326  0.39247  0.91020  1.0000
  H   H615      1.0  0.80983  0.21453  0.68810  1.0000
  H   H616      1.0  0.73762  0.29753  0.95184  1.0000
  H   H617      1.0  0.80552  0.38934  0.90309  1.0000
  C   C759      1.0  0.70137  0.44763  0.51413  1.0000
  C   C760      1.0  0.91340  0.43614  0.99661  1.0000
  H   H618      1.0  0.68332  0.08596  0.74365  1.0000
  H   H619      1.0  0.73709  0.43030  0.96810  1.0000
  H   H620      1.0  0.79850  0.14130  0.59419  1.0000
  C   C761      1.0  0.74237  0.17203  0.75827  1.0000
  C   C762      1.0  0.74841  0.14267  0.77566  1.0000
  C   C763      1.0  0.76369  0.11750  0.75906  1.0000
  C   C764      1.0  0.77266  0.12155  0.72493  1.0000
  C   C765      1.0  0.76560  0.15047  0.70682  1.0000
  C   C766      1.0  0.75110  0.17607  0.72409  1.0000
  P   P26       1.0  0.77877  0.15625  0.66336  1.0000
  C   C767      1.0  0.75907  0.18917  0.64221  1.0000
  C   C768      1.0  0.81795  0.16641  0.66675  1.0000
  C   C769      1.0  0.83999  0.14369  0.65753  1.0000
  C   C770      1.0  0.87029  0.15193  0.66066  1.0000
  C   C771      1.0  0.87873  0.18270  0.67338  1.0000
  C   C772      1.0  0.85687  0.20516  0.68325  1.0000
  C   C773      1.0  0.82658  0.19699  0.68015  1.0000
  C   C774      1.0  0.72786  0.19109  0.64531  1.0000
  C   C775      1.0  0.71230  0.21600  0.62834  1.0000
  C   C776      1.0  0.72769  0.23869  0.60754  1.0000
  C   C777      1.0  0.75868  0.23653  0.60372  1.0000
  C   C778      1.0  0.77434  0.21173  0.62076  1.0000
  C   C779      1.0  0.77265  0.12090  0.63648  1.0000
  H   H621      1.0  0.76692  0.45877  0.56644  1.0000
  C   C780      1.0  0.84010  0.46616  0.99763  1.0000
  H   H622      1.0  0.66972  0.36665  0.88223  1.0000
  H   H623      1.0  0.71546  0.25724  0.59340  1.0000
  C   C781      1.0  0.92032  0.48646  0.96374  1.0000
  C   C782      1.0  0.79828  0.37077  0.53887  1.0000
  H   H624      1.0  0.75511  0.18995  0.53850  1.0000
  H   H625      1.0  0.94694  0.48386  0.52325  1.0000
  S   S104      1.0  0.68797  0.05211  0.93649  1.0000
  C   C783      1.0  0.75281  0.36975  0.99883  1.0000
  H   H626      1.0  0.78341  0.32012  0.53793  1.0000
  H   H627      1.0  0.68821  0.21731  0.63068  1.0000
  H   H628      1.0  0.70836  0.42941  0.53276  1.0000
  H   H629      1.0  0.80731  0.33724  0.99904  1.0000
  Fe  Fe52      1.0  0.67268  0.12761  0.62003  1.0000
  C   C784      1.0  0.67908  0.31788  0.90128  1.0000
  H   H630      1.0  0.84589  0.01071  0.95867  1.0000
  C   C785      1.0  0.87165  0.48270  0.53268  1.0000
  H   H631      1.0  0.80739  0.05429  0.95459  1.0000
  C   C786      1.0  0.67126  0.45661  0.51302  1.0000
  C   C787      1.0  0.75249  0.35233  0.51234  1.0000
  H   H632      1.0  0.97971  0.62039  0.07984  1.0000
  S   S105      1.0  0.71001  0.86688  0.42491  1.0000
  S   S106      1.0  0.73215  0.77101  0.43977  1.0000
  C   C788      1.0  0.67835  0.84725  0.22098  1.0000
  C   C789      1.0  0.69380  0.96441  0.48172  1.0000
  C   C790      1.0  0.89263  0.93137  0.41502  1.0000
  H   H633      1.0  0.70227  0.70646  0.45191  1.0000
  Fe  Fe53      1.0  0.68838  0.83000  0.04976  1.0000
  H   H634      1.0  0.69839  0.91939  0.25908  1.0000
  S   S107      1.0  0.70515  0.86718  0.08812  1.0000
  H   H635      1.0  0.77291  0.79955  0.04163  1.0000
  C   C791      1.0  0.69097  0.89409  0.25694  1.0000
  C   C792      1.0  0.78569  0.87904  0.46632  1.0000
  S   S108      1.0  0.88237  0.57714  0.49831  1.0000
  H   H636      1.0  0.82711  0.59654  0.43805  1.0000
  C   C793      1.0  0.83567  0.51361  0.03404  1.0000
  C   C794      1.0  0.96802  0.56942  0.07128  1.0000
  H   H637      1.0  0.73182  0.94466  0.08852  1.0000
  C   C795      1.0  0.67676  0.84232  0.28358  1.0000
  Fe  Fe54      1.0  0.69831  0.81290  0.43177  1.0000
  H   H638      1.0  0.77693  0.56995  0.43536  1.0000
  H   H639      1.0  0.88860  0.52761  0.44698  1.0000
  C   C796      1.0  0.87954  0.91400  0.38821  1.0000
  S   S109      1.0  0.67243  0.81157  0.38227  1.0000
  S   S110      1.0  0.71318  0.79870  0.00904  1.0000
  C   C797      1.0  0.88401  0.51510  0.47100  1.0000
  P   P27       1.0  0.95187  0.50351  0.06013  1.0000
  H   H640      1.0  0.70376  0.94904  0.46244  1.0000
  H   H641      1.0  0.81197  0.88712  0.08698  1.0000
  H   H642      1.0  0.92437  0.50839  0.38126  1.0000
  C   C798      1.0  0.75643  0.75695  0.47295  1.0000
  C   C799      1.0  0.94635  0.54749  0.05869  1.0000
  C   C800      1.0  0.77708  0.73191  0.46563  1.0000
  C   C801      1.0  0.67353  0.98191  0.02870  1.0000
  H   H643      1.0  0.77793  0.72179  0.44017  1.0000
  C   C802      1.0  0.76449  0.87315  0.34853  1.0000
  C   C803      1.0  0.75320  0.84144  0.34302  1.0000
  C   C804      1.0  0.76054  0.81579  0.36539  1.0000
  C   C805      1.0  0.77932  0.82174  0.39313  1.0000
  C   C806      1.0  0.79111  0.85340  0.39858  1.0000
  C   C807      1.0  0.78309  0.87923  0.37641  1.0000
  P   P28       1.0  0.81230  0.86212  0.43657  1.0000
  C   C808      1.0  0.83092  0.82058  0.48955  1.0000
  H   H644      1.0  0.00084  0.71180  0.09084  1.0000
  S   S111      1.0  0.69073  0.89371  0.32764  1.0000
  H   H645      1.0  0.93179  0.64184  0.05759  1.0000
  C   C809      1.0  0.91891  0.55991  0.04726  1.0000
  C   C810      1.0  0.84292  0.80272  0.43218  1.0000
  H   H646      1.0  0.86765  0.74754  0.49156  1.0000
  C   C811      1.0  0.75569  0.97348  0.40043  1.0000
  C   C812      1.0  0.84489  0.79265  0.50290  1.0000
  C   C813      1.0  0.80992  0.60266  0.45655  1.0000
  H   H647      1.0  0.83695  0.56128  0.00857  1.0000
  C   C814      1.0  0.84317  0.88987  0.42775  1.0000
  C   C815      1.0  0.96290  0.60341  0.07058  1.0000
  H   H648      1.0  0.95954  0.70994  0.04873  1.0000
  H   H649      1.0  0.69117  0.89506  0.20146  1.0000
  H   H650      1.0  0.73101  0.94536  0.02562  1.0000
  C   C816      1.0  0.85505  0.89309  0.39455  1.0000
  H   H651      1.0  0.75796  0.89313  0.33165  1.0000
  H   H652      1.0  0.73811  0.83698  0.32194  1.0000
  H   H653      1.0  0.75096  0.79142  0.36192  1.0000
  H   H654      1.0  0.78383  0.80174  0.41078  1.0000
  H   H655      1.0  0.79076  0.90413  0.38098  1.0000
  C   C817      1.0  0.79441  0.89989  0.07344  1.0000
  H   H656      1.0  0.77721  0.96221  0.40466  1.0000
  H   H657      1.0  0.84262  0.80642  0.40474  1.0000
  C   C818      1.0  0.85667  0.77465  0.44566  1.0000
  C   C819      1.0  0.78177  0.58746  0.45534  1.0000
  H   H658      1.0  0.67712  0.74175  0.49415  1.0000
  Fe  Fe55      1.0  0.68096  0.86582  0.37773  1.0000
  H   H659      1.0  0.98867  0.56036  0.08192  1.0000
  H   H660      1.0  0.89264  0.60312  0.03772  1.0000
  H   H661      1.0  0.79310  0.51320  0.47553  1.0000
  C   C820      1.0  0.93587  0.61557  0.05816  1.0000
  H   H662      1.0  0.89187  0.94063  0.46915  1.0000
  H   H663      1.0  0.84575  0.87918  0.37361  1.0000
  H   H664      1.0  0.72918  0.65696  0.47049  1.0000
  C   C821      1.0  0.76511  0.85793  0.48285  1.0000
  C   C822      1.0  0.77119  0.91646  0.02003  1.0000
  S   S112      1.0  0.67052  0.95576  0.06529  1.0000
  C   C823      1.0  0.67331  0.82842  0.25091  1.0000
  C   C824      1.0  0.88141  0.92760  0.44827  1.0000
  H   H665      1.0  0.76533  0.83175  0.47786  1.0000
  H   H666      1.0  0.79844  0.93013  0.45774  1.0000
  C   C825      1.0  0.77275  0.78063  0.02235  1.0000
  C   C826      1.0  0.74877  0.93245  0.03864  1.0000
  C   C827      1.0  0.68693  0.88034  0.22420  1.0000
  H   H667      1.0  0.76032  0.95218  0.49710  1.0000
  H   H668      1.0  0.77181  0.91505  0.11947  1.0000
  H   H669      1.0  0.83256  0.52393  0.05919  1.0000
  C   C828      1.0  0.73022  0.95377  0.39653  1.0000
  C   C829      1.0  0.88094  0.53359  0.50102  1.0000
  C   C830      1.0  0.79908  0.76256  0.01540  1.0000
  H   H670      1.0  0.91172  0.94742  0.41009  1.0000
  C   C831      1.0  0.76204  0.92582  0.49343  1.0000
  H   H671      1.0  0.84884  0.90348  0.48069  1.0000
  H   H672      1.0  0.73206  0.92722  0.39719  1.0000
  C   C832      1.0  0.74931  0.93233  0.07435  1.0000
  C   C833      1.0  0.82940  0.82555  0.45402  1.0000
  C   C834      1.0  0.98164  0.67506  0.01631  1.0000
  H   H673      1.0  0.95574  0.51322  0.43239  1.0000
  H   H674      1.0  0.86645  0.75667  0.42874  1.0000
  C   C835      1.0  0.78370  0.91319  0.47127  1.0000
  C   C836      1.0  0.70232  0.96821  0.39134  1.0000
  C   C837      1.0  0.68585  0.87521  0.28684  1.0000
  C   C838      1.0  0.77190  0.91574  0.09177  1.0000
  C   C839      1.0  0.91381  0.59380  0.04682  1.0000
  H   H675      1.0  0.88858  0.91646  0.36253  1.0000
  H   H676      1.0  0.90131  0.54342  0.03872  1.0000
  C   C840      1.0  0.81605  0.62578  0.48182  1.0000
  C   C841      1.0  0.85692  0.90671  0.45469  1.0000
  C   C842      1.0  0.79436  0.90066  0.03768  1.0000
  C   C843      1.0  0.85756  0.76958  0.48101  1.0000
  S   S113      1.0  0.67463  0.82766  0.18059  1.0000
  H   H677      1.0  0.81308  0.70142  0.48435  1.0000
  H   H678      1.0  0.81256  0.88920  0.02405  1.0000
  C   C844      1.0  1.00000  0.53153  0.48313  1.0000
  H   H679      1.0  0.81917  0.76780  0.02969  1.0000
  C   C845      1.0  0.76005  0.59470  0.48002  1.0000
  H   H680      1.0  0.68290  0.95238  0.38812  1.0000
  C   C846      1.0  0.79692  0.72003  0.49079  1.0000
  H   H681      1.0  0.73828  0.58301  0.47843  1.0000
  C   C847      1.0  0.97922  0.69491  0.04514  1.0000
  H   H682      1.0  0.67256  0.82745  0.30619  1.0000
  H   H683      1.0  0.83786  0.63765  0.48266  1.0000
  Fe  Fe56      1.0  0.67063  0.84631  0.12517  1.0000
  H   H684      1.0  0.97279  0.49407  0.13050  1.0000
  C   C848      1.0  0.98391  0.50283  0.49244  1.0000
  C   C849      1.0  0.99368  0.56161  0.49868  1.0000
  C   C850      1.0  0.79228  0.51025  0.50303  1.0000
  C   C851      1.0  0.70239  0.69952  0.47876  1.0000
  C   C852      1.0  0.68818  0.71948  0.50264  1.0000
  C   C853      1.0  0.68255  0.49588  0.46768  1.0000
  C   C854      1.0  0.71780  0.67151  0.48949  1.0000
  C   C855      1.0  0.67100  0.95153  0.50258  1.0000
  H   H685      1.0  0.67528  0.51467  0.44978  1.0000
  C   C856      1.0  0.74346  0.87061  0.50492  1.0000
  H   H686      1.0  0.72849  0.49891  0.45144  1.0000
  C   C857      1.0  0.79428  0.63331  0.50625  1.0000
  C   C858      1.0  0.76655  0.61694  0.50636  1.0000
  C   C859      1.0  0.75556  0.76954  0.50613  1.0000
  C   C860      1.0  0.00243  0.69583  0.06888  1.0000
  Fe  Fe57      1.0  0.85551  0.67837  0.56400  1.0000
  S   S114      1.0  0.84091  0.62577  0.57410  1.0000
  S   S115      1.0  0.82235  0.72100  0.55616  1.0000
  Fe  Fe58      1.0  0.92163  0.66130  0.57964  1.0000
  S   S116      1.0  0.91079  0.60808  0.59017  1.0000
  S   S117      1.0  0.96865  0.67923  0.59196  1.0000
  Fe  Fe59      1.0  0.88173  0.61179  0.54376  1.0000
  C   C861      1.0  0.68197  0.89245  0.92497  1.0000
  Fe  Fe60      1.0  0.87131  0.62725  0.61993  1.0000
  S   S118      1.0  0.85909  0.60398  0.67179  1.0000
  S   S119      1.0  0.89496  0.66447  0.53114  1.0000
  S   S120      1.0  0.88362  0.68028  0.61191  1.0000
  Fe  Fe61      1.0  0.91252  0.64098  0.92819  1.0000
  S   S121      1.0  0.89032  0.60849  0.88966  1.0000
  S   S122      1.0  0.96165  0.62902  0.93741  1.0000
  Fe  Fe62      1.0  0.85243  0.67526  0.94681  1.0000
  S   S123      1.0  0.82698  0.64409  0.90919  1.0000
  S   S124      1.0  0.83427  0.71686  0.98165  1.0000
  Fe  Fe63      1.0  0.85421  0.60121  0.92942  1.0000
  S   S125      1.0  0.83951  0.54716  0.93506  1.0000
  Fe  Fe64      1.0  0.86565  0.65345  0.87267  1.0000
  S   S126      1.0  0.86283  0.67384  0.81781  1.0000
  S   S127      1.0  0.87752  0.63160  0.96903  1.0000
  S   S128      1.0  0.89005  0.68677  0.90931  1.0000
  C   C862      1.0  0.74198  0.90452  0.51030  1.0000
  C   C863      1.0  0.70666  0.79247  0.91632  1.0000
  C   C864      1.0  0.77339  0.73148  0.97221  1.0000
  H   H687      1.0  0.88218  0.76037  0.82080  1.0000
  H   H688      1.0  0.97775  0.71073  0.78810  1.0000
  C   C865      1.0  0.84082  0.52186  0.97250  1.0000
  C   C866      1.0  0.82227  0.75118  0.89237  1.0000
  P   P29       1.0  0.77524  0.74037  0.84731  1.0000
  C   C867      1.0  0.93982  0.72732  0.66059  1.0000
  C   C868      1.0  0.86171  0.62374  0.71217  1.0000
  C   C869      1.0  0.86296  0.60442  0.74224  1.0000
  C   C870      1.0  0.86380  0.61918  0.77481  1.0000
  C   C871      1.0  0.86276  0.65348  0.77769  1.0000
  C   C872      1.0  0.86117  0.67271  0.74767  1.0000
  C   C873      1.0  0.86113  0.65805  0.71510  1.0000
  H   H689      1.0  0.86328  0.57786  0.74033  1.0000
  H   H690      1.0  0.86490  0.60401  0.79766  1.0000
  H   H691      1.0  0.85978  0.69917  0.74968  1.0000
  H   H692      1.0  0.85994  0.67327  0.69231  1.0000
  H   H693      1.0  0.74268  0.82516  0.92978  1.0000
  C   C874      1.0  0.80490  0.53140  0.55891  1.0000
  H   H694      1.0  0.87336  0.53110  0.55532  1.0000
  C   C875      1.0  0.83547  0.75276  0.83227  1.0000
  C   C876      1.0  0.78326  0.96238  0.96586  1.0000
  H   H695      1.0  0.95036  0.60984  0.77139  1.0000
  C   C877      1.0  0.74860  0.76093  0.87448  1.0000
  H   H696      1.0  0.77495  0.76823  0.55655  1.0000
  H   H697      1.0  0.81207  0.80820  0.95872  1.0000
  H   H698      1.0  0.76811  0.60034  0.85684  1.0000
  H   H699      1.0  0.74181  0.71111  0.79013  1.0000
  C   C878      1.0  0.71875  0.74994  0.87564  1.0000
  H   H700      1.0  0.97507  0.69697  0.91510  1.0000
  H   H701      1.0  0.89676  0.76582  0.88159  1.0000
  C   C879      1.0  0.79563  0.89014  0.95413  1.0000
  C   C880      1.0  0.71301  0.59254  0.54425  1.0000
  C   C881      1.0  0.81359  0.74955  0.85804  1.0000
  C   C882      1.0  0.77558  0.75788  0.53120  1.0000
  C   C883      1.0  0.75720  0.68060  0.87792  1.0000
  H   H702      1.0  0.81579  0.54991  0.57445  1.0000
  C   C884      1.0  0.99409  0.60197  0.71084  1.0000
  H   H703      1.0  0.72559  0.87179  0.99252  1.0000
  H   H704      1.0  0.81187  0.92314  0.91414  1.0000
  C   C885      1.0  0.77017  0.79759  0.76099  1.0000
  C   C886      1.0  0.95400  0.63065  0.78797  1.0000
  C   C887      1.0  0.75023  0.73509  0.78220  1.0000
  H   H705      1.0  0.74899  0.78664  0.71303  1.0000
  P   P30       1.0  0.97704  0.66471  0.73096  1.0000
  H   H706      1.0  0.92677  0.63651  0.69195  1.0000
  H   H707      1.0  0.91768  0.50025  0.94010  1.0000
  H   H708      1.0  0.70429  0.67666  0.57517  1.0000
  C   C888      1.0  0.69795  0.76545  0.89678  1.0000
  C   C889      1.0  0.76872  0.62698  0.85468  1.0000
  C   C890      1.0  0.73570  0.91119  0.95632  1.0000
  C   C891      1.0  0.68231  0.59794  0.54921  1.0000
  C   C892      1.0  0.80548  0.53450  0.52334  1.0000
  H   H709      1.0  0.84532  0.78835  0.53030  1.0000
  C   C893      1.0  0.94094  0.58861  0.67637  1.0000
  C   C894      1.0  0.91604  0.74117  0.67849  1.0000
  C   C895      1.0  0.83825  0.53488  0.00537  1.0000
  P   P31       1.0  0.73874  0.62680  0.53832  1.0000
  C   C896      1.0  0.00035  0.66273  0.53340  1.0000
  C   C897      1.0  0.75768  0.63438  0.57837  1.0000
  C   C898      1.0  0.76405  0.60834  0.60112  1.0000
  C   C899      1.0  0.78001  0.61426  0.63115  1.0000
  C   C900      1.0  0.78977  0.64611  0.63876  1.0000
  C   C901      1.0  0.78352  0.67212  0.61638  1.0000
  C   C902      1.0  0.76767  0.66630  0.58629  1.0000
  H   H710      1.0  0.79921  0.65196  0.52504  1.0000
  C   C903      1.0  0.70395  0.68283  0.54819  1.0000
  H   H711      1.0  0.73946  0.78825  0.51250  1.0000
  H   H712      1.0  0.67893  0.85509  0.96432  1.0000
  C   C904      1.0  0.91076  0.73208  0.71252  1.0000
  H   H713      1.0  0.75745  0.58335  0.59560  1.0000
  H   H714      1.0  0.78574  0.59405  0.64814  1.0000
  H   H715      1.0  0.80300  0.65039  0.66147  1.0000
  H   H716      1.0  0.79197  0.69667  0.62162  1.0000
  H   H717      1.0  0.76414  0.68666  0.56874  1.0000
  C   C905      1.0  0.99032  0.57196  0.69408  1.0000
  H   H718      1.0  0.74420  0.63438  0.90150  1.0000
  C   C906      1.0  0.76181  0.98743  0.96528  1.0000
  C   C907      1.0  0.99405  0.64869  0.92005  1.0000
  H   H719      1.0  0.71165  0.72905  0.86059  1.0000
  H   H720      1.0  0.96068  0.54212  0.66370  1.0000
  H   H721      1.0  0.94078  0.52689  0.98975  1.0000
  C   C908      1.0  0.71881  0.66301  0.52434  1.0000
  C   C909      1.0  0.81245  0.89846  0.92482  1.0000
  C   C910      1.0  0.71833  0.88525  0.97001  1.0000
  C   C911      1.0  0.72367  0.56010  0.54468  1.0000
  H   H722      1.0  0.74781  0.69488  0.89850  1.0000
  H   H723      1.0  0.94343  0.73348  0.63383  1.0000
  H   H724      1.0  0.90131  0.75831  0.66571  1.0000
  C   C912      1.0  0.77202  0.69604  0.85024  1.0000
  C   C913      1.0  0.96076  0.68421  0.83182  1.0000
  H   H725      1.0  0.78903  0.80181  0.81115  1.0000
  C   C914      1.0  0.76736  0.75445  0.80445  1.0000
  C   C915      1.0  0.78427  0.64217  0.82764  1.0000
  C   C916      1.0  0.78593  0.67654  0.82544  1.0000
  H   H726      1.0  0.72711  0.74437  0.96470  1.0000
  C   C917      1.0  0.73600  0.80443  0.91425  1.0000
  H   H727      1.0  0.93561  0.60494  0.83185  1.0000
  H   H728      1.0  0.79589  0.62738  0.80891  1.0000
  H   H729      1.0  0.79873  0.68785  0.80477  1.0000
  C   C918      1.0  0.74718  0.74975  0.97891  1.0000
  C   C919      1.0  0.94480  0.61885  0.69266  1.0000
  C   C920      1.0  0.95838  0.70450  0.67669  1.0000
  H   H730      1.0  0.80620  0.74682  0.91273  1.0000
  H   H731      1.0  0.97597  0.69345  0.66191  1.0000
  H   H732      1.0  0.94227  0.65216  0.87072  1.0000
  C   C921      1.0  0.82999  0.84231  0.92107  1.0000
  C   C922      1.0  0.85205  0.75772  0.90076  1.0000
  C   C923      1.0  0.86529  0.75908  0.84073  1.0000
  C   C924      1.0  0.82981  0.87468  0.90860  1.0000
  C   C925      1.0  0.81370  0.97108  0.96444  1.0000
  H   H733      1.0  0.67799  0.72674  0.55583  1.0000
  H   H734      1.0  0.85862  0.75846  0.92738  1.0000
  C   C926      1.0  0.75687  0.78895  0.89316  1.0000
  C   C927      1.0  0.87353  0.76189  0.87496  1.0000
  C   C928      1.0  0.72624  0.92720  0.92633  1.0000
  H   H735      1.0  0.92350  0.70127  0.75443  1.0000
  C   C929      1.0  0.96929  0.68725  0.79752  1.0000
  H   H736      1.0  0.82984  0.74906  0.80571  1.0000
  H   H737      1.0  0.82128  0.83806  0.50706  1.0000
  H   H738      1.0  0.73101  0.73137  0.73200  1.0000
  H   H739      1.0  0.00071  0.58623  0.81332  1.0000
  C   C930      1.0  0.87552  0.51716  0.53202  1.0000
  C   C931      1.0  0.79976  0.73789  0.99019  1.0000
  H   H740      1.0  0.72724  0.85424  0.51709  1.0000
  C   C932      1.0  0.93300  0.50164  0.99219  1.0000
  C   C933      1.0  0.99507  0.68242  0.91242  1.0000
  H   H741      1.0  0.83073  0.95246  0.96718  1.0000
  C   C934      1.0  0.97160  0.62587  0.70969  1.0000
  C   C935      1.0  0.94543  0.62775  0.82228  1.0000
  C   C936      1.0  0.79084  0.50414  0.57431  1.0000
  H   H742      1.0  0.73975  0.94646  0.91450  1.0000
  C   C937      1.0  0.81243  0.83350  0.94944  1.0000
  H   H743      1.0  0.96299  0.70495  0.84884  1.0000
  H   H744      1.0  0.79294  0.49381  0.90642  1.0000
  C   C938      1.0  0.79507  0.85724  0.96574  1.0000
  C   C939      1.0  0.79650  0.73314  0.52376  1.0000
  H   H745      1.0  0.97915  0.66236  0.52027  1.0000
  H   H746      1.0  0.89195  0.74230  0.72622  1.0000
  H   H747      1.0  0.92017  0.58327  0.66334  1.0000
  H   H748      1.0  0.96396  0.67469  0.99743  1.0000
  C   C940      1.0  0.95347  0.69531  0.71092  1.0000
  C   C941      1.0  0.92910  0.70895  0.72859  1.0000
  C   C942      1.0  0.74384  0.74662  0.74926  1.0000
  C   C943      1.0  0.69176  0.87573  0.95411  1.0000
  H   H749      1.0  0.84352  0.82402  0.90851  1.0000
  H   H750      1.0  0.93602  0.53704  0.55011  1.0000
  C   C944      1.0  0.96657  0.66027  0.77547  1.0000
  C   C945      1.0  0.94899  0.65442  0.84419  1.0000
  H   H751      1.0  0.84300  0.88129  0.88620  1.0000
  C   C946      1.0  0.97078  0.56350  0.52301  1.0000
  H   H752      1.0  0.77770  0.82189  0.75285  1.0000
  C   C947      1.0  0.96374  0.56531  0.67677  1.0000
  H   H753      1.0  0.77939  0.79878  0.89178  1.0000
  P   P32       1.0  0.77188  0.92020  0.97411  1.0000
  H   H754      1.0  0.74720  0.55536  0.54097  1.0000
  H   H755      1.0  0.77320  0.71246  0.95307  1.0000
  C   C948      1.0  0.95422  0.53530  0.53183  1.0000
  H   H756      1.0  0.73835  0.98167  0.96874  1.0000
  C   C949      1.0  0.75521  0.64620  0.87982  1.0000
  C   C950      1.0  0.75392  0.77778  0.73859  1.0000
  H   H757      1.0  0.96558  0.58694  0.53467  1.0000
  C   C951      1.0  0.77666  0.78610  0.79392  1.0000
  C   C952      1.0  0.69920  0.91821  0.91108  1.0000
  H   H758      1.0  0.67338  0.62261  0.54902  1.0000
  C   C953      1.0  0.70411  0.53356  0.55042  1.0000
  C   C954      1.0  0.00117  0.66887  0.56851  1.0000
  H   H759      1.0  0.69176  0.93109  0.88834  1.0000
  H   H760      1.0  0.72476  0.91434  0.52688  1.0000
  H   H761      1.0  0.67519  0.75619  0.89855  1.0000
  H   H762      1.0  0.78102  0.84975  0.98722  1.0000
  H   H763      1.0  0.67364  0.94335  0.99133  1.0000
  C   C955      1.0  0.67486  0.96966  0.99542  1.0000
  H   H764      1.0  0.68042  0.98178  0.94188  1.0000
  H   H765      1.0  0.79067  0.50161  0.60190  1.0000
  H   H766      1.0  0.71268  0.50871  0.55119  1.0000
  C   C956      1.0  0.67363  0.53914  0.55544  1.0000
  C   C957      1.0  0.68887  0.71109  0.53735  1.0000
  C   C958      1.0  0.74652  0.77458  0.00394  1.0000
  H   H767      1.0  0.69087  0.80365  0.93373  1.0000
  C   C959      1.0  0.96058  0.50510  0.51651  1.0000
  H   H768      1.0  0.81698  0.55535  0.51153  1.0000
  C   C960      1.0  0.67861  0.99152  0.96742  1.0000
