data_image0
_chemical_formula_structural       FeS2FeS2FeSFeS3HSFeS2FeSFeSCFeS2FeS2FeSFeS3HCFeCSHCSH2SCSFeSHC2HCHCSC6H4C6H6CHC6H4C6H4C6H5C2H2FeHCHC3H3CHC6PC2H2SC8FeHC2H6C2HC2H8C2H4C2H3C3HCH3CHCHCH2CHC3H2CH2C2H3C4H2C2H3CH2SH3C2HCHCPC2HC4PC4H2C13HCHC2H4C2H6C6PC18H22C2HC3H2C2HCHCHC4H3C5HCH3CHCH3C2H2C2SC3HCHCHCHCHCH2CH2C3H2C2H2SC3HCHC6H3PHSHPHC3HC3HCHC5HC3H2CHC4HC2HSHCHC2HCHSHC3SHSFeSFeS2FeS2FeSFeS4CSHFeSFeSHFeS2FeS2FeSFeS3FeCSCH3CSCH2CSC3H2C6H4C2H3C3H2C6H4C6H4C6H4C2HC7H6CH3C2H3C4HC3SC3H2C2HPC2H3C2HC2HCH2CHCHSC3HC2HCH2CHCHC4HCH4C2H3C3HFeHCHC2PC2H2C2HC2H5C2H3C5HCHC6PC18H21C2H4CSPC7H3C6H3C3H4C4H3CH2C5H4CHC3H2C2H4CFeH2CFeHCHPC2H2C4HC2HC2HCH4C4HCSHCHPC2H2C2H3C8H5PC2H4PFeHCH2C2H2CH2C2HC3H2C2HC6PC5H2C7HCHCHC4H3CH2CH2CHC3H2C2HCHCPC2H3C4FeCH3C2HC4H5C2HCPHSFeH2SFeS2FeS2FeSFeS3HCSH3FeSCFeS2FeS2FeSFeS3FeS2FeSHFeS3CHSH2C7H2C6H4C2H2C3HC3H2C6H4C6H4C7H3C7H5CHCSCPHCHCH2C2HCH4CHC2H2CHC3H2CHCSHFeC2PCHFeHCH2C2H3CPHC3HC3H6C2HC2H2C2H2C6PC5HC10HCH3CHCH2C2H8C8PC18H20CH2C4HSC4H2CH4C2HCHC2HC2HC2PC2H2CHCHCHC9PC10H4CH5CH2C3HC2HCHC3HC2HCHCHCH2C3HCH5C4H3SH2C4HC2H3C2HCH4CH5CH2C2HCHPC2HC2H2C2H2C2HC2H2CH2C2HCHC2FeS2FeS2FeSFeS3HCSCH3SCFeS2FeS2FeSFeS3FeSFeS2FeHS2FeS2HSFeCH2CHC2H2C6H4C6H4C7H4C6H4C6H4C2H3CHCHC2HCHC2H3C2HC2HCS2H6CH2C5H2C8HC2HC2H3CHC3SCH2CH2C2HCHCH3C2H2CHC2HC4HCHCHC3H6CHC7PC18H20C2H2PHC3PSCH2C3H4C7H2C2HCH7FeHCH4C2H2C5HC13H3CH4C5H2CHC4HCPC3SC3HPC12HCHC4PH6CH6CHCH3C2H2SHC2H2FeC2H2C4HFeHC2H2C2HC2HCHC2H2C2PC2HSCHC4HPCHFe2S2FeS2FeSFeS3Fe2SFeSCFePS2FeS2FeS2FeSFeS3HCSC2SFeSCFeS2HSCH2C2HCHCHCHC7H2FeHC3H2C6H5C3HC2HC7H4C3H2C6H4C6H5C6PC18H22C3HPC5SCH3CH3C3HCH3CH3CHCH3PCSHC4HC3PCH2C2HC8HC2PH2C2HCHC2H4CH3C3H3C6PC10HCHCH3C4HCH4CHC7H6C2PC4HC8HCHC2H3CH2C2H2CH5C2HCH3C2HC2H4C2H2C3HC5H2C3H3C2H3C5H3C3FeCHC2SH2CHCH2SHCHCHCHC2H2C2PH2CH2SH2CHC2H2C3HC2HCHCHC2H2CH2CH2SC2HC2H3CH4C4PCH2CHCH3C3HC7HCHC2FeS2FeS2FeS2FeSFeS3CHSHCSFeSHFeS2FeS2FeSFeS3FeSCSFeSFeS2HC6H5C6H4C6H5C2H2CH4C3HCSH2C7H4CH3C6H4CH2C6PC8HCHCH9CHC3H2C2HC2H2C2SC2H3C2HSHC3H2C3H2CHC2HC2HC3H2CFeHC9H2CH2C3HCHC4H3FeHC4SCH3CHC2H5C2H3PCHC7PCHCH4C11H16CH4C6PC18H11C2H7C2H4C2SPH3CHC2H2CHC2SHCH2C2HC3H2C5HC3HC5H3C4HC2H2C3H2CH2C2HC3HCHPHC2HFeHC3H4C2H2C3FeSCHSFeS2FeS2FeSFeS3CSFeSCFeSFeS2FeS2FeS2FeSFeS3HSH2CHFeSC2H2C7H4C10H4C6H4C3H3C2HCHCHCH2CHC7H4CFeC6H5C6PC18H17CFeHC6PC17H18CHCSHC3HCH4C2HC3HCH4CHCHC2HCHCHC4H2FeC7PC18H20C3HC2HC2H2C2HCH2C2HCH2CHC2H2CHCHCHC5H2CH2CPH9CHC3H2C2SPC4H3C3H4C4H2CHC4HC2H2C2H2C2HC3HC5HSHCH2CHSC3HC4HCHC2SC8H2C2H2SHCH3CHCHCH2CHC3HC2H3CPH3CH2SHC2HPHFeS2FeS2FeSFeS3H2SCSC3SFeS2FeS2FeSFeS3FeHSFeSFeHS2C2FeS2C3H2CH3C2H2CHC6H4C3H2C6H4CH4C6H4CHC2HC6H4C6H4C2HC3H2CH2C3HCHC3PC19HCH4C2H11C6PC2H2C10HC3H8C2H2PC7PC3H2FeC8H3CH5C2HSH13PC6HC11H10C2FeH7CH2C2SHCSHCHCH2C7HC2HC5H4C2H4C2H2C3H3C2HCH2C5HC3HC3H2CHCPH2C3H2CH2CH3CHC4HSHCHC3H2C2H2PC2HCHC9HCH3SH5CH2C2HCHC2HCPFeHCH2SC4H2C2H2CHCH6C3FeC2HSCHC3HCHCH2
_chemical_formula_sum              "Fe128 S256 H1536 C1920 P64"
_cell_length_a       48.0577
_cell_length_b       60.0059
_cell_length_c       59.4209
_cell_angle_alpha    88.3099
_cell_angle_beta     90.6324
_cell_angle_gamma    90.6255

_space_group_name_H-M_alt    "P 1"
_space_group_IT_number       1

loop_
  _space_group_symop_operation_xyz
  'x, y, z'

loop_
  _atom_site_type_symbol
  _atom_site_label
  _atom_site_symmetry_multiplicity
  _atom_site_fract_x
  _atom_site_fract_y
  _atom_site_fract_z
  _atom_site_occupancy
  Fe  Fe1       1.0  0.40631  0.20348  0.12769  1.0000
  S   S1        1.0  0.39890  0.23870  0.13705  1.0000
  S   S2        1.0  0.44917  0.18779  0.13414  1.0000
  Fe  Fe2       1.0  0.34377  0.19650  0.11335  1.0000
  S   S3        1.0  0.33288  0.23153  0.12275  1.0000
  S   S4        1.0  0.31607  0.17040  0.09531  1.0000
  Fe  Fe3       1.0  0.37270  0.24171  0.10542  1.0000
  S   S5        1.0  0.38208  0.26721  0.07721  1.0000
  Fe  Fe4       1.0  0.36004  0.22540  0.15402  1.0000
  S   S6        1.0  0.35072  0.23957  0.18886  1.0000
  S   S7        1.0  0.38275  0.20703  0.09501  1.0000
  S   S8        1.0  0.36832  0.18969  0.14582  1.0000
  H   H1        1.0  0.47405  0.24415  0.17462  1.0000
  S   S9        1.0  0.12812  0.14446  0.01441  1.0000
  Fe  Fe5       1.0  0.15343  0.08306  0.01055  1.0000
  S   S10       1.0  0.14637  0.10042  0.04329  1.0000
  S   S11       1.0  0.16639  0.04623  0.01540  1.0000
  Fe  Fe6       1.0  0.10677  0.11303  0.02687  1.0000
  S   S12       1.0  0.06520  0.10996  0.04531  1.0000
  Fe  Fe7       1.0  0.16891  0.13038  0.02780  1.0000
  S   S13       1.0  0.19750  0.15676  0.04496  1.0000
  C   C1        1.0  0.48878  0.32298  0.19956  1.0000
  Fe  Fe8       1.0  0.40730  0.20322  0.36733  1.0000
  S   S14       1.0  0.40367  0.23091  0.34151  1.0000
  S   S15       1.0  0.44802  0.18893  0.38140  1.0000
  Fe  Fe9       1.0  0.34296  0.20134  0.37585  1.0000
  S   S16       1.0  0.33534  0.22952  0.35024  1.0000
  S   S17       1.0  0.31539  0.18348  0.40280  1.0000
  Fe  Fe10      1.0  0.36640  0.21228  0.32796  1.0000
  S   S18       1.0  0.36513  0.20158  0.29083  1.0000
  Fe  Fe11      1.0  0.37351  0.24588  0.36551  1.0000
  S   S19       1.0  0.38402  0.28059  0.37754  1.0000
  S   S20       1.0  0.37175  0.18327  0.35302  1.0000
  S   S21       1.0  0.37924  0.21913  0.39192  1.0000
  H   H2        1.0  0.24376  0.09854  0.37638  1.0000
  C   C2        1.0  0.15765  0.01998  0.00332  1.0000
  Fe  Fe12      1.0  0.17019  0.12738  0.45674  1.0000
  C   C3        1.0  0.48638  0.21644  0.11150  1.0000
  S   S22       1.0  0.19261  0.14634  0.42747  1.0000
  H   H3        1.0  0.26505  0.12753  0.29869  1.0000
  C   C4        1.0  0.16676  0.00016  0.01429  1.0000
  S   S23       1.0  0.13222  0.10535  0.45066  1.0000
  H   H4        1.0  0.42165  0.33127  0.18217  1.0000
  H   H5        1.0  0.22928  0.28223  0.01767  1.0000
  S   S24       1.0  0.31085  0.33454  0.44508  1.0000
  C   C5        1.0  0.04179  0.01626  0.46880  1.0000
  S   S25       1.0  0.38109  0.39598  0.00175  1.0000
  Fe  Fe13      1.0  0.34546  0.37136  0.00451  1.0000
  S   S26       1.0  0.32734  0.35626  0.03681  1.0000
  H   H6        1.0  0.33772  0.48056  0.44999  1.0000
  C   C6        1.0  0.41208  0.13193  0.33037  1.0000
  C   C7        1.0  0.00104  0.00941  0.03904  1.0000
  H   H7        1.0  0.35631  0.10548  0.35403  1.0000
  C   C8        1.0  0.41183  0.42742  0.44884  1.0000
  H   H8        1.0  0.24670  0.47511  0.00014  1.0000
  C   C9        1.0  0.47647  0.27510  0.09450  1.0000
  S   S27       1.0  0.17827  0.11248  0.99578  1.0000
  C   C10       1.0  0.36342  0.29334  0.39790  1.0000
  C   C11       1.0  0.33437  0.29249  0.39670  1.0000
  C   C12       1.0  0.31846  0.30472  0.41169  1.0000
  C   C13       1.0  0.33150  0.31801  0.42787  1.0000
  C   C14       1.0  0.36054  0.31846  0.42944  1.0000
  C   C15       1.0  0.37637  0.30624  0.41441  1.0000
  H   H9        1.0  0.32425  0.28335  0.38347  1.0000
  H   H10       1.0  0.29601  0.30444  0.41025  1.0000
  H   H11       1.0  0.37082  0.32865  0.44183  1.0000
  H   H12       1.0  0.39873  0.30706  0.41533  1.0000
  C   C16       1.0  0.28087  0.17377  0.40938  1.0000
  C   C17       1.0  0.25852  0.17557  0.39413  1.0000
  C   C18       1.0  0.23187  0.16713  0.40004  1.0000
  C   C19       1.0  0.22696  0.15670  0.42123  1.0000
  C   C20       1.0  0.24926  0.15508  0.43659  1.0000
  C   C21       1.0  0.27590  0.16359  0.43070  1.0000
  H   H13       1.0  0.26169  0.18345  0.37778  1.0000
  H   H14       1.0  0.21490  0.16858  0.38799  1.0000
  H   H15       1.0  0.24605  0.14716  0.45295  1.0000
  H   H16       1.0  0.29287  0.16210  0.44272  1.0000
  H   H17       1.0  0.44602  0.26701  0.04348  1.0000
  H   H18       1.0  0.24877  0.23433  0.02221  1.0000
  C   C22       1.0  0.45390  0.31800  0.40347  1.0000
  H   H19       1.0  0.17852  0.00119  0.02985  1.0000
  C   C23       1.0  0.36525  0.29122  0.06587  1.0000
  C   C24       1.0  0.37820  0.30312  0.04811  1.0000
  C   C25       1.0  0.36655  0.32282  0.03895  1.0000
  C   C26       1.0  0.34173  0.33090  0.04745  1.0000
  C   C27       1.0  0.32846  0.31885  0.06502  1.0000
  C   C28       1.0  0.34012  0.29902  0.07417  1.0000
  H   H20       1.0  0.39765  0.29727  0.04158  1.0000
  H   H21       1.0  0.37721  0.33200  0.02565  1.0000
  H   H22       1.0  0.30927  0.32499  0.07173  1.0000
  H   H23       1.0  0.32992  0.29002  0.08781  1.0000
  C   C29       1.0  0.35431  0.22848  0.21709  1.0000
  C   C30       1.0  0.35989  0.20596  0.22194  1.0000
  C   C31       1.0  0.36311  0.19816  0.24453  1.0000
  C   C32       1.0  0.36079  0.21264  0.26268  1.0000
  C   C33       1.0  0.35516  0.23513  0.25784  1.0000
  C   C34       1.0  0.35187  0.24292  0.23525  1.0000
  H   H24       1.0  0.36178  0.19458  0.20827  1.0000
  H   H25       1.0  0.36739  0.18072  0.24796  1.0000
  H   H26       1.0  0.35325  0.24652  0.27149  1.0000
  H   H27       1.0  0.34756  0.26036  0.23181  1.0000
  C   C35       1.0  0.28370  0.16798  0.08003  1.0000
  C   C36       1.0  0.26324  0.18448  0.07968  1.0000
  C   C37       1.0  0.23725  0.18080  0.06878  1.0000
  C   C38       1.0  0.23120  0.16066  0.05792  1.0000
  C   C39       1.0  0.25206  0.14455  0.05758  1.0000
  C   C40       1.0  0.27788  0.14813  0.06866  1.0000
  H   H28       1.0  0.26723  0.19989  0.08820  1.0000
  H   H29       1.0  0.22159  0.19360  0.06898  1.0000
  H   H30       1.0  0.24836  0.12926  0.04882  1.0000
  H   H31       1.0  0.29346  0.13525  0.06861  1.0000
  H   H32       1.0  0.25833  0.23205  0.39402  1.0000
  C   C41       1.0  0.24821  0.41368  0.46839  1.0000
  C   C42       1.0  0.03158  0.10994  0.45803  1.0000
  H   H33       1.0  0.04977  0.10320  0.45025  1.0000
  H   H34       1.0  0.09178  0.99722  0.01222  1.0000
  Fe  Fe14      1.0  0.33084  0.35561  0.47204  1.0000
  H   H35       1.0  0.04658  0.12348  0.99987  1.0000
  C   C43       1.0  0.99971  0.99033  0.02611  1.0000
  H   H36       1.0  0.46798  0.21498  0.34220  1.0000
  C   C44       1.0  0.00783  0.11071  0.04606  1.0000
  C   C45       1.0  0.03174  0.11405  0.03284  1.0000
  C   C46       1.0  0.02846  0.12105  0.01034  1.0000
  H   H37       1.0  0.01011  0.10529  0.06350  1.0000
  H   H38       1.0  0.32461  0.24577  0.06015  1.0000
  H   H39       1.0  0.30145  0.42064  0.03300  1.0000
  C   C47       1.0  0.08209  0.19238  0.47109  1.0000
  H   H40       1.0  0.43209  0.21334  0.45480  1.0000
  C   C48       1.0  0.42347  0.23861  0.21976  1.0000
  C   C49       1.0  0.43011  0.24477  0.24165  1.0000
  C   C50       1.0  0.44493  0.26453  0.24518  1.0000
  C   C51       1.0  0.45269  0.27830  0.22682  1.0000
  C   C52       1.0  0.44538  0.27244  0.20476  1.0000
  C   C53       1.0  0.43092  0.25234  0.20141  1.0000
  P   P1        1.0  0.45469  0.29020  0.18082  1.0000
  C   C54       1.0  0.42579  0.29206  0.16118  1.0000
  C   C55       1.0  0.46250  0.31798  0.19028  1.0000
  H   H41       1.0  0.99961  0.13213  0.98446  1.0000
  H   H42       1.0  0.23812  0.21220  0.42715  1.0000
  S   S28       1.0  0.14292  0.04453  0.46990  1.0000
  C   C56       1.0  0.48182  0.19627  0.37158  1.0000
  C   C57       1.0  0.46130  0.27252  0.05572  1.0000
  C   C58       1.0  0.39830  0.28889  0.16861  1.0000
  C   C59       1.0  0.37603  0.29065  0.15336  1.0000
  C   C60       1.0  0.38097  0.29587  0.13068  1.0000
  C   C61       1.0  0.40817  0.29943  0.12322  1.0000
  C   C62       1.0  0.43051  0.29768  0.13842  1.0000
  C   C63       1.0  0.48456  0.27888  0.16699  1.0000
  Fe  Fe15      1.0  0.13659  0.12538  0.98339  1.0000
  H   H43       1.0  0.24285  0.46059  0.44888  1.0000
  C   C64       1.0  0.26534  0.38234  0.43732  1.0000
  C   C65       1.0  0.00462  0.10349  0.45081  1.0000
  H   H44       1.0  0.15152  0.44276  0.98854  1.0000
  H   H45       1.0  0.41203  0.22334  0.21691  1.0000
  H   H46       1.0  0.42343  0.23433  0.25585  1.0000
  H   H47       1.0  0.45000  0.26930  0.26220  1.0000
  H   H48       1.0  0.46387  0.29360  0.23004  1.0000
  H   H49       1.0  0.42489  0.24737  0.18464  1.0000
  C   C66       1.0  0.27835  0.43120  0.00331  1.0000
  C   C67       1.0  0.09292  0.02967  0.02670  1.0000
  H   H50       1.0  0.26370  0.21039  0.46318  1.0000
  C   C68       1.0  0.24399  0.24635  0.05554  1.0000
  C   C69       1.0  0.47721  0.23322  0.41948  1.0000
  H   H51       1.0  0.39385  0.28480  0.18608  1.0000
  H   H52       1.0  0.35498  0.28740  0.15907  1.0000
  H   H53       1.0  0.36378  0.29680  0.11878  1.0000
  H   H54       1.0  0.41183  0.30315  0.10550  1.0000
  H   H55       1.0  0.45137  0.30070  0.13235  1.0000
  H   H56       1.0  0.47333  0.37215  0.05167  1.0000
  H   H57       1.0  0.24006  0.25054  0.46821  1.0000
  H   H58       1.0  0.48539  0.33361  0.06281  1.0000
  C   C70       1.0  0.44364  0.18220  0.21270  1.0000
  C   C71       1.0  0.44832  0.35609  0.19642  1.0000
  H   H59       1.0  0.46190  0.25019  0.37158  1.0000
  H   H60       1.0  0.29042  0.44644  0.00123  1.0000
  H   H61       1.0  0.47811  0.21633  0.41368  1.0000
  H   H62       1.0  0.01552  0.98801  0.01363  1.0000
  C   C72       1.0  0.33513  0.25075  0.97866  1.0000
  C   C73       1.0  0.26931  0.23200  0.41004  1.0000
  H   H63       1.0  0.23251  0.36138  0.45061  1.0000
  H   H64       1.0  0.23968  0.37429  0.00965  1.0000
  H   H65       1.0  0.12329  0.19572  0.45741  1.0000
  C   C74       1.0  0.42578  0.35514  0.41879  1.0000
  C   C75       1.0  0.39832  0.14522  0.31418  1.0000
  C   C76       1.0  0.38926  0.20493  0.44789  1.0000
  H   H66       1.0  0.43115  0.27498  0.42445  1.0000
  C   C77       1.0  0.02146  0.18176  0.00028  1.0000
  H   H67       1.0  0.39423  0.19344  0.43479  1.0000
  H   H68       1.0  0.34521  0.20029  0.44379  1.0000
  H   H69       1.0  0.30469  0.25008  0.39697  1.0000
  C   C78       1.0  0.25743  0.25310  0.07520  1.0000
  H   H70       1.0  0.44061  0.44137  0.00642  1.0000
  C   C79       1.0  0.26969  0.09904  0.27807  1.0000
  H   H71       1.0  0.47346  0.27089  0.11217  1.0000
  C   C80       1.0  0.18449  0.43114  0.47340  1.0000
  H   H72       1.0  0.13120  0.99936  0.45771  1.0000
  H   H73       1.0  0.24926  0.16230  0.01047  1.0000
  C   C81       1.0  0.19881  0.20017  0.46451  1.0000
  H   H74       1.0  0.27686  0.19053  0.03047  1.0000
  C   C82       1.0  0.46528  0.29896  0.34118  1.0000
  C   C83       1.0  0.26372  0.10706  0.37536  1.0000
  C   C84       1.0  0.01455  0.02080  0.46127  1.0000
  H   H75       1.0  0.43454  0.13298  0.33205  1.0000
  H   H76       1.0  0.33051  0.24942  0.43303  1.0000
  C   C85       1.0  0.43880  0.33163  0.38833  1.0000
  H   H77       1.0  0.30657  0.27493  0.46374  1.0000
  H   H78       1.0  0.41438  0.36919  0.42493  1.0000
  C   C86       1.0  0.18023  0.23591  0.01861  1.0000
  C   C87       1.0  0.18885  0.25472  0.00595  1.0000
  H   H79       1.0  0.27247  0.37003  0.42574  1.0000
  H   H80       1.0  0.05156  0.07304  0.01111  1.0000
  H   H81       1.0  0.40753  0.10716  0.35705  1.0000
  C   C88       1.0  0.43304  0.41594  0.46027  1.0000
  C   C89       1.0  0.01050  0.03723  0.44422  1.0000
  C   C90       1.0  0.25956  0.23937  0.03735  1.0000
  C   C91       1.0  0.35477  0.22345  0.47023  1.0000
  H   H82       1.0  0.22149  0.24634  0.05447  1.0000
  H   H83       1.0  0.17978  0.19993  0.02119  1.0000
  C   C92       1.0  0.05982  0.01853  0.99800  1.0000
  C   C93       1.0  0.48363  0.43280  0.00238  1.0000
  H   H84       1.0  0.08132  0.16268  0.97809  1.0000
  H   H85       1.0  0.43883  0.19311  0.24661  1.0000
  H   H86       1.0  0.99283  0.99842  0.42453  1.0000
  C   C94       1.0  0.34295  0.47499  0.00271  1.0000
  H   H87       1.0  0.43928  0.25784  0.08398  1.0000
  H   H88       1.0  0.38468  0.45567  0.44889  1.0000
  S   S29       1.0  0.36274  0.38258  0.46734  1.0000
  H   H89       1.0  0.00219  0.09187  0.43738  1.0000
  H   H90       1.0  0.16800  0.23776  0.03363  1.0000
  H   H91       1.0  0.18254  0.27108  0.01105  1.0000
  C   C95       1.0  0.48200  0.19328  0.23686  1.0000
  C   C96       1.0  0.24828  0.28403  0.45682  1.0000
  H   H92       1.0  0.28234  0.43387  0.45535  1.0000
  C   C97       1.0  0.45409  0.27934  0.35068  1.0000
  H   H93       1.0  0.01807  0.02124  0.03685  1.0000
  C   C98       1.0  0.32100  0.29383  0.99051  1.0000
  P   P2        1.0  0.30869  0.22991  0.01521  1.0000
  C   C99       1.0  0.29888  0.23021  0.45105  1.0000
  C   C100      1.0  0.27072  0.41843  0.45413  1.0000
  H   H94       1.0  0.43713  0.32735  0.37079  1.0000
  C   C101      1.0  0.18673  0.21460  0.01159  1.0000
  C   C102      1.0  0.36929  0.14451  0.31254  1.0000
  C   C103      1.0  0.35370  0.13093  0.32744  1.0000
  C   C104      1.0  0.29544  0.24223  0.41173  1.0000
  P   P3        1.0  0.31607  0.13086  0.32588  1.0000
  C   C105      1.0  0.30458  0.11137  0.30505  1.0000
  C   C106      1.0  0.30126  0.12340  0.35298  1.0000
  C   C107      1.0  0.27583  0.11169  0.35439  1.0000
  C   C108      1.0  0.27268  0.21975  0.44916  1.0000
  H   H95       1.0  0.45247  0.30939  0.33017  1.0000
  H   H96       1.0  0.05890  0.16776  0.01490  1.0000
  C   C109      1.0  0.31429  0.13043  0.37288  1.0000
  C   C110      1.0  0.32151  0.09352  0.29931  1.0000
  C   C111      1.0  0.31260  0.07863  0.28298  1.0000
  C   C112      1.0  0.28674  0.08140  0.27233  1.0000
  C   C113      1.0  0.39682  0.11751  0.34455  1.0000
  C   C114      1.0  0.27853  0.11396  0.29439  1.0000
  C   C115      1.0  0.30430  0.15849  0.31766  1.0000
  C   C116      1.0  0.30434  0.16548  0.29487  1.0000
  C   C117      1.0  0.29546  0.18687  0.28844  1.0000
  C   C118      1.0  0.28626  0.20139  0.30465  1.0000
  C   C119      1.0  0.28590  0.19452  0.32731  1.0000
  C   C120      1.0  0.29516  0.17327  0.33386  1.0000
  C   C121      1.0  0.45345  0.18978  0.23337  1.0000
  H   H97       1.0  0.35917  0.15511  0.30002  1.0000
  C   C122      1.0  0.42461  0.35009  0.39600  1.0000
  H   H98       1.0  0.26495  0.10649  0.33939  1.0000
  C   C123      1.0  0.45208  0.24463  0.41852  1.0000
  C   C124      1.0  0.23815  0.29575  0.00770  1.0000
  H   H99       1.0  0.46430  0.30356  0.39725  1.0000
  H   H100      1.0  0.33319  0.14045  0.37228  1.0000
  H   H101      1.0  0.34163  0.09110  0.30733  1.0000
  H   H102      1.0  0.32583  0.06497  0.27851  1.0000
  C   C125      1.0  0.27495  0.19189  0.01228  1.0000
  C   C126      1.0  0.38945  0.22253  0.03666  1.0000
  H   H103      1.0  0.24541  0.25839  0.08936  1.0000
  H   H104      1.0  0.31194  0.15466  0.28209  1.0000
  H   H105      1.0  0.29662  0.19246  0.27095  1.0000
  H   H106      1.0  0.27996  0.21812  0.29967  1.0000
  H   H107      1.0  0.27904  0.20585  0.33993  1.0000
  H   H108      1.0  0.29543  0.16865  0.35158  1.0000
  C   C127      1.0  0.22923  0.16139  0.13614  1.0000
  C   C128      1.0  0.25677  0.15566  0.13202  1.0000
  C   C129      1.0  0.26268  0.13499  0.12309  1.0000
  C   C130      1.0  0.24107  0.12018  0.11784  1.0000
  C   C131      1.0  0.21327  0.12609  0.12130  1.0000
  C   C132      1.0  0.20755  0.14654  0.13109  1.0000
  P   P4        1.0  0.18530  0.10671  0.11548  1.0000
  C   C133      1.0  0.19521  0.08779  0.09403  1.0000
  C   C134      1.0  0.17796  0.09238  0.14187  1.0000
  C   C135      1.0  0.19580  0.07554  0.15001  1.0000
  C   C136      1.0  0.19062  0.06463  0.17069  1.0000
  C   C137      1.0  0.16789  0.07074  0.18355  1.0000
  C   C138      1.0  0.15049  0.08791  0.17582  1.0000
  C   C139      1.0  0.15561  0.09884  0.15513  1.0000
  C   C140      1.0  0.18769  0.06510  0.09541  1.0000
  C   C141      1.0  0.19485  0.05092  0.07816  1.0000
  C   C142      1.0  0.20920  0.05934  0.05937  1.0000
  C   C143      1.0  0.21590  0.08202  0.05757  1.0000
  C   C144      1.0  0.20870  0.09621  0.07475  1.0000
  C   C145      1.0  0.15531  0.12062  0.10350  1.0000
  C   C146      1.0  0.12926  0.10980  0.10364  1.0000
  C   C147      1.0  0.10636  0.11975  0.09286  1.0000
  C   C148      1.0  0.10943  0.14029  0.08141  1.0000
  C   C149      1.0  0.13541  0.15094  0.08082  1.0000
  C   C150      1.0  0.15828  0.14115  0.09179  1.0000
  H   H109      1.0  0.22474  0.17743  0.14307  1.0000
  H   H110      1.0  0.27362  0.16732  0.13541  1.0000
  H   H111      1.0  0.28409  0.13078  0.11967  1.0000
  H   H112      1.0  0.24618  0.10430  0.11088  1.0000
  H   H113      1.0  0.18633  0.15113  0.13454  1.0000
  H   H114      1.0  0.21373  0.07088  0.14036  1.0000
  H   H115      1.0  0.20432  0.05150  0.17677  1.0000
  H   H116      1.0  0.16390  0.06229  0.19958  1.0000
  H   H117      1.0  0.13308  0.09285  0.18592  1.0000
  H   H118      1.0  0.14226  0.11241  0.14965  1.0000
  H   H119      1.0  0.17579  0.05841  0.10944  1.0000
  H   H120      1.0  0.18870  0.03349  0.07896  1.0000
  H   H121      1.0  0.21422  0.04843  0.04579  1.0000
  H   H122      1.0  0.22591  0.08870  0.04253  1.0000
  H   H123      1.0  0.21295  0.11389  0.07281  1.0000
  H   H124      1.0  0.12680  0.09339  0.11147  1.0000
  H   H125      1.0  0.08640  0.11116  0.09253  1.0000
  H   H126      1.0  0.09186  0.14751  0.07233  1.0000
  H   H127      1.0  0.13815  0.16640  0.07115  1.0000
  H   H128      1.0  0.17844  0.14926  0.09032  1.0000
  H   H129      1.0  0.27627  0.38461  0.03739  1.0000
  H   H130      1.0  0.40999  0.15659  0.30325  1.0000
  C   C151      1.0  0.47054  0.26566  0.36466  1.0000
  C   C152      1.0  0.06016  0.04472  0.44315  1.0000
  H   H131      1.0  0.25482  0.31914  0.45015  1.0000
  C   C153      1.0  0.48581  0.20921  0.35190  1.0000
  C   C154      1.0  0.25930  0.17581  0.00101  1.0000
  C   C155      1.0  0.44222  0.33468  0.18893  1.0000
  H   H132      1.0  0.07779  0.05412  0.43644  1.0000
  H   H133      1.0  0.30030  0.27853  0.01878  1.0000
  C   C156      1.0  0.25013  0.39034  0.00807  1.0000
  C   C157      1.0  0.14197  0.99855  0.47379  1.0000
  H   H134      1.0  0.33849  0.45919  0.01119  1.0000
  C   C158      1.0  0.26646  0.32943  0.00640  1.0000
  H   H135      1.0  0.24964  0.10121  0.26982  1.0000
  C   C159      1.0  0.35321  0.47532  0.98075  1.0000
  H   H136      1.0  0.19530  0.19723  0.44677  1.0000
  C   C160      1.0  0.20154  0.21211  0.99177  1.0000
  C   C161      1.0  0.47460  0.36097  0.20542  1.0000
  C   C162      1.0  0.46820  0.46868  0.01455  1.0000
  C   C163      1.0  0.30212  0.24574  0.05859  1.0000
  H   H137      1.0  0.20490  0.16539  0.47278  1.0000
  H   H138      1.0  0.37014  0.16792  0.04080  1.0000
  H   H139      1.0  0.41117  0.19257  0.04664  1.0000
  C   C164      1.0  0.34335  0.19467  0.02960  1.0000
  C   C165      1.0  0.36865  0.18565  0.03706  1.0000
  C   C166      1.0  0.25030  0.47027  0.46285  1.0000
  C   C167      1.0  0.11080  0.19600  0.47248  1.0000
  C   C168      1.0  0.39177  0.19953  0.04036  1.0000
  H   H140      1.0  0.40697  0.23344  0.04022  1.0000
  C   C169      1.0  0.36420  0.23162  0.02926  1.0000
  H   H141      1.0  0.32585  0.18349  0.02751  1.0000
  H   H142      1.0  0.29723  0.40636  0.42828  1.0000
  H   H143      1.0  0.26143  0.27911  0.44314  1.0000
  C   C170      1.0  0.34096  0.21775  0.02537  1.0000
  H   H144      1.0  0.36279  0.24958  0.02707  1.0000
  C   C171      1.0  0.45438  0.32258  0.42651  1.0000
  H   H145      1.0  0.27992  0.06991  0.25962  1.0000
  H   H146      1.0  0.41343  0.29143  0.45348  1.0000
  H   H147      1.0  0.01153  0.18365  0.01638  1.0000
  C   C172      1.0  0.45728  0.26757  0.07858  1.0000
  C   C173      1.0  0.28808  0.20948  0.00020  1.0000
  H   H148      1.0  0.47884  0.41613  0.99676  1.0000
  H   H149      1.0  0.42149  0.17975  0.20984  1.0000
  C   C174      1.0  0.28645  0.25294  0.07664  1.0000
  C   C175      1.0  0.28874  0.23860  0.03891  1.0000
  S   S30       1.0  0.33432  0.43919  0.47521  1.0000
  C   C176      1.0  0.23470  0.29699  0.98416  1.0000
  C   C177      1.0  0.24288  0.37744  0.45143  1.0000
  C   C178      1.0  0.14248  0.01824  0.98317  1.0000
  H   H150      1.0  0.27887  0.34184  0.01492  1.0000
  C   C179      1.0  0.08212  0.01347  0.01253  1.0000
  H   H151      1.0  0.99017  0.00461  0.97930  1.0000
  C   C180      1.0  0.46237  0.17803  0.19556  1.0000
  H   H152      1.0  0.44107  0.34543  0.45159  1.0000
  C   C181      1.0  0.30243  0.12534  0.39379  1.0000
  H   H153      1.0  0.11086  0.02599  0.03735  1.0000
  C   C182      1.0  0.27066  0.39616  0.02374  1.0000
  H   H154      1.0  0.26729  0.11081  0.41124  1.0000
  C   C183      1.0  0.19424  0.44297  0.97786  1.0000
  H   H155      1.0  0.02998  0.06196  0.42230  1.0000
  H   H156      1.0  0.19347  0.23554  0.46108  1.0000
  C   C184      1.0  0.36775  0.11679  0.34294  1.0000
  H   H157      1.0  0.25680  0.31085  0.03685  1.0000
  H   H158      1.0  0.29688  0.25829  0.09182  1.0000
  C   C185      1.0  0.25391  0.31196  0.01874  1.0000
  C   C186      1.0  0.31182  0.27552  0.00364  1.0000
  C   C187      1.0  0.08142  0.05093  0.02639  1.0000
  H   H159      1.0  0.09027  0.06368  0.03698  1.0000
  H   H160      1.0  0.46832  0.22491  0.10463  1.0000
  C   C188      1.0  0.31841  0.25376  0.99757  1.0000
  C   C189      1.0  0.05930  0.05614  0.01176  1.0000
  H   H161      1.0  0.40267  0.42074  0.43369  1.0000
  H   H162      1.0  0.07235  0.18909  0.45497  1.0000
  S   S31       1.0  0.31854  0.38977  0.97884  1.0000
  C   C190      1.0  0.42219  0.29608  0.46946  1.0000
  C   C191      1.0  0.27702  0.11389  0.39505  1.0000
  C   C192      1.0  0.45016  0.30304  0.47141  1.0000
  H   H163      1.0  0.00614  0.06435  0.02259  1.0000
  C   C193      1.0  0.28481  0.41655  0.02132  1.0000
  H   H164      1.0  0.08543  0.02476  0.46575  1.0000
  C   C194      1.0  0.25787  0.22088  0.42878  1.0000
  C   C195      1.0  0.03323  0.04915  0.43527  1.0000
  C   C196      1.0  0.44077  0.34153  0.43395  1.0000
  C   C197      1.0  0.00171  0.12570  0.00154  1.0000
  C   C198      1.0  0.36146  0.20875  0.45317  1.0000
  C   C199      1.0  0.31012  0.24154  0.43217  1.0000
  H   H165      1.0  0.31243  0.13117  0.40900  1.0000
  H   H166      1.0  0.20158  0.43567  0.99367  1.0000
  H   H167      1.0  0.43263  0.27471  0.34720  1.0000
  P   P5        1.0  0.02034  0.04730  0.97792  1.0000
  H   H168      1.0  0.41215  0.36017  0.38438  1.0000
  S   S32       1.0  0.11299  0.09457  0.99522  1.0000
  H   H169      1.0  0.43259  0.36889  0.19525  1.0000
  P   P6        1.0  0.47209  0.30450  0.44668  1.0000
  H   H170      1.0  0.45470  0.17232  0.17947  1.0000
  C   C200      1.0  0.23573  0.26782  0.47087  1.0000
  C   C201      1.0  0.40171  0.44712  0.45742  1.0000
  C   C202      1.0  0.04805  0.03993  0.99759  1.0000
  H   H171      1.0  0.43371  0.23669  0.41146  1.0000
  C   C203      1.0  0.04814  0.17281  0.99947  1.0000
  C   C204      1.0  0.41060  0.21618  0.45913  1.0000
  C   C205      1.0  0.46208  0.44703  0.00781  1.0000
  H   H172      1.0  0.19334  0.42710  0.45736  1.0000
  C   C206      1.0  0.45069  0.26635  0.42623  1.0000
  H   H173      1.0  0.05253  0.00580  0.98680  1.0000
  C   C207      1.0  0.24457  0.30662  0.46075  1.0000
  C   C208      1.0  0.47443  0.27679  0.43540  1.0000
  C   C209      1.0  0.27925  0.40282  0.43869  1.0000
  C   C210      1.0  0.03479  0.12546  0.47503  1.0000
  C   C211      1.0  0.48277  0.19797  0.12614  1.0000
  H   H174      1.0  0.47926  0.37757  0.21120  1.0000
  C   C212      1.0  0.06445  0.02817  0.45976  1.0000
  C   C213      1.0  0.26390  0.33044  0.98298  1.0000
  C   C214      1.0  0.20478  0.25240  0.98646  1.0000
  H   H175      1.0  0.44040  0.40029  0.45405  1.0000
  H   H176      1.0  0.31678  0.31063  0.99560  1.0000
  C   C215      1.0  0.06067  0.16976  0.97871  1.0000
  H   H177      1.0  0.14241  0.43062  0.46045  1.0000
  C   C216      1.0  0.25725  0.42571  0.98782  1.0000
  C   C217      1.0  0.21072  0.23086  0.97929  1.0000
  C   C218      1.0  0.19785  0.22177  0.47273  1.0000
  C   C219      1.0  0.00734  0.18775  0.98033  1.0000
  H   H178      1.0  0.20527  0.19552  0.98586  1.0000
  C   C220      1.0  0.48885  0.25575  0.16711  1.0000
  C   C221      1.0  0.24365  0.40494  0.99004  1.0000
  H   H179      1.0  0.22829  0.39992  0.97765  1.0000
  S   S33       1.0  0.36280  0.34822  0.97971  1.0000
  H   H180      1.0  0.48456  0.36841  0.47271  1.0000
  C   C222      1.0  0.23447  0.39295  0.46706  1.0000
  H   H181      1.0  0.32745  0.17960  0.47616  1.0000
  C   C223      1.0  0.15563  0.43329  0.47504  1.0000
  C   C224      1.0  0.40417  0.23120  0.47579  1.0000
  H   H182      1.0  0.98977  0.04093  0.43789  1.0000
  C   C225      1.0  0.48501  0.28443  0.04869  1.0000
  H   H183      1.0  0.48785  0.28799  0.03089  1.0000
  S   S34       1.0  0.44208  0.36131  0.97967  1.0000
  H   H184      1.0  0.45142  0.47966  0.01863  1.0000
  C   C226      1.0  0.25909  0.48280  0.98686  1.0000
  C   C227      1.0  0.25630  0.17726  0.97761  1.0000
  C   C228      1.0  0.28409  0.21123  0.97673  1.0000
  S   S35       1.0  0.12199  0.14084  0.94994  1.0000
  H   H185      1.0  0.27738  0.25247  0.89364  1.0000
  S   S36       1.0  0.12790  0.09818  0.50563  1.0000
  Fe  Fe16      1.0  0.16512  0.12115  0.50751  1.0000
  S   S37       1.0  0.18551  0.12981  0.54089  1.0000
  Fe  Fe17      1.0  0.10536  0.26811  0.62224  1.0000
  S   S38       1.0  0.12842  0.24636  0.64759  1.0000
  S   S39       1.0  0.05895  0.25882  0.62524  1.0000
  Fe  Fe18      1.0  0.16140  0.28860  0.60422  1.0000
  S   S40       1.0  0.18664  0.26831  0.62927  1.0000
  S   S41       1.0  0.18078  0.31038  0.57541  1.0000
  Fe  Fe19      1.0  0.15807  0.23995  0.61948  1.0000
  S   S42       1.0  0.17417  0.20494  0.61411  1.0000
  Fe  Fe20      1.0  0.15412  0.27664  0.65508  1.0000
  S   S43       1.0  0.16329  0.29051  0.69034  1.0000
  S   S44       1.0  0.13385  0.25962  0.59369  1.0000
  S   S45       1.0  0.13027  0.29897  0.63048  1.0000
  S   S46       1.0  0.35295  0.34001  0.50176  1.0000
  C   C229      1.0  0.40456  0.29621  0.48802  1.0000
  S   S47       1.0  0.35899  0.39049  0.52167  1.0000
  H   H186      1.0  0.08926  0.28294  0.51292  1.0000
  Fe  Fe21      1.0  0.38347  0.36879  0.49879  1.0000
  S   S48       1.0  0.43007  0.36635  0.49150  1.0000
  Fe  Fe22      1.0  0.32618  0.36254  0.52207  1.0000
  S   S49       1.0  0.30488  0.34674  0.55352  1.0000
  H   H187      1.0  0.01821  0.07881  0.49299  1.0000
  Fe  Fe23      1.0  0.14504  0.27271  0.83100  1.0000
  S   S50       1.0  0.12744  0.30309  0.84737  1.0000
  S   S51       1.0  0.14050  0.26222  0.79387  1.0000
  Fe  Fe24      1.0  0.15765  0.24987  0.87755  1.0000
  S   S52       1.0  0.14031  0.27831  0.89606  1.0000
  S   S53       1.0  0.17974  0.22300  0.89854  1.0000
  Fe  Fe25      1.0  0.10521  0.27841  0.87055  1.0000
  S   S54       1.0  0.06053  0.27456  0.88357  1.0000
  Fe  Fe26      1.0  0.16448  0.30036  0.87191  1.0000
  S   S55       1.0  0.18897  0.32973  0.88776  1.0000
  S   S56       1.0  0.12144  0.24827  0.85357  1.0000
  S   S57       1.0  0.18318  0.27166  0.85395  1.0000
  Fe  Fe27      1.0  0.33727  0.36722  0.95367  1.0000
  C   C230      1.0  0.02910  0.19938  0.61457  1.0000
  S   S58       1.0  0.31250  0.34473  0.92908  1.0000
  C   C231      1.0  0.31980  0.27244  0.52825  1.0000
  H   H188      1.0  0.07225  0.04591  0.63125  1.0000
  H   H189      1.0  0.08674  0.23972  0.80390  1.0000
  H   H190      1.0  0.99135  0.25014  0.74942  1.0000
  C   C232      1.0  0.01344  0.98974  0.92821  1.0000
  S   S59       1.0  0.37368  0.39091  0.94657  1.0000
  C   C233      1.0  0.06554  0.03518  0.61783  1.0000
  H   H191      1.0  0.21080  0.17126  0.51363  1.0000
  H   H192      1.0  0.39615  0.40743  0.58979  1.0000
  C   C234      1.0  0.08928  0.99770  0.54103  1.0000
  S   S60       1.0  0.30301  0.37718  0.49219  1.0000
  C   C235      1.0  0.02696  0.28459  0.87560  1.0000
  C   C236      1.0  0.25966  0.47423  0.50268  1.0000
  C   C237      1.0  0.02299  0.30188  0.85957  1.0000
  H   H193      1.0  0.26853  0.00221  0.57057  1.0000
  H   H194      1.0  0.04080  0.30942  0.85127  1.0000
  C   C238      1.0  0.22285  0.33244  0.90072  1.0000
  C   C239      1.0  0.24438  0.31744  0.89716  1.0000
  C   C240      1.0  0.27141  0.32137  0.90611  1.0000
  C   C241      1.0  0.27739  0.34008  0.91926  1.0000
  C   C242      1.0  0.25553  0.35451  0.92372  1.0000
  C   C243      1.0  0.22870  0.35092  0.91423  1.0000
  H   H195      1.0  0.24042  0.30313  0.88691  1.0000
  H   H196      1.0  0.28789  0.30987  0.90267  1.0000
  H   H197      1.0  0.25947  0.36869  0.93415  1.0000
  H   H198      1.0  0.21233  0.36265  0.91731  1.0000
  C   C244      1.0  0.46346  0.36791  0.50457  1.0000
  C   C245      1.0  0.46712  0.36802  0.52794  1.0000
  H   H199      1.0  0.42794  0.40729  0.52271  1.0000
  H   H200      1.0  0.44917  0.36724  0.53874  1.0000
  H   H201      1.0  0.02885  0.14291  0.62102  1.0000
  C   C246      1.0  0.02601  0.27210  0.62340  1.0000
  C   C247      1.0  0.02269  0.29363  0.61420  1.0000
  C   C248      1.0  0.00218  0.25994  0.63021  1.0000
  H   H202      1.0  0.04079  0.30332  0.60913  1.0000
  H   H203      1.0  0.00457  0.24355  0.63797  1.0000
  C   C249      1.0  0.15422  0.28277  0.71871  1.0000
  C   C250      1.0  0.14445  0.26143  0.72498  1.0000
  C   C251      1.0  0.14015  0.25561  0.74795  1.0000
  C   C252      1.0  0.14527  0.27101  0.76504  1.0000
  C   C253      1.0  0.15388  0.29263  0.75866  1.0000
  C   C254      1.0  0.15848  0.29837  0.73574  1.0000
  H   H204      1.0  0.14102  0.24920  0.71219  1.0000
  H   H205      1.0  0.13324  0.23889  0.75254  1.0000
  H   H206      1.0  0.15726  0.30493  0.77136  1.0000
  H   H207      1.0  0.16583  0.31498  0.73117  1.0000
  C   C255      1.0  0.21586  0.31918  0.56925  1.0000
  C   C256      1.0  0.22177  0.32927  0.54804  1.0000
  C   C257      1.0  0.24887  0.33720  0.54265  1.0000
  C   C258      1.0  0.27052  0.33563  0.55861  1.0000
  C   C259      1.0  0.26466  0.32537  0.57972  1.0000
  C   C260      1.0  0.23769  0.31711  0.58497  1.0000
  H   H208      1.0  0.20514  0.33122  0.53577  1.0000
  H   H209      1.0  0.25282  0.34506  0.52636  1.0000
  H   H210      1.0  0.28107  0.32402  0.59228  1.0000
  H   H211      1.0  0.23367  0.30954  0.60138  1.0000
  C   C261      1.0  0.18165  0.15236  0.55937  1.0000
  C   C262      1.0  0.16758  0.17229  0.55385  1.0000
  C   C263      1.0  0.16536  0.18920  0.57005  1.0000
  C   C264      1.0  0.17703  0.18599  0.59176  1.0000
  C   C265      1.0  0.19126  0.16622  0.59678  1.0000
  C   C266      1.0  0.19368  0.14973  0.58079  1.0000
  H   H212      1.0  0.15821  0.17448  0.53733  1.0000
  H   H213      1.0  0.15404  0.20429  0.56602  1.0000
  H   H214      1.0  0.20040  0.16352  0.61335  1.0000
  H   H215      1.0  0.20473  0.13458  0.58525  1.0000
  C   C267      1.0  0.20408  0.18210  0.47919  1.0000
  C   C268      1.0  0.11983  0.03848  0.55495  1.0000
  H   H216      1.0  0.30093  0.26000  0.93008  1.0000
  C   C269      1.0  0.22822  0.31304  0.47868  1.0000
  C   C270      1.0  0.13733  0.16509  0.93753  1.0000
  C   C271      1.0  0.12260  0.17698  0.92059  1.0000
  C   C272      1.0  0.13487  0.19543  0.90917  1.0000
  C   C273      1.0  0.16224  0.20179  0.91430  1.0000
  C   C274      1.0  0.17681  0.19015  0.93152  1.0000
  C   C275      1.0  0.16431  0.17201  0.94328  1.0000
  H   H217      1.0  0.10175  0.17172  0.91606  1.0000
  H   H218      1.0  0.12350  0.20427  0.89595  1.0000
  H   H219      1.0  0.19800  0.19496  0.93553  1.0000
  H   H220      1.0  0.17584  0.16291  0.95624  1.0000
  H   H221      1.0  0.45965  0.39788  0.94893  1.0000
  H   H222      1.0  0.16662  0.47124  0.92254  1.0000
  C   C276      1.0  0.27850  0.26096  0.92864  1.0000
  H   H223      1.0  0.32400  0.27208  0.54621  1.0000
  H   H224      1.0  0.15581  0.25993  0.96606  1.0000
  H   H225      1.0  0.03538  0.34433  0.77798  1.0000
  C   C277      1.0  0.24284  0.26560  0.53738  1.0000
  C   C278      1.0  0.00348  0.27514  0.88635  1.0000
  H   H226      1.0  0.02170  0.33205  0.74002  1.0000
  H   H227      1.0  0.09787  0.29827  0.70156  1.0000
  H   H228      1.0  0.14595  0.20057  0.49468  1.0000
  C   C279      1.0  0.47806  0.39059  0.95657  1.0000
  C   C280      1.0  0.25111  0.46088  0.48477  1.0000
  C   C281      1.0  0.47517  0.37269  0.97201  1.0000
  C   C282      1.0  0.20238  0.22548  0.49577  1.0000
  H   H229      1.0  0.99713  0.05892  0.52576  1.0000
  C   C283      1.0  0.05921  0.34464  0.66717  1.0000
  C   C284      1.0  0.44394  0.42404  0.48039  1.0000
  C   C285      1.0  0.03100  0.06840  0.50403  1.0000
  S   S61       1.0  0.18920  0.10260  0.48151  1.0000
  C   C286      1.0  0.03160  0.17128  0.90098  1.0000
  C   C287      1.0  0.46381  0.45519  0.94938  1.0000
  C   C288      1.0  0.41167  0.40500  0.55612  1.0000
  H   H230      1.0  0.45984  0.41448  0.48925  1.0000
  H   H231      1.0  0.10127  0.25484  0.48487  1.0000
  C   C289      1.0  0.43826  0.46603  0.94976  1.0000
  C   C290      1.0  0.30708  0.29307  0.49419  1.0000
  H   H232      1.0  0.27314  0.27693  0.56163  1.0000
  P   P7        1.0  0.21374  0.27676  0.96920  1.0000
  C   C291      1.0  0.05657  0.21071  0.88457  1.0000
  C   C292      1.0  0.03717  0.21144  0.90189  1.0000
  H   H233      1.0  0.00240  0.12176  0.94271  1.0000
  H   H234      1.0  0.42963  0.46787  0.56029  1.0000
  H   H235      1.0  0.02460  0.23268  0.95220  1.0000
  C   C293      1.0  0.10171  0.32558  0.67766  1.0000
  C   C294      1.0  0.05160  0.25874  0.81420  1.0000
  H   H236      1.0  0.34311  0.30487  0.96079  1.0000
  C   C295      1.0  0.20677  0.20703  0.51047  1.0000
  C   C296      1.0  0.20168  0.43435  0.49231  1.0000
  H   H237      1.0  0.22160  0.22840  0.96372  1.0000
  C   C297      1.0  0.02459  0.19170  0.91031  1.0000
  H   H238      1.0  0.00767  0.22060  0.77560  1.0000
  H   H239      1.0  0.99340  0.31887  0.60322  1.0000
  C   C298      1.0  0.08793  0.34217  0.66505  1.0000
  H   H240      1.0  0.46458  0.43783  0.94499  1.0000
  C   C299      1.0  0.13176  0.30852  0.94318  1.0000
  H   H241      1.0  0.29408  0.43635  0.51108  1.0000
  S   S62       1.0  0.14787  0.14652  0.48313  1.0000
  C   C300      1.0  0.27325  0.19018  0.52236  1.0000
  C   C301      1.0  0.28127  0.16848  0.51788  1.0000
  C   C302      1.0  0.01983  0.23178  0.78586  1.0000
  H   H242      1.0  0.03945  0.25448  0.74236  1.0000
  C   C303      1.0  0.30499  0.20483  0.49376  1.0000
  C   C304      1.0  0.28446  0.20825  0.50998  1.0000
  H   H243      1.0  0.04131  0.99662  0.57003  1.0000
  C   C305      1.0  0.03573  0.00556  0.60435  1.0000
  H   H244      1.0  0.17393  0.28457  0.53614  1.0000
  H   H245      1.0  0.38284  0.29147  0.48611  1.0000
  C   C306      1.0  0.25808  0.40780  0.90653  1.0000
  H   H246      1.0  0.05691  0.15478  0.87694  1.0000
  C   C307      1.0  0.42345  0.41644  0.53765  1.0000
  H   H247      1.0  0.03464  0.01792  0.63801  1.0000
  C   C308      1.0  0.33637  0.29061  0.97109  1.0000
  C   C309      1.0  0.28157  0.42518  0.52152  1.0000
  C   C310      1.0  0.23868  0.40470  0.52859  1.0000
  C   C311      1.0  0.06606  0.19158  0.49062  1.0000
  H   H248      1.0  0.23908  0.38249  0.55785  1.0000
  C   C312      1.0  0.03126  0.02631  0.93754  1.0000
  H   H249      1.0  0.06112  0.17541  0.62198  1.0000
  H   H250      1.0  0.25399  0.27315  0.52334  1.0000
  H   H251      1.0  0.25796  0.19293  0.53524  1.0000
  H   H252      1.0  0.27203  0.15446  0.52715  1.0000
  C   C313      1.0  0.01684  0.02521  0.95797  1.0000
  C   C314      1.0  0.31089  0.99412  0.56285  1.0000
  H   H253      1.0  0.27687  0.22479  0.51303  1.0000
  H   H254      1.0  0.39845  0.48144  0.52090  1.0000
  H   H255      1.0  0.14945  0.24219  0.48168  1.0000
  C   C315      1.0  0.04656  0.17554  0.95872  1.0000
  C   C316      1.0  0.32211  0.25304  0.51595  1.0000
  C   C317      1.0  0.02955  0.00862  0.92275  1.0000
  H   H256      1.0  0.27340  0.26994  0.96300  1.0000
  Fe  Fe28      1.0  0.14995  0.08171  0.47747  1.0000
  H   H257      1.0  0.30647  0.43545  0.95048  1.0000
  C   C318      1.0  0.28208  0.99071  0.56236  1.0000
  H   H258      1.0  0.08293  0.14843  0.53296  1.0000
  C   C319      1.0  0.34368  0.26909  0.96529  1.0000
  C   C320      1.0  0.18150  0.31107  0.94981  1.0000
  P   P8        1.0  0.44769  0.45342  0.51580  1.0000
  C   C321      1.0  0.24652  0.41944  0.92417  1.0000
  C   C322      1.0  0.13161  0.28679  0.95228  1.0000
  H   H259      1.0  0.25957  0.46773  0.51985  1.0000
  H   H260      1.0  0.40705  0.38733  0.55519  1.0000
  C   C323      1.0  0.00072  0.20267  0.61054  1.0000
  C   C324      1.0  0.44216  0.31068  0.51084  1.0000
  H   H261      1.0  0.21690  0.46407  0.92731  1.0000
  C   C325      1.0  0.03918  0.17787  0.61853  1.0000
  C   C326      1.0  0.00692  0.24898  0.79725  1.0000
  H   H262      1.0  0.12403  0.32378  0.67616  1.0000
  H   H263      1.0  0.21774  0.39986  0.52379  1.0000
  H   H264      1.0  0.24720  0.31501  0.95370  1.0000
  H   H265      1.0  0.01326  0.14643  0.49756  1.0000
  H   H266      1.0  0.11243  0.27712  0.95248  1.0000
  C   C327      1.0  0.18156  0.28936  0.95932  1.0000
  C   C328      1.0  0.28044  0.48171  0.95015  1.0000
  H   H267      1.0  0.04426  0.18741  0.48900  1.0000
  H   H268      1.0  0.99324  0.21946  0.60758  1.0000
  H   H269      1.0  0.00546  0.00183  0.51987  1.0000
  C   C329      1.0  0.31650  0.25346  0.49266  1.0000
  C   C330      1.0  0.26461  0.47121  0.96722  1.0000
  C   C331      1.0  0.18976  0.44081  0.51254  1.0000
  C   C332      1.0  0.43371  0.44373  0.48933  1.0000
  C   C333      1.0  0.21713  0.25468  0.53417  1.0000
  H   H270      1.0  0.41918  0.45704  0.94578  1.0000
  C   C334      1.0  0.41244  0.45522  0.47760  1.0000
  H   H271      1.0  0.32827  0.23772  0.52463  1.0000
  C   C335      1.0  0.22293  0.21955  0.85064  1.0000
  C   C336      1.0  0.19725  0.21097  0.84357  1.0000
  C   C337      1.0  0.18613  0.21758  0.82264  1.0000
  C   C338      1.0  0.20080  0.23259  0.80866  1.0000
  C   C339      1.0  0.22688  0.24096  0.81541  1.0000
  C   C340      1.0  0.23758  0.23469  0.83674  1.0000
  P   P9        1.0  0.24420  0.26241  0.79870  1.0000
  C   C341      1.0  0.23406  0.28826  0.81084  1.0000
  C   C342      1.0  0.28141  0.25897  0.79910  1.0000
  C   C343      1.0  0.29894  0.27723  0.79394  1.0000
  C   C344      1.0  0.32783  0.27462  0.79385  1.0000
  C   C345      1.0  0.33936  0.25368  0.79853  1.0000
  C   C346      1.0  0.32199  0.23530  0.80310  1.0000
  C   C347      1.0  0.29309  0.23787  0.80322  1.0000
  C   C348      1.0  0.20782  0.29714  0.80563  1.0000
  C   C349      1.0  0.19889  0.31643  0.81592  1.0000
  C   C350      1.0  0.21599  0.32680  0.83174  1.0000
  C   C351      1.0  0.24201  0.31789  0.83726  1.0000
  C   C352      1.0  0.25093  0.29853  0.82706  1.0000
  C   C353      1.0  0.23418  0.26136  0.76936  1.0000
  C   C354      1.0  0.23056  0.24071  0.75912  1.0000
  C   C355      1.0  0.22265  0.23983  0.73643  1.0000
  C   C356      1.0  0.21897  0.25953  0.72368  1.0000
  C   C357      1.0  0.22351  0.28011  0.73353  1.0000
  C   C358      1.0  0.23118  0.28108  0.75626  1.0000
  H   H272      1.0  0.23083  0.21504  0.86730  1.0000
  H   H273      1.0  0.18553  0.19980  0.85471  1.0000
  H   H274      1.0  0.16570  0.21167  0.81752  1.0000
  H   H275      1.0  0.19128  0.23815  0.79292  1.0000
  H   H276      1.0  0.25684  0.24193  0.84288  1.0000
  H   H277      1.0  0.29027  0.29348  0.78993  1.0000
  H   H278      1.0  0.34127  0.28882  0.79003  1.0000
  H   H279      1.0  0.36175  0.25167  0.79842  1.0000
  H   H280      1.0  0.33092  0.21901  0.80643  1.0000
  H   H281      1.0  0.27995  0.22336  0.80635  1.0000
  H   H282      1.0  0.19395  0.28871  0.79414  1.0000
  H   H283      1.0  0.17838  0.32294  0.81211  1.0000
  H   H284      1.0  0.20876  0.34137  0.84023  1.0000
  H   H285      1.0  0.25492  0.32572  0.84991  1.0000
  H   H286      1.0  0.27065  0.29142  0.83226  1.0000
  H   H287      1.0  0.23349  0.22528  0.76873  1.0000
  H   H288      1.0  0.21911  0.22390  0.72872  1.0000
  H   H289      1.0  0.21223  0.25894  0.70621  1.0000
  H   H290      1.0  0.22034  0.29533  0.72357  1.0000
  H   H291      1.0  0.23450  0.29722  0.76354  1.0000
  H   H292      1.0  0.30985  0.30740  0.52695  1.0000
  C   C359      1.0  0.15640  0.27713  0.96005  1.0000
  C   C360      1.0  0.06974  0.02313  0.57931  1.0000
  H   H293      1.0  0.48241  0.43103  0.55111  1.0000
  H   H294      1.0  0.07402  0.06548  0.96295  1.0000
  H   H295      1.0  0.01330  0.27455  0.82188  1.0000
  H   H296      1.0  0.09959  0.35308  0.65367  1.0000
  C   C361      1.0  0.29351  0.41525  0.54083  1.0000
  S   S63       1.0  0.35863  0.45045  0.96554  1.0000
  P   P10       1.0  0.03908  0.29472  0.71302  1.0000
  C   C362      1.0  0.24828  0.31424  0.97192  1.0000
  C   C363      1.0  0.04908  0.30361  0.74084  1.0000
  C   C364      1.0  0.03697  0.32260  0.74974  1.0000
  C   C365      1.0  0.04473  0.32967  0.77118  1.0000
  C   C366      1.0  0.06490  0.31804  0.78374  1.0000
  C   C367      1.0  0.07790  0.29974  0.77460  1.0000
  C   C368      1.0  0.07044  0.29277  0.75310  1.0000
  H   H297      1.0  0.40352  0.47017  0.48392  1.0000
  H   H298      1.0  0.31969  0.00830  0.57141  1.0000
  H   H299      1.0  0.29271  0.22499  0.96695  1.0000
  C   C369      1.0  0.04860  0.26621  0.70844  1.0000
  C   C370      1.0  0.04624  0.24997  0.72583  1.0000
  C   C371      1.0  0.05321  0.22782  0.72209  1.0000
  C   C372      1.0  0.06217  0.22168  0.70088  1.0000
  C   C373      1.0  0.06394  0.23765  0.68336  1.0000
  C   C374      1.0  0.05711  0.25982  0.68707  1.0000
  H   H300      1.0  0.01928  0.99334  0.60729  1.0000
  H   H301      1.0  0.12146  0.44073  0.49670  1.0000
  H   H302      1.0  0.29591  0.39631  0.89173  1.0000
  C   C375      1.0  0.33780  0.47286  0.50680  1.0000
  C   C376      1.0  0.25388  0.42036  0.51552  1.0000
  C   C377      1.0  0.26388  0.42997  0.93990  1.0000
  H   H303      1.0  0.18104  0.99517  0.53094  1.0000
  H   H304      1.0  0.07094  0.32345  0.80037  1.0000
  H   H305      1.0  0.09414  0.29114  0.78409  1.0000
  H   H306      1.0  0.08179  0.27917  0.74606  1.0000
  C   C378      1.0  0.08678  0.31114  0.69205  1.0000
  C   C379      1.0  0.15582  0.45719  0.95512  1.0000
  C   C380      1.0  0.31192  0.29238  0.51741  1.0000
  C   C381      1.0  0.00508  0.19144  0.51952  1.0000
  H   H307      1.0  0.06780  0.20458  0.69796  1.0000
  H   H308      1.0  0.07070  0.23293  0.66684  1.0000
  H   H309      1.0  0.05852  0.27190  0.67319  1.0000
  C   C382      1.0  0.41191  0.43903  0.57692  1.0000
  H   H310      1.0  0.05860  0.21544  0.77923  1.0000
  H   H311      1.0  0.12599  0.29759  0.53862  1.0000
  C   C383      1.0  0.98986  0.15144  0.54157  1.0000
  C   C384      1.0  0.29281  0.42809  0.93808  1.0000
  C   C385      1.0  0.42419  0.45044  0.55865  1.0000
  C   C386      1.0  0.05112  0.17062  0.88373  1.0000
  C   C387      1.0  0.02295  0.26203  0.81190  1.0000
  H   H312      1.0  0.99917  0.29502  0.78475  1.0000
  H   H313      1.0  0.08277  0.19914  0.58315  1.0000
  H   H314      1.0  0.33720  0.45980  0.51972  1.0000
  H   H315      1.0  0.11810  0.19946  0.52911  1.0000
  C   C388      1.0  0.03005  0.07317  0.96362  1.0000
  H   H316      1.0  0.08950  0.26872  0.55699  1.0000
  C   C389      1.0  0.16974  0.03584  0.56141  1.0000
  C   C390      1.0  0.12236  0.06185  0.55442  1.0000
  C   C391      1.0  0.11046  0.27713  0.51179  1.0000
  H   H317      1.0  0.26538  0.19654  0.94742  1.0000
  H   H318      1.0  0.24402  0.16482  0.96895  1.0000
  C   C392      1.0  0.22063  0.26433  0.92468  1.0000
  C   C393      1.0  0.17430  0.46323  0.93794  1.0000
  H   H319      1.0  0.40746  0.44776  0.59215  1.0000
  H   H320      1.0  0.06377  0.26878  0.82568  1.0000
  H   H321      1.0  0.22605  0.33055  0.48219  1.0000
  H   H322      1.0  0.07911  0.18984  0.86244  1.0000
  C   C394      1.0  0.13716  0.99708  0.97396  1.0000
  Fe  Fe29      1.0  0.11186  0.12241  0.47923  1.0000
  H   H323      1.0  0.05186  0.21542  0.73565  1.0000
  H   H324      1.0  0.02211  0.33298  0.68346  1.0000
  C   C395      1.0  0.40561  0.41632  0.57564  1.0000
  Fe  Fe30      1.0  0.39725  0.37376  0.97509  1.0000
  H   H325      1.0  0.21776  0.98630  0.47860  1.0000
  C   C396      1.0  0.25401  0.26760  0.55907  1.0000
  H   H326      1.0  0.42073  0.24012  0.48431  1.0000
  P   P11       1.0  0.20124  0.25348  0.50649  1.0000
  C   C397      1.0  0.12356  0.19875  0.49345  1.0000
  C   C398      1.0  0.00675  0.98554  0.51261  1.0000
  H   H327      1.0  0.20948  0.20901  0.52837  1.0000
  H   H328      1.0  0.13378  0.46045  0.95302  1.0000
  C   C399      1.0  0.30974  0.27379  0.48178  1.0000
  C   C400      1.0  0.23637  0.25840  0.90618  1.0000
  C   C401      1.0  0.15674  0.32056  0.94177  1.0000
  C   C402      1.0  0.21820  0.27409  0.48829  1.0000
  H   H329      1.0  0.06640  0.22602  0.87836  1.0000
  C   C403      1.0  0.05786  0.31329  0.69403  1.0000
  C   C404      1.0  0.14844  0.07207  0.55708  1.0000
  H   H330      1.0  0.09785  0.05125  0.51039  1.0000
  C   C405      1.0  0.25071  0.39474  0.54787  1.0000
  C   C406      1.0  0.06449  0.24223  0.80207  1.0000
  H   H331      1.0  0.10424  0.07224  0.55184  1.0000
  C   C407      1.0  0.04833  0.00741  0.58327  1.0000
  H   H332      1.0  0.04098  0.00948  0.90712  1.0000
  H   H333      1.0  0.30667  0.14797  0.49743  1.0000
  H   H334      1.0  0.11273  0.31567  0.93637  1.0000
  H   H335      1.0  0.11457  0.17642  0.60687  1.0000
  C   C408      1.0  0.01913  0.05719  0.52254  1.0000
  C   C409      1.0  0.06365  0.19033  0.87556  1.0000
  C   C410      1.0  0.04596  0.11365  0.94229  1.0000
  C   C411      1.0  0.99589  0.30975  0.85469  1.0000
  H   H336      1.0  0.04519  0.27793  0.57483  1.0000
  C   C412      1.0  0.27807  0.40006  0.55402  1.0000
  S   S64       1.0  0.06784  0.13505  0.48466  1.0000
  H   H337      1.0  0.24468  0.39933  0.89466  1.0000
  C   C413      1.0  0.14382  0.43905  0.49544  1.0000
  H   H338      1.0  0.19234  0.06713  0.56210  1.0000
  P   P12       1.0  0.08602  0.02533  0.55201  1.0000
  C   C414      1.0  0.15835  0.27787  0.52482  1.0000
  C   C415      1.0  0.01792  0.10931  0.94692  1.0000
  H   H339      1.0  0.32670  0.41467  0.91955  1.0000
  H   H340      1.0  0.09579  0.23217  0.54019  1.0000
  C   C416      1.0  0.04859  0.22864  0.78805  1.0000
  C   C417      1.0  0.30431  0.41628  0.92059  1.0000
  H   H341      1.0  0.05240  0.12944  0.93458  1.0000
  H   H342      1.0  0.48042  0.31776  0.49424  1.0000
  H   H343      1.0  0.15043  0.09011  0.55623  1.0000
  C   C418      1.0  0.23997  0.25830  0.57762  1.0000
  C   C419      1.0  0.21476  0.24698  0.57450  1.0000
  C   C420      1.0  0.20323  0.24533  0.55293  1.0000
  C   C421      1.0  0.16090  0.44291  0.51415  1.0000
  C   C422      1.0  0.06595  0.09768  0.94793  1.0000
  C   C423      1.0  0.01673  0.16022  0.54451  1.0000
  C   C424      1.0  0.17213  0.05909  0.56043  1.0000
  C   C425      1.0  0.03565  0.04401  0.53702  1.0000
  H   H344      1.0  0.01051  0.20715  0.51115  1.0000
  H   H345      1.0  0.15179  0.44767  0.52989  1.0000
  H   H346      1.0  0.18814  0.02576  0.56387  1.0000
  H   H347      1.0  0.28476  0.47338  0.93470  1.0000
  H   H348      1.0  0.13035  0.13975  0.59415  1.0000
  P   P13       1.0  0.23896  0.43262  0.49009  1.0000
  C   C426      1.0  0.06428  0.04192  0.53307  1.0000
  C   C427      1.0  0.04436  0.01941  0.62164  1.0000
  H   H349      1.0  0.24835  0.26020  0.59447  1.0000
  H   H350      1.0  0.20385  0.23984  0.58890  1.0000
  H   H351      1.0  0.18325  0.23704  0.55096  1.0000
  H   H352      1.0  0.28754  0.39189  0.56867  1.0000
  P   P14       1.0  0.24968  0.44376  0.96373  1.0000
  Fe  Fe31      1.0  0.33734  0.40340  0.49013  1.0000
  H   H353      1.0  0.17168  0.03220  0.51240  1.0000
  C   C428      1.0  0.07818  0.03708  0.59675  1.0000
  H   H354      1.0  0.11468  0.12594  0.55710  1.0000
  H   H355      1.0  0.04326  0.21360  0.61475  1.0000
  C   C429      1.0  0.05938  0.06630  0.49986  1.0000
  C   C430      1.0  0.11725  0.26134  0.49598  1.0000
  H   H356      1.0  0.22600  0.25514  0.89031  1.0000
  H   H357      1.0  0.03250  0.22746  0.90869  1.0000
  C   C431      1.0  0.00995  0.08919  0.95765  1.0000
  H   H358      1.0  0.14235  0.00752  0.55927  1.0000
  H   H359      1.0  0.15714  0.33699  0.93369  1.0000
  C   C432      1.0  0.14368  0.02554  0.55872  1.0000
  C   C433      1.0  0.14468  0.25404  0.49435  1.0000
  H   H360      1.0  0.08772  0.10111  0.94445  1.0000
  C   C434      1.0  0.45980  0.31072  0.49227  1.0000
  C   C435      1.0  0.42957  0.43932  0.53868  1.0000
  C   C436      1.0  0.13104  0.28537  0.52622  1.0000
  H   H361      1.0  0.01376  0.21242  0.56242  1.0000
  H   H362      1.0  0.09452  0.04941  0.59422  1.0000
  C   C437      1.0  0.07593  0.05292  0.51414  1.0000
  C   C438      1.0  0.16470  0.01708  0.50456  1.0000
  H   H363      1.0  0.34177  0.23422  0.97441  1.0000
  C   C439      1.0  0.07265  0.25662  0.55721  1.0000
  C   C440      1.0  0.04769  0.26179  0.56749  1.0000
  C   C441      1.0  0.02641  0.24585  0.56913  1.0000
  C   C442      1.0  0.03002  0.22480  0.56021  1.0000
  C   C443      1.0  0.05458  0.21975  0.54890  1.0000
  C   C444      1.0  0.07613  0.23575  0.54784  1.0000
  P   P15       1.0  0.05900  0.19234  0.53761  1.0000
  C   C445      1.0  0.07976  0.17514  0.55655  1.0000
  C   C446      1.0  0.02473  0.18015  0.53321  1.0000
  C   C447      1.0  0.04423  0.33044  0.68181  1.0000
  C   C448      1.0  0.05809  0.07752  0.95852  1.0000
  C   C449      1.0  0.41457  0.30342  0.50873  1.0000
  H   H364      1.0  0.03112  0.15135  0.55555  1.0000
  H   H365      1.0  0.00741  0.24974  0.57782  1.0000
  C   C450      1.0  0.08896  0.15439  0.54941  1.0000
  C   C451      1.0  0.10680  0.14152  0.56309  1.0000
  C   C452      1.0  0.11560  0.14929  0.58397  1.0000
  C   C453      1.0  0.10664  0.16997  0.59114  1.0000
  C   C454      1.0  0.08879  0.18291  0.57750  1.0000
  C   C455      1.0  0.07866  0.19462  0.51178  1.0000
  C   C456      1.0  0.10763  0.19803  0.51298  1.0000
  H   H366      1.0  0.02593  0.03569  0.55130  1.0000
  C   C457      1.0  0.48832  0.46672  0.95473  1.0000
  H   H367      1.0  0.04415  0.04063  0.93308  1.0000
  C   C458      1.0  0.37641  0.23474  0.48144  1.0000
  H   H368      1.0  0.20278  0.44423  0.52707  1.0000
  C   C459      1.0  0.20760  0.18547  0.50218  1.0000
  C   C460      1.0  0.02094  0.15959  0.61811  1.0000
  C   C461      1.0  0.16548  0.26218  0.50884  1.0000
  C   C462      1.0  0.26281  0.26670  0.94724  1.0000
  H   H369      1.0  0.05699  0.17303  0.94298  1.0000
  H   H370      1.0  0.04854  0.35757  0.65746  1.0000
  H   H371      1.0  0.08466  0.00835  0.50612  1.0000
  C   C463      1.0  0.99353  0.25797  0.94819  1.0000
  H   H372      1.0  0.00622  0.26182  0.89878  1.0000
  H   H373      1.0  0.22413  0.41961  0.92572  1.0000
  C   C464      1.0  0.30083  0.16484  0.50120  1.0000
  H   H374      1.0  0.44959  0.31725  0.52663  1.0000
  H   H375      1.0  0.19823  0.26547  0.92276  1.0000
  C   C465      1.0  0.23377  0.26865  0.94531  1.0000
  H   H376      1.0  0.20052  0.32059  0.94790  1.0000
  C   C466      1.0  0.26528  0.25680  0.90810  1.0000
  C   C467      1.0  0.08702  0.99438  0.51782  1.0000
  C   C468      1.0  0.01962  0.18444  0.95935  1.0000
  H   H377      1.0  0.13525  0.03321  0.97448  1.0000
  H   H378      1.0  0.21770  0.38859  0.47844  1.0000
  C   C469      1.0  0.16996  0.99604  0.51502  1.0000
  C   C470      1.0  0.00196  0.29613  0.70773  1.0000
  H   H379      1.0  0.31493  0.41896  0.54531  1.0000
  C   C471      1.0  0.99158  0.29423  0.68564  1.0000
  H   H380      1.0  0.40070  0.30416  0.52294  1.0000
  C   C472      1.0  0.21283  0.44849  0.96044  1.0000
  P   P16       1.0  0.00087  0.19203  0.93372  1.0000
  C   C473      1.0  0.28697  0.40607  0.90485  1.0000
  C   C474      1.0  0.99248  0.16284  0.61417  1.0000
  H   H381      1.0  0.00561  0.29217  0.67169  1.0000
  H   H382      1.0  0.35644  0.26672  0.95065  1.0000
  H   H383      1.0  0.02241  0.15584  0.90740  1.0000
  C   C475      1.0  0.31268  0.18291  0.48920  1.0000
  C   C476      1.0  0.20273  0.45906  0.94065  1.0000
  C   C477      1.0  0.26840  0.19511  0.96551  1.0000
  C   C478      1.0  0.99576  0.30237  0.61081  1.0000
  Fe  Fe32      1.0  0.35617  0.41253  0.97373  1.0000
  C   C479      1.0  0.00361  0.23632  0.94645  1.0000
  H   H384      1.0  0.20254  0.30222  0.50619  1.0000
  H   H385      1.0  0.99022  0.29800  0.74275  1.0000
  H   H386      1.0  0.04573  0.00354  0.48161  1.0000
  C   C480      1.0  0.01088  0.13424  0.48470  1.0000
  C   C481      1.0  0.15052  0.01849  0.48389  1.0000
  H   H387      1.0  0.06860  0.07513  0.48553  1.0000
  C   C482      1.0  0.48404  0.44582  0.51733  1.0000
  C   C483      1.0  0.21492  0.29688  0.49229  1.0000
  C   C484      1.0  0.33726  0.46728  0.48410  1.0000
  C   C485      1.0  0.48713  0.36861  0.49080  1.0000
  H   H388      1.0  0.37207  0.24642  0.49441  1.0000
  H   H389      1.0  0.30144  0.30867  0.48579  1.0000
  H   H390      1.0  0.12589  0.99607  0.95816  1.0000
  H   H391      1.0  0.27455  0.34352  0.97332  1.0000
  H   H392      1.0  0.00670  0.27088  0.95514  1.0000
  C   C486      1.0  0.00094  0.00604  0.96344  1.0000
  C   C487      1.0  0.99906  0.98849  0.94852  1.0000
  H   H393      1.0  0.99305  0.32332  0.84252  1.0000
  C   C488      1.0  0.16580  0.44717  0.97511  1.0000
  P   P17       1.0  0.31869  0.22810  0.47704  1.0000
  H   H394      1.0  0.07752  0.74997  0.16432  1.0000
  S   S65       1.0  0.17175  0.86639  0.05041  1.0000
  Fe  Fe33      1.0  0.15429  0.87449  0.01546  1.0000
  H   H395      1.0  0.45751  0.56746  0.99687  1.0000
  H   H396      1.0  0.02062  0.75309  0.23993  1.0000
  S   S66       1.0  0.17660  0.85878  0.45048  1.0000
  Fe  Fe34      1.0  0.15442  0.74014  0.38320  1.0000
  S   S67       1.0  0.13563  0.70652  0.39252  1.0000
  S   S68       1.0  0.15705  0.76002  0.41561  1.0000
  Fe  Fe35      1.0  0.16161  0.72593  0.33363  1.0000
  S   S69       1.0  0.14485  0.69159  0.34143  1.0000
  S   S70       1.0  0.17126  0.73861  0.29739  1.0000
  Fe  Fe36      1.0  0.11116  0.70918  0.36009  1.0000
  S   S71       1.0  0.06598  0.70158  0.34921  1.0000
  Fe  Fe37      1.0  0.17135  0.69242  0.37340  1.0000
  S   S72       1.0  0.19457  0.66310  0.39131  1.0000
  S   S73       1.0  0.12763  0.74361  0.35187  1.0000
  S   S74       1.0  0.19040  0.72586  0.36449  1.0000
  H   H397      1.0  0.30876  0.85316  0.45668  1.0000
  C   C489      1.0  0.05068  0.67640  0.22408  1.0000
  S   S75       1.0  0.36571  0.58914  0.45859  1.0000
  H   H398      1.0  0.20232  0.68976  0.97883  1.0000
  H   H399      1.0  0.03991  0.63635  0.13001  1.0000
  H   H400      1.0  0.09785  0.75477  0.02633  1.0000
  Fe  Fe38      1.0  0.33712  0.61930  0.46042  1.0000
  S   S76       1.0  0.31688  0.63937  0.43059  1.0000
  C   C490      1.0  0.20259  0.72692  0.45835  1.0000
  Fe  Fe39      1.0  0.17415  0.69968  0.11175  1.0000
  S   S77       1.0  0.19541  0.72013  0.13831  1.0000
  S   S78       1.0  0.19522  0.67530  0.08754  1.0000
  Fe  Fe40      1.0  0.11607  0.71995  0.12215  1.0000
  S   S79       1.0  0.13472  0.74198  0.14848  1.0000
  S   S80       1.0  0.06999  0.72864  0.11706  1.0000
  Fe  Fe41      1.0  0.16909  0.74825  0.12372  1.0000
  S   S81       1.0  0.18759  0.78291  0.11819  1.0000
  Fe  Fe42      1.0  0.15863  0.71213  0.16100  1.0000
  S   S82       1.0  0.15627  0.69906  0.19816  1.0000
  S   S83       1.0  0.14931  0.72839  0.09650  1.0000
  S   S84       1.0  0.13875  0.68953  0.13526  1.0000
  Fe  Fe43      1.0  0.33731  0.62600  0.02673  1.0000
  S   S85       1.0  0.31373  0.60433  0.00257  1.0000
  S   S86       1.0  0.31756  0.65085  0.05114  1.0000
  Fe  Fe44      1.0  0.39486  0.61227  0.00713  1.0000
  S   S87       1.0  0.44168  0.61485  0.99940  1.0000
  H   H401      1.0  0.24013  0.83331  0.98995  1.0000
  Fe  Fe45      1.0  0.34644  0.57809  0.00990  1.0000
  S   S88       1.0  0.33655  0.54095  0.01765  1.0000
  S   S89       1.0  0.36576  0.64108  0.99995  1.0000
  S   S90       1.0  0.36869  0.59887  0.03598  1.0000
  C   C491      1.0  0.47460  0.61073  0.01292  1.0000
  H   H402      1.0  0.43066  0.57468  0.03086  1.0000
  S   S91       1.0  0.12048  0.89983  0.01101  1.0000
  H   H403      1.0  0.45934  0.60771  0.04678  1.0000
  H   H404      1.0  0.34962  0.91758  0.47577  1.0000
  C   C492      1.0  0.34393  0.51603  0.00307  1.0000
  C   C493      1.0  0.33808  0.49518  0.01365  1.0000
  C   C494      1.0  0.40869  0.52164  0.02205  1.0000
  C   C495      1.0  0.33119  0.73550  0.99845  1.0000
  C   C496      1.0  0.03837  0.71314  0.12015  1.0000
  C   C497      1.0  0.06729  0.64908  0.25205  1.0000
  C   C498      1.0  0.01476  0.72400  0.12813  1.0000
  H   H405      1.0  0.05295  0.68317  0.10546  1.0000
  H   H406      1.0  0.01687  0.74049  0.13465  1.0000
  C   C499      1.0  0.22950  0.66911  0.07744  1.0000
  C   C500      1.0  0.23263  0.65191  0.06197  1.0000
  C   C501      1.0  0.25913  0.64613  0.05373  1.0000
  C   C502      1.0  0.28317  0.65760  0.06062  1.0000
  C   C503      1.0  0.28000  0.67507  0.07578  1.0000
  C   C504      1.0  0.25352  0.68073  0.08417  1.0000
  H   H407      1.0  0.21439  0.64274  0.05653  1.0000
  H   H408      1.0  0.26096  0.63259  0.04224  1.0000
  H   H409      1.0  0.29826  0.68411  0.08138  1.0000
  H   H410      1.0  0.25172  0.69390  0.09606  1.0000
  C   C505      1.0  0.17792  0.75623  0.99610  1.0000
  C   C506      1.0  0.22037  0.71195  0.03790  1.0000
  H   H411      1.0  0.33776  0.80238  0.98395  1.0000
  H   H412      1.0  0.39435  0.50917  0.02884  1.0000
  C   C507      1.0  0.42908  0.55854  0.02322  1.0000
  C   C508      1.0  0.99644  0.83789  0.04423  1.0000
  C   C509      1.0  0.00935  0.79619  0.39856  1.0000
  H   H413      1.0  0.03900  0.77502  0.17380  1.0000
  C   C510      1.0  0.03340  0.70706  0.36196  1.0000
  C   C511      1.0  0.00880  0.70553  0.34893  1.0000
  C   C512      1.0  0.03127  0.71232  0.38465  1.0000
  H   H414      1.0  0.01004  0.70105  0.33151  1.0000
  H   H415      1.0  0.04987  0.71321  0.39501  1.0000
  C   C513      1.0  0.16517  0.72750  0.27002  1.0000
  C   C514      1.0  0.15633  0.70547  0.26684  1.0000
  C   C515      1.0  0.15348  0.69721  0.24481  1.0000
  C   C516      1.0  0.15883  0.71087  0.22555  1.0000
  C   C517      1.0  0.16706  0.73302  0.22877  1.0000
  C   C518      1.0  0.17040  0.74116  0.25078  1.0000
  H   H416      1.0  0.15244  0.69461  0.28135  1.0000
  H   H417      1.0  0.14730  0.68001  0.24266  1.0000
  H   H418      1.0  0.17149  0.74378  0.21428  1.0000
  H   H419      1.0  0.17736  0.75819  0.25289  1.0000
  C   C519      1.0  0.22844  0.65819  0.40362  1.0000
  C   C520      1.0  0.25191  0.67111  0.39791  1.0000
  C   C521      1.0  0.27856  0.66534  0.40662  1.0000
  C   C522      1.0  0.28222  0.64694  0.42170  1.0000
  C   C523      1.0  0.25855  0.63461  0.42816  1.0000
  C   C524      1.0  0.23204  0.64001  0.41896  1.0000
  H   H420      1.0  0.24962  0.68513  0.38626  1.0000
  H   H421      1.0  0.29656  0.67506  0.40140  1.0000
  H   H422      1.0  0.26080  0.62037  0.43961  1.0000
  H   H423      1.0  0.21419  0.62980  0.42358  1.0000
  C   C525      1.0  0.17106  0.83123  0.44096  1.0000
  C   C526      1.0  0.15853  0.81463  0.45454  1.0000
  C   C527      1.0  0.15420  0.79307  0.44630  1.0000
  C   C528      1.0  0.16202  0.78785  0.42434  1.0000
  C   C529      1.0  0.17447  0.80443  0.41069  1.0000
  C   C530      1.0  0.17916  0.82596  0.41906  1.0000
  C   C531      1.0  0.25515  0.65531  0.98990  1.0000
  H   H424      1.0  0.14453  0.78036  0.45694  1.0000
  H   H425      1.0  0.18078  0.80062  0.39383  1.0000
  H   H426      1.0  0.18889  0.83867  0.40842  1.0000
  C   C532      1.0  0.00494  0.82421  0.06240  1.0000
  C   C533      1.0  0.17471  0.84189  0.06777  1.0000
  C   C534      1.0  0.16243  0.82115  0.06290  1.0000
  C   C535      1.0  0.16562  0.80261  0.07814  1.0000
  C   C536      1.0  0.18138  0.80485  0.09809  1.0000
  C   C537      1.0  0.19361  0.82551  0.10256  1.0000
  C   C538      1.0  0.19008  0.84382  0.08774  1.0000
  H   H427      1.0  0.15028  0.81954  0.04763  1.0000
  H   H428      1.0  0.15617  0.78669  0.07442  1.0000
  H   H429      1.0  0.20582  0.82747  0.11780  1.0000
  H   H430      1.0  0.19950  0.85969  0.09179  1.0000
  H   H431      1.0  0.06779  0.70974  0.22759  1.0000
  C   C539      1.0  0.01278  0.84473  0.46039  1.0000
  H   H432      1.0  0.29274  0.73087  0.45280  1.0000
  C   C540      1.0  0.02166  0.87422  0.98197  1.0000
  S   S92       1.0  0.18059  0.89025  0.98779  1.0000
  C   C541      1.0  0.24412  0.76769  0.43349  1.0000
  P   P18       1.0  0.46453  0.68585  0.98246  1.0000
  H   H433      1.0  0.39870  0.54570  0.04678  1.0000
  C   C542      1.0  0.07341  0.73280  0.28563  1.0000
  H   H434      1.0  0.23852  0.87307  0.99895  1.0000
  C   C543      1.0  0.23460  0.70392  0.99989  1.0000
  H   H435      1.0  0.45998  0.63016  0.44784  1.0000
  H   H436      1.0  0.01369  0.76135  0.42976  1.0000
  C   C544      1.0  0.47821  0.62390  0.45664  1.0000
  C   C545      1.0  0.28553  0.82739  0.47446  1.0000
  H   H437      1.0  0.99514  0.71984  0.20483  1.0000
  C   C546      1.0  0.42623  0.67473  0.01608  1.0000
  H   H438      1.0  0.01168  0.84459  0.03244  1.0000
  H   H439      1.0  0.03277  0.95129  0.03088  1.0000
  H   H440      1.0  0.41411  0.66146  0.45510  1.0000
  H   H441      1.0  0.03351  0.72840  0.06759  1.0000
  C   C547      1.0  0.41120  0.54222  0.03225  1.0000
  H   H442      1.0  0.04703  0.81407  0.43931  1.0000
  C   C548      1.0  0.99997  0.81774  0.40276  1.0000
  C   C549      1.0  0.47245  0.69399  0.45597  1.0000
  H   H443      1.0  0.04291  0.82033  0.35867  1.0000
  H   H444      1.0  0.04122  0.77072  0.12210  1.0000
  C   C550      1.0  0.16055  0.79198  0.00690  1.0000
  H   H445      1.0  0.03870  0.71775  0.30274  1.0000
  C   C551      1.0  0.16113  0.97900  0.00524  1.0000
  C   C552      1.0  0.00729  0.80664  0.99149  1.0000
  C   C553      1.0  0.99591  0.67459  0.19903  1.0000
  H   H446      1.0  0.32968  0.49465  0.03047  1.0000
  H   H447      1.0  0.02677  0.82032  0.06437  1.0000
  C   C554      1.0  0.14658  0.97728  0.98480  1.0000
  H   H448      1.0  0.99676  0.66086  0.23326  1.0000
  C   C555      1.0  0.42558  0.71751  0.03338  1.0000
  S   S93       1.0  0.37373  0.59039  0.98189  1.0000
  H   H449      1.0  0.11666  0.65096  0.16457  1.0000
  Fe  Fe46      1.0  0.10055  0.87602  0.98706  1.0000
  C   C556      1.0  0.19337  0.70466  0.03299  1.0000
  C   C557      1.0  0.33646  0.69773  0.01311  1.0000
  P   P19       1.0  0.05062  0.78179  0.01101  1.0000
  C   C558      1.0  0.15568  0.77069  0.99872  1.0000
  H   H450      1.0  0.16611  0.69064  0.00806  1.0000
  Fe  Fe47      1.0  0.14427  0.91368  0.98147  1.0000
  H   H451      1.0  0.08341  0.85399  0.03919  1.0000
  C   C559      1.0  0.08249  0.74526  0.26684  1.0000
  H   H452      1.0  0.10263  0.71479  0.03631  1.0000
  H   H453      1.0  0.22881  0.79533  0.45160  1.0000
  C   C560      1.0  0.08282  0.72110  0.03010  1.0000
  C   C561      1.0  0.08377  0.81576  0.12695  1.0000
  H   H454      1.0  0.13469  0.76539  0.99453  1.0000
  H   H455      1.0  0.10465  0.82009  0.13260  1.0000
  H   H456      1.0  0.07535  0.77287  0.05685  1.0000
  C   C562      1.0  0.44426  0.55436  0.00389  1.0000
  P   P20       1.0  0.99618  0.79673  0.10033  1.0000
  H   H457      1.0  0.02684  0.72873  0.45332  1.0000
  C   C563      1.0  0.06167  0.93389  0.98270  1.0000
  C   C564      1.0  0.44200  0.69186  0.00564  1.0000
  C   C565      1.0  0.18759  0.79904  0.01207  1.0000
  H   H458      1.0  0.26203  0.71615  0.02612  1.0000
  C   C566      1.0  0.01493  0.73719  0.07217  1.0000
  C   C567      1.0  0.03943  0.82656  0.11035  1.0000
  C   C568      1.0  0.26192  0.74943  0.43381  1.0000
  H   H459      1.0  0.07514  0.71472  0.45315  1.0000
  H   H460      1.0  0.42203  0.52412  0.46247  1.0000
  H   H461      1.0  0.19139  0.67522  0.43807  1.0000
  H   H462      1.0  0.02104  0.68856  0.26818  1.0000
  H   H463      1.0  0.26255  0.73869  0.41946  1.0000
  H   H464      1.0  0.42673  0.65797  0.00994  1.0000
  C   C569      1.0  0.19217  0.71028  0.44456  1.0000
  C   C570      1.0  0.00056  0.66188  0.28642  1.0000
  H   H465      1.0  0.27901  0.67311  0.46728  1.0000
  C   C571      1.0  0.03511  0.69165  0.11192  1.0000
  C   C572      1.0  0.05966  0.74341  0.17339  1.0000
  H   H466      1.0  0.06239  0.68898  0.03202  1.0000
  H   H467      1.0  0.42559  0.73402  0.04028  1.0000
  C   C573      1.0  0.06608  0.83227  0.11818  1.0000
  C   C574      1.0  0.26874  0.50514  0.47658  1.0000
  H   H468      1.0  0.14346  0.80312  0.00947  1.0000
  H   H469      1.0  0.45445  0.72659  0.00727  1.0000
  C   C575      1.0  0.06317  0.76244  0.33723  1.0000
  C   C576      1.0  0.06016  0.78047  0.32202  1.0000
  C   C577      1.0  0.05278  0.80130  0.32981  1.0000
  C   C578      1.0  0.04871  0.80411  0.35282  1.0000
  C   C579      1.0  0.05234  0.78613  0.36822  1.0000
  C   C580      1.0  0.05921  0.76518  0.36023  1.0000
  P   P21       1.0  0.04601  0.79013  0.39765  1.0000
  C   C581      1.0  0.06844  0.81205  0.40786  1.0000
  C   C582      1.0  0.03638  0.65613  0.15949  1.0000
  C   C583      1.0  0.33823  0.48463  0.46760  1.0000
  C   C584      1.0  0.99775  0.87715  0.99493  1.0000
  C   C585      1.0  0.06812  0.82232  0.02778  1.0000
  H   H470      1.0  0.06791  0.63206  0.25861  1.0000
  C   C586      1.0  0.06016  0.70655  0.02768  1.0000
  C   C587      1.0  0.06420  0.82032  0.42935  1.0000
  C   C588      1.0  0.08238  0.83634  0.43814  1.0000
  C   C589      1.0  0.10485  0.84424  0.42544  1.0000
  C   C590      1.0  0.10960  0.83574  0.40420  1.0000
  C   C591      1.0  0.09170  0.81951  0.39552  1.0000
  C   C592      1.0  0.05457  0.76584  0.41492  1.0000
  C   C593      1.0  0.08196  0.75798  0.41524  1.0000
  C   C594      1.0  0.08929  0.73967  0.42907  1.0000
  C   C595      1.0  0.06944  0.72912  0.44275  1.0000
  H   H471      1.0  0.17898  0.71462  0.43021  1.0000
  C   C596      1.0  0.03482  0.75544  0.42913  1.0000
  H   H472      1.0  0.06877  0.74625  0.33129  1.0000
  H   H473      1.0  0.06354  0.77825  0.30423  1.0000
  H   H474      1.0  0.05032  0.81528  0.31803  1.0000
  C   C597      1.0  0.48715  0.50278  0.45825  1.0000
  H   H475      1.0  0.06167  0.75091  0.37158  1.0000
  C   C598      1.0  0.03791  0.75750  0.17870  1.0000
  H   H476      1.0  0.08841  0.72689  0.29820  1.0000
  H   H477      1.0  0.39703  0.70363  0.05801  1.0000
  C   C599      1.0  0.29513  0.70775  0.99136  1.0000
  C   C600      1.0  0.24334  0.85881  0.47671  1.0000
  H   H478      1.0  0.30185  0.81520  0.47312  1.0000
  H   H479      1.0  0.16862  0.96405  0.01382  1.0000
  H   H480      1.0  0.11904  0.85655  0.43230  1.0000
  H   H481      1.0  0.12768  0.84133  0.39477  1.0000
  H   H482      1.0  0.09657  0.81253  0.37946  1.0000
  H   H483      1.0  0.09770  0.76598  0.40475  1.0000
  H   H484      1.0  0.11042  0.73357  0.42909  1.0000
  H   H485      1.0  0.39764  0.66570  0.04260  1.0000
  C   C601      1.0  0.02552  0.73501  0.27187  1.0000
  C   C602      1.0  0.00490  0.71574  0.39414  1.0000
  C   C603      1.0  0.24208  0.74206  0.31816  1.0000
  C   C604      1.0  0.25258  0.74130  0.34017  1.0000
  C   C605      1.0  0.26178  0.72112  0.34973  1.0000
  C   C606      1.0  0.26063  0.70173  0.33724  1.0000
  C   C607      1.0  0.25088  0.70246  0.31481  1.0000
  C   C608      1.0  0.24123  0.72277  0.30553  1.0000
  P   P22       1.0  0.24957  0.67722  0.29880  1.0000
  C   C609      1.0  0.27770  0.65965  0.30884  1.0000
  C   C610      1.0  0.21691  0.66295  0.30435  1.0000
  C   C611      1.0  0.20801  0.65969  0.32665  1.0000
  C   C612      1.0  0.18382  0.64732  0.33130  1.0000
  C   C613      1.0  0.16798  0.63853  0.31377  1.0000
  C   C614      1.0  0.17670  0.64162  0.29154  1.0000
  C   C615      1.0  0.20127  0.65348  0.28684  1.0000
  C   C616      1.0  0.27316  0.63685  0.31371  1.0000
  C   C617      1.0  0.29476  0.62369  0.32254  1.0000
  C   C618      1.0  0.32103  0.63312  0.32641  1.0000
  C   C619      1.0  0.32583  0.65571  0.32128  1.0000
  C   C620      1.0  0.30428  0.66893  0.31250  1.0000
  C   C621      1.0  0.25362  0.68360  0.26896  1.0000
  C   C622      1.0  0.23191  0.69378  0.25656  1.0000
  C   C623      1.0  0.23448  0.69815  0.23343  1.0000
  C   C624      1.0  0.25877  0.69246  0.22242  1.0000
  C   C625      1.0  0.28054  0.68236  0.23454  1.0000
  C   C626      1.0  0.27800  0.67789  0.25769  1.0000
  H   H486      1.0  0.23387  0.75749  0.31097  1.0000
  H   H487      1.0  0.25281  0.75622  0.35000  1.0000
  H   H488      1.0  0.26924  0.72038  0.36700  1.0000
  H   H489      1.0  0.26719  0.68616  0.34522  1.0000
  H   H490      1.0  0.23252  0.72395  0.28873  1.0000
  H   H491      1.0  0.21983  0.66639  0.34058  1.0000
  H   H492      1.0  0.17717  0.64480  0.34859  1.0000
  H   H493      1.0  0.14901  0.62929  0.31749  1.0000
  H   H494      1.0  0.16455  0.63468  0.27792  1.0000
  H   H495      1.0  0.20798  0.65496  0.26955  1.0000
  H   H496      1.0  0.25294  0.62921  0.31101  1.0000
  H   H497      1.0  0.29101  0.60621  0.32665  1.0000
  H   H498      1.0  0.33761  0.62294  0.33353  1.0000
  H   H499      1.0  0.34617  0.66302  0.32438  1.0000
  H   H500      1.0  0.30820  0.68648  0.30880  1.0000
  H   H501      1.0  0.21276  0.69806  0.26472  1.0000
  H   H502      1.0  0.21749  0.70580  0.22396  1.0000
  H   H503      1.0  0.26057  0.69576  0.20445  1.0000
  H   H504      1.0  0.29931  0.67783  0.22592  1.0000
  H   H505      1.0  0.29504  0.66980  0.26654  1.0000
  C   C627      1.0  0.01071  0.86342  0.44588  1.0000
  H   H506      1.0  0.22547  0.71711  0.05478  1.0000
  H   H507      1.0  0.02599  0.83961  0.10375  1.0000
  C   C628      1.0  0.09054  0.80434  0.06774  1.0000
  C   C629      1.0  0.99462  0.78249  0.02321  1.0000
  C   C630      1.0  0.42347  0.51752  0.00249  1.0000
  C   C631      1.0  0.26988  0.50429  0.98964  1.0000
  H   H508      1.0  0.09151  0.67265  0.19196  1.0000
  S   S94       1.0  0.13311  0.84966  0.99375  1.0000
  C   C632      1.0  0.05100  0.64401  0.14379  1.0000
  C   C633      1.0  0.08148  0.83624  0.04305  1.0000
  C   C634      1.0  0.44183  0.71325  0.01460  1.0000
  C   C635      1.0  0.07460  0.79360  0.12831  1.0000
  H   H509      1.0  0.00018  0.77100  0.03683  1.0000
  H   H510      1.0  0.01725  0.70331  0.01735  1.0000
  C   C636      1.0  0.28950  0.84883  0.46511  1.0000
  H   H511      1.0  0.01578  0.64962  0.28198  1.0000
  H   H512      1.0  0.33911  0.75240  0.99639  1.0000
  H   H513      1.0  0.99307  0.77279  0.34505  1.0000
  H   H514      1.0  0.00336  0.71912  0.41182  1.0000
  C   C637      1.0  0.20740  0.69651  0.99510  1.0000
  C   C638      1.0  0.07989  0.64213  0.14560  1.0000
  H   H515      1.0  0.03770  0.76602  0.08235  1.0000
  C   C639      1.0  0.20500  0.76310  0.00162  1.0000
  H   H516      1.0  0.03310  0.84021  0.46678  1.0000
  C   C640      1.0  0.44156  0.53383  0.99326  1.0000
  C   C641      1.0  0.05978  0.94137  0.00464  1.0000
  H   H517      1.0  0.42007  0.50175  0.99462  1.0000
  C   C642      1.0  0.01483  0.79050  0.00803  1.0000
  C   C643      1.0  0.04791  0.78791  0.12067  1.0000
  H   H518      1.0  0.09623  0.69990  0.26104  1.0000
  C   C644      1.0  0.24278  0.78122  0.45220  1.0000
  C   C645      1.0  0.01468  0.74887  0.19002  1.0000
  P   P23       1.0  0.03250  0.68238  0.19785  1.0000
  C   C646      1.0  0.05813  0.72065  0.17905  1.0000
  C   C647      1.0  0.30537  0.72972  0.98911  1.0000
  H   H519      1.0  0.22206  0.75169  0.99994  1.0000
  H   H520      1.0  0.01449  0.83098  0.40678  1.0000
  C   C648      1.0  0.40990  0.67904  0.03475  1.0000
  H   H521      1.0  0.99769  0.75973  0.19397  1.0000
  C   C649      1.0  0.07974  0.66455  0.17878  1.0000
  H   H522      1.0  0.09958  0.79734  0.08315  1.0000
  C   C650      1.0  0.40959  0.70041  0.04343  1.0000
  H   H523      1.0  0.15219  0.81840  0.47139  1.0000
  C   C651      1.0  0.00844  0.68155  0.11104  1.0000
  C   C652      1.0  0.03167  0.73741  0.01434  1.0000
  C   C653      1.0  0.01730  0.75845  0.08104  1.0000
  C   C654      1.0  0.24129  0.86065  0.01237  1.0000
  C   C655      1.0  0.24304  0.86717  0.03471  1.0000
  C   C656      1.0  0.24624  0.85113  0.05204  1.0000
  C   C657      1.0  0.24734  0.82851  0.04712  1.0000
  C   C658      1.0  0.24527  0.82182  0.02470  1.0000
  C   C659      1.0  0.24227  0.83807  0.00736  1.0000
  P   P24       1.0  0.24483  0.79278  0.01758  1.0000
  C   C660      1.0  0.26946  0.79075  0.99500  1.0000
  C   C661      1.0  0.25352  0.77459  0.04139  1.0000
  C   C662      1.0  0.27711  0.76094  0.04133  1.0000
  C   C663      1.0  0.28280  0.74642  0.05963  1.0000
  C   C664      1.0  0.26497  0.74534  0.07806  1.0000
  C   C665      1.0  0.24125  0.75858  0.07809  1.0000
  C   C666      1.0  0.23539  0.77298  0.05978  1.0000
  C   C667      1.0  0.01323  0.72617  0.19600  1.0000
  C   C668      1.0  0.29737  0.79693  0.99875  1.0000
  C   C669      1.0  0.06653  0.79925  0.03199  1.0000
  H   H524      1.0  0.10451  0.74901  0.26487  1.0000
  H   H525      1.0  0.24119  0.88461  0.03864  1.0000
  H   H526      1.0  0.24699  0.85621  0.06938  1.0000
  H   H527      1.0  0.24934  0.81649  0.06093  1.0000
  C   C670      1.0  0.34674  0.71950  0.01043  1.0000
  H   H528      1.0  0.29092  0.76110  0.02712  1.0000
  H   H529      1.0  0.30085  0.73574  0.05945  1.0000
  H   H530      1.0  0.26930  0.73406  0.09223  1.0000
  H   H531      1.0  0.22725  0.75762  0.09231  1.0000
  H   H532      1.0  0.21672  0.78297  0.06005  1.0000
  C   C671      1.0  0.47756  0.60770  0.03626  1.0000
  H   H533      1.0  0.30422  0.80214  0.01524  1.0000
  H   H534      1.0  0.09126  0.63300  0.13326  1.0000
  C   C672      1.0  0.03042  0.80418  0.11092  1.0000
  C   C673      1.0  0.31079  0.69182  0.00358  1.0000
  C   C674      1.0  0.03471  0.71466  0.01954  1.0000
  H   H535      1.0  0.02938  0.87256  0.44096  1.0000
  C   C675      1.0  0.08298  0.68741  0.25355  1.0000
  C   C676      1.0  0.09291  0.82722  0.06296  1.0000
  H   H536      1.0  0.01191  0.74318  0.00767  1.0000
  C   C677      1.0  0.06681  0.69288  0.23451  1.0000
  H   H537      1.0  0.48308  0.66902  0.02736  1.0000
  C   C678      1.0  0.03491  0.74741  0.25294  1.0000
  C   C679      1.0  0.07713  0.79041  0.05248  1.0000
  C   C680      1.0  0.05064  0.66663  0.17710  1.0000
  H   H538      1.0  0.99681  0.76308  0.38855  1.0000
  C   C681      1.0  0.07993  0.74380  0.02469  1.0000
  C   C682      1.0  0.44874  0.68333  0.44748  1.0000
  H   H539      1.0  0.07862  0.94344  0.01461  1.0000
  C   C683      1.0  0.04514  0.72759  0.28809  1.0000
  H   H540      1.0  0.25947  0.49924  0.44174  1.0000
  C   C684      1.0  0.06326  0.75244  0.25045  1.0000
  H   H541      1.0  0.10399  0.83793  0.07450  1.0000
  C   C685      1.0  0.03375  0.94584  0.01370  1.0000
  H   H542      1.0  0.01411  0.65733  0.15749  1.0000
  H   H543      1.0  0.36669  0.72398  0.01770  1.0000
  C   C686      1.0  0.21006  0.78466  0.00934  1.0000
  C   C687      1.0  0.21228  0.95231  0.46874  1.0000
  C   C688      1.0  0.26838  0.86455  0.46624  1.0000
  H   H544      1.0  0.25057  0.62039  0.99862  1.0000
  C   C689      1.0  0.00358  0.68402  0.27877  1.0000
  H   H545      1.0  0.44340  0.68505  0.42976  1.0000
  H   H546      1.0  0.07043  0.76178  0.23568  1.0000
  H   H547      1.0  0.07316  0.84948  0.11725  1.0000
  H   H548      1.0  0.09568  0.66157  0.27722  1.0000
  H   H549      1.0  0.04044  0.64117  0.22421  1.0000
  C   C690      1.0  0.31640  0.79714  0.98110  1.0000
  C   C691      1.0  0.05154  0.65436  0.23272  1.0000
  C   C692      1.0  0.04226  0.73707  0.44286  1.0000
  C   C693      1.0  0.05403  0.75230  0.01761  1.0000
  H   H550      1.0  0.17780  0.70434  0.04609  1.0000
  H   H551      1.0  0.08835  0.78072  0.13496  1.0000
  H   H552      1.0  0.25213  0.66026  0.00709  1.0000
  S   S95       1.0  0.05436  0.87226  0.99613  1.0000
  H   H553      1.0  0.23091  0.77117  0.41889  1.0000
  H   H554      1.0  0.05959  0.82944  0.01231  1.0000
  C   C694      1.0  0.18687  0.69691  0.01160  1.0000
  C   C695      1.0  0.27878  0.74494  0.45268  1.0000
  C   C696      1.0  0.03470  0.71176  0.19019  1.0000
  C   C697      1.0  0.09420  0.65226  0.16319  1.0000
  H   H555      1.0  0.07514  0.71013  0.17435  1.0000
  C   C698      1.0  0.08297  0.66564  0.26250  1.0000
  C   C699      1.0  0.24101  0.71142  0.02153  1.0000
  H   H556      1.0  0.00001  0.87950  0.01279  1.0000
  H   H557      1.0  0.01276  0.74924  0.31645  1.0000
  H   H558      1.0  0.00606  0.66511  0.10423  1.0000
  C   C700      1.0  0.27740  0.75839  0.47149  1.0000
  C   C701      1.0  0.19918  0.68807  0.44901  1.0000
  H   H559      1.0  0.33935  0.52032  0.46069  1.0000
  C   C702      1.0  0.44459  0.52344  0.46264  1.0000
  H   H560      1.0  0.14048  0.96240  0.47626  1.0000
  H   H561      1.0  0.07950  0.84248  0.45494  1.0000
  H   H562      1.0  0.26639  0.51296  0.00509  1.0000
  H   H563      1.0  0.27116  0.88107  0.45867  1.0000
  C   C703      1.0  0.09068  0.79936  0.98111  1.0000
  H   H564      1.0  0.19730  0.74414  0.45450  1.0000
  H   H565      1.0  0.34823  0.68533  0.02271  1.0000
  H   H566      1.0  0.19065  0.81561  0.01849  1.0000
  H   H567      1.0  0.32690  0.67823  0.45347  1.0000
  H   H568      1.0  0.99468  0.95829  0.46377  1.0000
  C   C704      1.0  0.25879  0.77630  0.47164  1.0000
  H   H569      1.0  0.30329  0.67485  0.00603  1.0000
  H   H570      1.0  0.03630  0.78169  0.46647  1.0000
  C   C705      1.0  0.21653  0.68243  0.46728  1.0000
  C   C706      1.0  0.45806  0.50364  0.45783  1.0000
  H   H571      1.0  0.09957  0.80812  0.99505  1.0000
  C   C707      1.0  0.43215  0.67012  0.46180  1.0000
  H   H572      1.0  0.22233  0.66514  0.46987  1.0000
  P   P25       1.0  0.26162  0.70056  0.97939  1.0000
  C   C708      1.0  0.99123  0.75390  0.31489  1.0000
  C   C709      1.0  0.25942  0.49224  0.45875  1.0000
  H   H573      1.0  0.17413  0.73966  0.99000  1.0000
  C   C710      1.0  0.00932  0.94330  0.00070  1.0000
  C   C711      1.0  0.99363  0.76934  0.08861  1.0000
  H   H574      1.0  0.48554  0.70399  0.44481  1.0000
  H   H575      1.0  0.44589  0.48895  0.45383  1.0000
  C   C712      1.0  0.25415  0.63265  0.98517  1.0000
  C   C713      1.0  0.35487  0.51635  0.98131  1.0000
  H   H576      1.0  0.00475  0.91580  0.04034  1.0000
  H   H577      1.0  0.21027  0.91702  0.46315  1.0000
  C   C714      1.0  0.06705  0.78565  0.98391  1.0000
  C   C715      1.0  0.32026  0.68715  0.46801  1.0000
  H   H578      1.0  0.29348  0.74242  0.98012  1.0000
  C   C716      1.0  0.46022  0.54232  0.46810  1.0000
  C   C717      1.0  0.33922  0.50724  0.47360  1.0000
  H   H579      1.0  0.44974  0.55760  0.47209  1.0000
  H   H580      1.0  0.02269  0.81419  0.98037  1.0000
  C   C718      1.0  0.98998  0.77969  0.39243  1.0000
  H   H581      1.0  0.08688  0.78038  0.47339  1.0000
  H   H582      1.0  0.19733  0.95648  0.45554  1.0000
  C   C719      1.0  0.21952  0.93010  0.47310  1.0000
  C   C720      1.0  0.47506  0.61004  0.47580  1.0000
  H   H583      1.0  0.27636  0.52202  0.47343  1.0000
  C   C721      1.0  0.01148  0.93537  0.97876  1.0000
  H   H584      1.0  0.36027  0.70275  0.47318  1.0000
  C   C722      1.0  0.29308  0.68435  0.47590  1.0000
  C   C723      1.0  0.22009  0.72138  0.47661  1.0000
  Fe  Fe48      1.0  0.38932  0.78177  0.87488  1.0000
  S   S96       1.0  0.37899  0.75699  0.84835  1.0000
  S   S97       1.0  0.43307  0.79070  0.88840  1.0000
  Fe  Fe49      1.0  0.32698  0.79514  0.88078  1.0000
  S   S98       1.0  0.31294  0.77168  0.85384  1.0000
  S   S99       1.0  0.30066  0.81828  0.90290  1.0000
  Fe  Fe50      1.0  0.34279  0.74732  0.87059  1.0000
  S   S100      1.0  0.32863  0.71117  0.87272  1.0000
  Fe  Fe51      1.0  0.35015  0.78279  0.83310  1.0000
  S   S101      1.0  0.35266  0.79315  0.79514  1.0000
  S   S102      1.0  0.35509  0.76998  0.89843  1.0000
  S   S103      1.0  0.36223  0.80847  0.85889  1.0000
  H   H585      1.0  0.03777  0.76401  0.96700  1.0000
  C   C724      1.0  0.42300  0.63319  0.93744  1.0000
  S   S104      1.0  0.12339  0.89028  0.95696  1.0000
  C   C725      1.0  0.08605  0.80331  0.50060  1.0000
  H   H586      1.0  0.39371  0.58377  0.93352  1.0000
  H   H587      1.0  0.08655  0.97041  0.49149  1.0000
  H   H588      1.0  0.39707  0.56909  0.89511  1.0000
  S   S105      1.0  0.17863  0.84105  0.94115  1.0000
  C   C726      1.0  0.31701  0.96072  0.54153  1.0000
  Fe  Fe52      1.0  0.39910  0.79200  0.63398  1.0000
  S   S106      1.0  0.38638  0.75683  0.64302  1.0000
  S   S107      1.0  0.44352  0.80167  0.64528  1.0000
  Fe  Fe53      1.0  0.33857  0.80302  0.61609  1.0000
  S   S108      1.0  0.32328  0.76830  0.62513  1.0000
  S   S109      1.0  0.31425  0.82858  0.59360  1.0000
  Fe  Fe54      1.0  0.34820  0.77209  0.65791  1.0000
  S   S110      1.0  0.33484  0.75956  0.69356  1.0000
  Fe  Fe55      1.0  0.36324  0.75663  0.60987  1.0000
  S   S111      1.0  0.37260  0.73496  0.57982  1.0000
  S   S112      1.0  0.36130  0.80747  0.64956  1.0000
  S   S113      1.0  0.37805  0.79125  0.60012  1.0000
  Fe  Fe56      1.0  0.10851  0.87917  0.51169  1.0000
  S   S114      1.0  0.06181  0.87541  0.50376  1.0000
  Fe  Fe57      1.0  0.16528  0.86708  0.53487  1.0000
  S   S115      1.0  0.18911  0.88719  0.50916  1.0000
  S   S116      1.0  0.18691  0.84681  0.56361  1.0000
  Fe  Fe58      1.0  0.15634  0.91367  0.51242  1.0000
  H   H589      1.0  0.35070  0.98153  0.55326  1.0000
  S   S117      1.0  0.13356  0.89430  0.53988  1.0000
  S   S118      1.0  0.13786  0.85010  0.50914  1.0000
  Fe  Fe59      1.0  0.34637  0.62366  0.51096  1.0000
  S   S119      1.0  0.33367  0.64055  0.54322  1.0000
  S   S120      1.0  0.37444  0.59420  0.51284  1.0000
  H   H590      1.0  0.41731  0.49676  0.95494  1.0000
  S   S121      1.0  0.33067  0.62681  0.94045  1.0000
  Fe  Fe60      1.0  0.34440  0.57644  0.49026  1.0000
  C   C727      1.0  0.44104  0.54274  0.94429  1.0000
  H   H591      1.0  0.22870  0.73457  0.48664  1.0000
  H   H592      1.0  0.42205  0.56785  0.96448  1.0000
  C   C728      1.0  0.42745  0.54427  0.90469  1.0000
  H   H593      1.0  0.14948  0.78319  0.53759  1.0000
  C   C729      1.0  0.33810  0.49549  0.51279  1.0000
  C   C730      1.0  0.40966  0.56195  0.90869  1.0000
  H   H594      1.0  0.39135  0.74641  0.70414  1.0000
  H   H595      1.0  0.45509  0.75900  0.85641  1.0000
  C   C731      1.0  0.36037  0.70908  0.56963  1.0000
  C   C732      1.0  0.34101  0.69572  0.58130  1.0000
  C   C733      1.0  0.33279  0.67492  0.57280  1.0000
  C   C734      1.0  0.34364  0.66735  0.55251  1.0000
  C   C735      1.0  0.36240  0.68100  0.54054  1.0000
  C   C736      1.0  0.37089  0.70165  0.54918  1.0000
  H   H596      1.0  0.33278  0.70120  0.59705  1.0000
  H   H597      1.0  0.31822  0.66447  0.58215  1.0000
  H   H598      1.0  0.37059  0.67550  0.52479  1.0000
  H   H599      1.0  0.38588  0.71188  0.54003  1.0000
  C   C737      1.0  0.27871  0.83161  0.58436  1.0000
  C   C738      1.0  0.25630  0.82196  0.59611  1.0000
  C   C739      1.0  0.22856  0.82663  0.58933  1.0000
  C   C740      1.0  0.22260  0.84073  0.57051  1.0000
  C   C741      1.0  0.24502  0.84966  0.55819  1.0000
  C   C742      1.0  0.27277  0.84530  0.56523  1.0000
  H   H600      1.0  0.26032  0.81148  0.61088  1.0000
  H   H601      1.0  0.21155  0.81952  0.59901  1.0000
  H   H602      1.0  0.24095  0.86046  0.54366  1.0000
  H   H603      1.0  0.28986  0.85283  0.55601  1.0000
  C   C743      1.0  0.40944  0.75465  0.71129  1.0000
  C   C744      1.0  0.33002  0.68915  0.89329  1.0000
  C   C745      1.0  0.32085  0.66822  0.88643  1.0000
  C   C746      1.0  0.32123  0.64974  0.90130  1.0000
  C   C747      1.0  0.33048  0.65172  0.92353  1.0000
  C   C748      1.0  0.33916  0.67282  0.93091  1.0000
  C   C749      1.0  0.33928  0.69153  0.91566  1.0000
  H   H604      1.0  0.31358  0.66616  0.86930  1.0000
  H   H605      1.0  0.31435  0.63367  0.89542  1.0000
  H   H606      1.0  0.34585  0.67468  0.94820  1.0000
  H   H607      1.0  0.34623  0.70768  0.92120  1.0000
  C   C750      1.0  0.34900  0.78292  0.76705  1.0000
  C   C751      1.0  0.34022  0.76111  0.76260  1.0000
  C   C752      1.0  0.33652  0.75425  0.74014  1.0000
  C   C753      1.0  0.34199  0.76884  0.72161  1.0000
  C   C754      1.0  0.35177  0.79038  0.72604  1.0000
  C   C755      1.0  0.35502  0.79736  0.74853  1.0000
  H   H608      1.0  0.33604  0.74952  0.77642  1.0000
  H   H609      1.0  0.32910  0.73752  0.73708  1.0000
  H   H610      1.0  0.35617  0.80187  0.71213  1.0000
  H   H611      1.0  0.36200  0.81420  0.75157  1.0000
  C   C756      1.0  0.26653  0.82391  0.91369  1.0000
  C   C757      1.0  0.26333  0.84127  0.92896  1.0000
  C   C758      1.0  0.23693  0.84662  0.93769  1.0000
  C   C759      1.0  0.21299  0.83472  0.93128  1.0000
  C   C760      1.0  0.21624  0.81714  0.91625  1.0000
  C   C761      1.0  0.24265  0.81177  0.90756  1.0000
  H   H612      1.0  0.28146  0.85082  0.93400  1.0000
  H   H613      1.0  0.23507  0.86016  0.94918  1.0000
  H   H614      1.0  0.19805  0.80776  0.91107  1.0000
  H   H615      1.0  0.24448  0.79845  0.89583  1.0000
  C   C762      1.0  0.02816  0.88485  0.54053  1.0000
  C   C763      1.0  0.03011  0.88198  0.51730  1.0000
  H   H616      1.0  0.26753  0.88965  0.59856  1.0000
  H   H617      1.0  0.04664  0.88367  0.55102  1.0000
  H   H618      1.0  0.33751  0.49959  0.53039  1.0000
  C   C764      1.0  0.44338  0.48328  0.51784  1.0000
  H   H619      1.0  0.45326  0.75142  0.63111  1.0000
  C   C765      1.0  0.09655  0.95789  0.54710  1.0000
  H   H620      1.0  0.46051  0.79264  0.59916  1.0000
  C   C766      1.0  0.40044  0.73924  0.79262  1.0000
  C   C767      1.0  0.44703  0.71735  0.64240  1.0000
  H   H621      1.0  0.29209  0.91065  0.56824  1.0000
  C   C768      1.0  0.23804  0.92470  0.49070  1.0000
  H   H622      1.0  0.48665  0.80812  0.90131  1.0000
  C   C769      1.0  0.07391  0.79042  0.48385  1.0000
  C   C770      1.0  0.46733  0.78431  0.87942  1.0000
  H   H623      1.0  0.18910  0.90411  0.56636  1.0000
  H   H624      1.0  0.43048  0.74321  0.92740  1.0000
  H   H625      1.0  0.09501  0.93808  0.51743  1.0000
  C   C771      1.0  0.46308  0.52071  0.51976  1.0000
  C   C772      1.0  0.33854  0.51285  0.49627  1.0000
  H   H626      1.0  0.45514  0.67872  0.56944  1.0000
  C   C773      1.0  0.44787  0.73763  0.93786  1.0000
  C   C774      1.0  0.44311  0.53470  0.92239  1.0000
  H   H627      1.0  0.48641  0.73579  0.74818  1.0000
  C   C775      1.0  0.24228  0.96377  0.49945  1.0000
  S   S122      1.0  0.36842  0.63893  0.48118  1.0000
  S   S123      1.0  0.31415  0.60521  0.49058  1.0000
  H   H628      1.0  0.43480  0.74788  0.57203  1.0000
  H   H629      1.0  0.44713  0.68270  0.65275  1.0000
  H   H630      1.0  0.31553  0.94199  0.49344  1.0000
  H   H631      1.0  0.99329  0.93245  0.96842  1.0000
  H   H632      1.0  0.26670  0.75293  0.52287  1.0000
  H   H633      1.0  0.07889  0.82746  0.52603  1.0000
  C   C776      1.0  0.44832  0.66491  0.96513  1.0000
  H   H634      1.0  0.42727  0.80555  0.75675  1.0000
  H   H635      1.0  0.48105  0.53179  0.51955  1.0000
  C   C777      1.0  0.27988  0.78550  0.95560  1.0000
  C   C778      1.0  0.27440  0.73345  0.91897  1.0000
  C   C779      1.0  0.25004  0.74564  0.91560  1.0000
  C   C780      1.0  0.22900  0.74435  0.93168  1.0000
  C   C781      1.0  0.01717  0.96766  0.52568  1.0000
  H   H636      1.0  0.21560  0.72990  0.96314  1.0000
  H   H637      1.0  0.43357  0.54741  0.52214  1.0000
  C   C782      1.0  0.26052  0.82163  0.48531  1.0000
  C   C783      1.0  0.01938  0.94660  0.51647  1.0000
  C   C784      1.0  0.46437  0.64871  0.95483  1.0000
  C   C785      1.0  0.28803  0.95750  0.54048  1.0000
  C   C786      1.0  0.45015  0.70270  0.88212  1.0000
  C   C787      1.0  0.47138  0.70851  0.86711  1.0000
  C   C788      1.0  0.45702  0.64898  0.53395  1.0000
  C   C789      1.0  0.21231  0.63243  0.52413  1.0000
  H   H638      1.0  0.45584  0.83411  0.85815  1.0000
  C   C790      1.0  0.47620  0.79568  0.63298  1.0000
  C   C791      1.0  0.45863  0.60936  0.54358  1.0000
  H   H639      1.0  0.23908  0.78198  0.96931  1.0000
  C   C792      1.0  0.16099  0.97613  0.50512  1.0000
  C   C793      1.0  0.47885  0.79245  0.60988  1.0000
  H   H640      1.0  0.29086  0.73454  0.90658  1.0000
  H   H641      1.0  0.24773  0.75634  0.90069  1.0000
  H   H642      1.0  0.21038  0.75420  0.92924  1.0000
  C   C794      1.0  0.26959  0.90944  0.56769  1.0000
  H   H643      1.0  0.42201  0.76979  0.67964  1.0000
  C   C795      1.0  0.44460  0.71295  0.57313  1.0000
  C   C796      1.0  0.47235  0.76836  0.86330  1.0000
  C   C797      1.0  0.43842  0.76329  0.74365  1.0000
  S   S124      1.0  0.44191  0.60221  0.48674  1.0000
  C   C798      1.0  0.47167  0.62887  0.53533  1.0000
  H   H644      1.0  0.10841  0.80327  0.50320  1.0000
  H   H645      1.0  0.47888  0.80631  0.83500  1.0000
  C   C799      1.0  0.48456  0.68951  0.90934  1.0000
  H   H646      1.0  0.46973  0.59376  0.54394  1.0000
  H   H647      1.0  0.46610  0.72205  0.51080  1.0000
  C   C800      1.0  0.21158  0.90577  0.56681  1.0000
  C   C801      1.0  0.21811  0.79606  0.53127  1.0000
  H   H648      1.0  0.10142  0.79349  0.92512  1.0000
  C   C802      1.0  0.42680  0.80494  0.77494  1.0000
  H   H649      1.0  0.26953  0.67595  0.93709  1.0000
  C   C803      1.0  0.00572  0.88348  0.50410  1.0000
  H   H650      1.0  0.29819  0.82053  0.51955  1.0000
  H   H651      1.0  0.44938  0.75366  0.53237  1.0000
  H   H652      1.0  0.35948  0.53216  0.97288  1.0000
  C   C804      1.0  0.46299  0.67816  0.49332  1.0000
  C   C805      1.0  0.10307  0.80207  0.96000  1.0000
  H   H653      1.0  0.26805  0.63613  0.92923  1.0000
  H   H654      1.0  0.25072  0.97714  0.50927  1.0000
  C   C806      1.0  0.00196  0.88875  0.55028  1.0000
  H   H655      1.0  0.32210  0.79223  0.94561  1.0000
  C   C807      1.0  0.29908  0.80353  0.52598  1.0000
  C   C808      1.0  0.19885  0.78092  0.49705  1.0000
  H   H656      1.0  0.01329  0.92711  0.48701  1.0000
  C   C809      1.0  0.04066  0.81756  0.50975  1.0000
  C   C810      1.0  0.43638  0.52952  0.52133  1.0000
  C   C811      1.0  0.29105  0.50327  0.95295  1.0000
  C   C812      1.0  0.25639  0.71802  0.95433  1.0000
  H   H657      1.0  0.03673  0.86939  0.94854  1.0000
  C   C813      1.0  0.43722  0.48848  0.95527  1.0000
  H   H658      1.0  0.42561  0.70969  0.95207  1.0000
  C   C814      1.0  0.16962  0.78474  0.52964  1.0000
  H   H659      1.0  0.42647  0.65659  0.49514  1.0000
  C   C815      1.0  0.27767  0.71989  0.93833  1.0000
  C   C816      1.0  0.48724  0.48907  0.96074  1.0000
  C   C817      1.0  0.33623  0.88795  0.49416  1.0000
  H   H660      1.0  0.12123  0.81287  0.95790  1.0000
  H   H661      1.0  0.29454  0.53105  0.97506  1.0000
  H   H662      1.0  0.43771  0.71049  0.59035  1.0000
  H   H663      1.0  0.35116  0.87726  0.48639  1.0000
  H   H664      1.0  0.42876  0.53771  0.88794  1.0000
  H   H665      1.0  0.38955  0.75477  0.78970  1.0000
  C   C818      1.0  0.30045  0.76058  0.54545  1.0000
  H   H666      1.0  0.44025  0.68880  0.91488  1.0000
  C   C819      1.0  0.46168  0.69784  0.53837  1.0000
  C   C820      1.0  0.28870  0.73338  0.81722  1.0000
  C   C821      1.0  0.27112  0.72364  0.83339  1.0000
  C   C822      1.0  0.24603  0.73385  0.83844  1.0000
  C   C823      1.0  0.23841  0.75373  0.82720  1.0000
  C   C824      1.0  0.25569  0.76333  0.81056  1.0000
  C   C825      1.0  0.28122  0.75333  0.80611  1.0000
  P   P26       1.0  0.24746  0.79009  0.79768  1.0000
  C   C826      1.0  0.21037  0.79360  0.79492  1.0000
  C   C827      1.0  0.26293  0.81021  0.81613  1.0000
  C   C828      1.0  0.24915  0.81619  0.83575  1.0000
  C   C829      1.0  0.26194  0.83069  0.85079  1.0000
  C   C830      1.0  0.28883  0.83880  0.84672  1.0000
  C   C831      1.0  0.30282  0.83266  0.82741  1.0000
  C   C832      1.0  0.28994  0.81840  0.81220  1.0000
  C   C833      1.0  0.19856  0.81474  0.79692  1.0000
  C   C834      1.0  0.16982  0.81747  0.79433  1.0000
  C   C835      1.0  0.15277  0.79921  0.78934  1.0000
  C   C836      1.0  0.16449  0.77822  0.78677  1.0000
  C   C837      1.0  0.19322  0.77544  0.78940  1.0000
  C   C838      1.0  0.26041  0.79257  0.76926  1.0000
  C   C839      1.0  0.26246  0.77364  0.75604  1.0000
  C   C840      1.0  0.27244  0.77563  0.73404  1.0000
  C   C841      1.0  0.28010  0.79651  0.72498  1.0000
  C   C842      1.0  0.27732  0.81551  0.73777  1.0000
  C   C843      1.0  0.26720  0.81361  0.75974  1.0000
  H   H667      1.0  0.30864  0.72592  0.81401  1.0000
  H   H668      1.0  0.27741  0.70856  0.84250  1.0000
  H   H669      1.0  0.23283  0.72658  0.85142  1.0000
  H   H670      1.0  0.21937  0.76182  0.83185  1.0000
  H   H671      1.0  0.29573  0.76139  0.79461  1.0000
  H   H672      1.0  0.22875  0.80941  0.83966  1.0000
  H   H673      1.0  0.25137  0.83527  0.86597  1.0000
  H   H674      1.0  0.29901  0.84940  0.85886  1.0000
  H   H675      1.0  0.32392  0.83849  0.82445  1.0000
  H   H676      1.0  0.30135  0.81341  0.79765  1.0000
  H   H677      1.0  0.21151  0.82916  0.80035  1.0000
  H   H678      1.0  0.16079  0.83380  0.79606  1.0000
  H   H679      1.0  0.13052  0.80137  0.78725  1.0000
  H   H680      1.0  0.15132  0.76413  0.78259  1.0000
  H   H681      1.0  0.20206  0.75916  0.78699  1.0000
  H   H682      1.0  0.25662  0.75730  0.76270  1.0000
  H   H683      1.0  0.27490  0.76094  0.72407  1.0000
  H   H684      1.0  0.28853  0.79786  0.70812  1.0000
  H   H685      1.0  0.28328  0.83168  0.73069  1.0000
  H   H686      1.0  0.26495  0.82854  0.76933  1.0000
  C   C844      1.0  0.48813  0.73091  0.62289  1.0000
  C   C845      1.0  0.47289  0.74964  0.93728  1.0000
  H   H687      1.0  0.21604  0.88617  0.59755  1.0000
  H   H688      1.0  0.21320  0.92503  0.53595  1.0000
  P   P27       1.0  0.46008  0.52942  0.96735  1.0000
  H   H689      1.0  0.28341  0.88524  0.53152  1.0000
  C   C846      1.0  0.17296  0.77840  0.50741  1.0000
  C   C847      1.0  0.27070  0.97237  0.55140  1.0000
  C   C848      1.0  0.41503  0.75259  0.73440  1.0000
  P   P28       1.0  0.44616  0.76106  0.77342  1.0000
  S   S125      1.0  0.33599  0.54098  0.50496  1.0000
  C   C849      1.0  0.43464  0.78566  0.78731  1.0000
  H   H690      1.0  0.02357  0.97000  0.54296  1.0000
  H   H691      1.0  0.29090  0.75466  0.48570  1.0000
  C   C850      1.0  0.41500  0.82296  0.80950  1.0000
  C   C851      1.0  0.42259  0.80379  0.82187  1.0000
  C   C852      1.0  0.43226  0.78521  0.81084  1.0000
  H   H692      1.0  0.01228  0.97600  0.91679  1.0000
  H   H693      1.0  0.42860  0.70595  0.87756  1.0000
  H   H694      1.0  0.19898  0.66508  0.51321  1.0000
  H   H695      1.0  0.00056  0.89063  0.56828  1.0000
  C   C853      1.0  0.38650  0.72131  0.80317  1.0000
  C   C854      1.0  0.42832  0.73728  0.78623  1.0000
  C   C855      1.0  0.44203  0.71701  0.79051  1.0000
  C   C856      1.0  0.42803  0.69909  0.80114  1.0000
  C   C857      1.0  0.40030  0.70126  0.80751  1.0000
  C   C858      1.0  0.32834  0.97907  0.55254  1.0000
  C   C859      1.0  0.06942  0.81683  0.51356  1.0000
  H   H696      1.0  0.46630  0.71645  0.85099  1.0000
  H   H697      1.0  0.27606  0.50625  0.51228  1.0000
  C   C860      1.0  0.23500  0.61868  0.52905  1.0000
  C   C861      1.0  0.45565  0.77651  0.72957  1.0000
  H   H698      1.0  0.40091  0.74281  0.74487  1.0000
  C   C862      1.0  0.46194  0.73480  0.63195  1.0000
  H   H699      1.0  0.46278  0.78912  0.69563  1.0000
  H   H700      1.0  0.40674  0.83710  0.81806  1.0000
  H   H701      1.0  0.42056  0.80318  0.84003  1.0000
  H   H702      1.0  0.43742  0.77032  0.82063  1.0000
  H   H703      1.0  0.27307  0.78194  0.93866  1.0000
  H   H704      1.0  0.41021  0.83808  0.77641  1.0000
  H   H705      1.0  0.29682  0.71076  0.94081  1.0000
  Fe  Fe61      1.0  0.15829  0.86584  0.96549  1.0000
  H   H706      1.0  0.02836  0.82901  0.51923  1.0000
  C   C863      1.0  0.00076  0.96118  0.48104  1.0000
  H   H707      1.0  0.43869  0.68350  0.80448  1.0000
  H   H708      1.0  0.38946  0.68746  0.81588  1.0000
  H   H709      1.0  0.36506  0.72311  0.80825  1.0000
  H   H710      1.0  0.36672  0.49672  0.95312  1.0000
  C   C864      1.0  0.43089  0.60978  0.55035  1.0000
  C   C865      1.0  0.28134  0.76562  0.52814  1.0000
  H   H711      1.0  0.30100  0.74408  0.55334  1.0000
  H   H712      1.0  0.02733  0.93271  0.52662  1.0000
  C   C866      1.0  0.21672  0.65446  0.51650  1.0000
  C   C867      1.0  0.45849  0.69608  0.64418  1.0000
  C   C868      1.0  0.01136  0.94342  0.49413  1.0000
  C   C869      1.0  0.40686  0.64894  0.94788  1.0000
  C   C870      1.0  0.28576  0.51455  0.97266  1.0000
  H   H713      1.0  0.42678  0.72039  0.64947  1.0000
  C   C871      1.0  0.41936  0.66479  0.96160  1.0000
  C   C872      1.0  0.19222  0.79344  0.54157  1.0000
  C   C873      1.0  0.46031  0.71923  0.52818  1.0000
  C   C874      1.0  0.09313  0.95465  0.52405  1.0000
  C   C875      1.0  0.46797  0.71102  0.96504  1.0000
  C   C876      1.0  0.44531  0.71854  0.95180  1.0000
  C   C877      1.0  0.42911  0.64919  0.54074  1.0000
  C   C878      1.0  0.22169  0.78979  0.50891  1.0000
  C   C879      1.0  0.43925  0.66744  0.48460  1.0000
  C   C880      1.0  0.28101  0.78698  0.51781  1.0000
  C   C881      1.0  0.31802  0.79845  0.54336  1.0000
  C   C882      1.0  0.23208  0.73054  0.95095  1.0000
  C   C883      1.0  0.33543  0.91067  0.48826  1.0000
  H   H714      1.0  0.47479  0.76440  0.92640  1.0000
  H   H715      1.0  0.27973  0.61650  0.53064  1.0000
  H   H716      1.0  0.33335  0.77313  0.56663  1.0000
  C   C884      1.0  0.31883  0.77697  0.55299  1.0000
  H   H717      1.0  0.41716  0.66435  0.53934  1.0000
  H   H718      1.0  0.41305  0.62092  0.92697  1.0000
  H   H719      1.0  0.33164  0.81132  0.54990  1.0000
  H   H720      1.0  0.38453  0.64849  0.94571  1.0000
  C   C885      1.0  0.42378  0.56098  0.94797  1.0000
  C   C886      1.0  0.41708  0.82352  0.78605  1.0000
  C   C887      1.0  0.41320  0.51527  0.52162  1.0000
  C   C888      1.0  0.45422  0.69495  0.56109  1.0000
  C   C889      1.0  0.40786  0.57030  0.93031  1.0000
  H   H721      1.0  0.42052  0.59456  0.55612  1.0000
  H   H722      1.0  0.45645  0.52078  0.91900  1.0000
  C   C890      1.0  0.31626  0.92448  0.49841  1.0000
  H   H723      1.0  0.00695  0.88191  0.48616  1.0000
  C   C891      1.0  0.25576  0.89775  0.58502  1.0000
  C   C892      1.0  0.02826  0.80456  0.49305  1.0000
  C   C893      1.0  0.01854  0.87169  0.95874  1.0000
  C   C894      1.0  0.06842  0.77738  0.94411  1.0000
  H   H724      1.0  0.05968  0.76901  0.92971  1.0000
  C   C895      1.0  0.30765  0.79139  0.95953  1.0000
  P   P29       1.0  0.47304  0.67426  0.52259  1.0000
  C   C896      1.0  0.41615  0.62970  0.54897  1.0000
  C   C897      1.0  0.44291  0.73408  0.56277  1.0000
  C   C898      1.0  0.99169  0.87155  0.94881  1.0000
  S   S126      1.0  0.13000  0.89984  0.48457  1.0000
  C   C899      1.0  0.44976  0.77874  0.70654  1.0000
  C   C900      1.0  0.26653  0.64884  0.51836  1.0000
  C   C901      1.0  0.24389  0.66268  0.51318  1.0000
  H   H725      1.0  0.20059  0.77616  0.47979  1.0000
  P   P30       1.0  0.24934  0.69158  0.50509  1.0000
  C   C902      1.0  0.24381  0.70640  0.53073  1.0000
  C   C903      1.0  0.28444  0.69566  0.49492  1.0000
  C   C904      1.0  0.30340  0.70996  0.50568  1.0000
  C   C905      1.0  0.33058  0.71257  0.49783  1.0000
  C   C906      1.0  0.05606  0.77460  0.96524  1.0000
  C   C907      1.0  0.45174  0.63298  0.94099  1.0000
  C   C908      1.0  0.46658  0.49772  0.51789  1.0000
  C   C909      1.0  0.26158  0.70231  0.54933  1.0000
  C   C910      1.0  0.25838  0.71394  0.56915  1.0000
  C   C911      1.0  0.23709  0.72945  0.57077  1.0000
  C   C912      1.0  0.21849  0.73286  0.55277  1.0000
  C   C913      1.0  0.22151  0.72112  0.53295  1.0000
  H   H726      1.0  0.48646  0.64772  0.95785  1.0000
  C   C914      1.0  0.46164  0.50011  0.96118  1.0000
  H   H727      1.0  0.46404  0.62020  0.93355  1.0000
  C   C915      1.0  0.22382  0.96913  0.48178  1.0000
  C   C916      1.0  0.24921  0.94142  0.50426  1.0000
  C   C917      1.0  0.03754  0.93072  0.96985  1.0000
  C   C918      1.0  0.25862  0.62576  0.96328  1.0000
  P   P31       1.0  0.27267  0.93363  0.52708  1.0000
  H   H728      1.0  0.00019  0.76053  0.49575  1.0000
  H   H729      1.0  0.28768  0.65494  0.51656  1.0000
  H   H730      1.0  0.24326  0.90742  0.49405  1.0000
  H   H731      1.0  0.29762  0.71901  0.52025  1.0000
  H   H732      1.0  0.34522  0.72319  0.50661  1.0000
  H   H733      1.0  0.25879  0.60815  0.95973  1.0000
  C   C919      1.0  0.26379  0.64156  0.94607  1.0000
  H   H734      1.0  0.19133  0.62607  0.52644  1.0000
  H   H735      1.0  0.27824  0.69029  0.54840  1.0000
  H   H736      1.0  0.27259  0.71099  0.58322  1.0000
  H   H737      1.0  0.23482  0.73864  0.58608  1.0000
  H   H738      1.0  0.20162  0.74454  0.55426  1.0000
  H   H739      1.0  0.20621  0.72348  0.51969  1.0000
  C   C920      1.0  0.04514  0.79109  0.48005  1.0000
  H   H740      1.0  0.24832  0.96976  0.55141  1.0000
  C   C921      1.0  0.35912  0.49616  0.97018  1.0000
  H   H741      1.0  0.33099  0.94902  0.53424  1.0000
  H   H742      1.0  0.15539  0.77179  0.49807  1.0000
  H   H743      1.0  0.30387  0.51110  0.94002  1.0000
  C   C922      1.0  0.09191  0.79113  0.94149  1.0000
  C   C923      1.0  0.42669  0.76779  0.69743  1.0000
  H   H744      1.0  0.03907  0.92426  0.95308  1.0000
  H   H745      1.0  0.39441  0.62996  0.55376  1.0000
  S   S127      1.0  0.16796  0.95016  0.51946  1.0000
  H   H746      1.0  0.46350  0.71494  0.78585  1.0000
  C   C924      1.0  0.26863  0.49620  0.49853  1.0000
  C   C925      1.0  0.09469  0.97933  0.55559  1.0000
  H   H747      1.0  0.39247  0.52213  0.52286  1.0000
  H   H748      1.0  0.48192  0.85523  0.64122  1.0000
  Fe  Fe62      1.0  0.39495  0.60796  0.48152  1.0000
  C   C926      1.0  0.29808  0.91574  0.51485  1.0000
  C   C927      1.0  0.26042  0.67136  0.97270  1.0000
  H   H749      1.0  0.10114  0.94378  0.55828  1.0000
  H   H750      1.0  0.21954  0.83338  0.49404  1.0000
  C   C928      1.0  0.25448  0.91893  0.54951  1.0000
  C   C929      1.0  0.22535  0.91740  0.54943  1.0000
  C   C930      1.0  0.23936  0.83748  0.48634  1.0000
  C   C931      1.0  0.22676  0.89582  0.58452  1.0000
  H   H751      1.0  0.47750  0.87148  0.86258  1.0000
  Fe  Fe63      1.0  0.16040  0.87153  0.48368  1.0000
  H   H752      1.0  0.40625  0.67664  0.96971  1.0000
  C   C932      1.0  0.26207  0.62696  0.52634  1.0000
  C   C933      1.0  0.45674  0.69313  0.90319  1.0000
  H   H753      1.0  0.23521  0.80325  0.54076  1.0000
  H   H754      1.0  0.23171  0.60167  0.53515  1.0000
  C   C934      1.0  0.31753  0.87898  0.50991  1.0000
  C   C935      1.0  0.47528  0.83832  0.84983  1.0000
  H   H755      1.0  0.18957  0.79865  0.55873  1.0000
  C   C936      1.0  0.14723  0.97752  0.48425  1.0000
  C   C937      1.0  0.26488  0.66426  0.95072  1.0000
  H   H756      1.0  0.31777  0.86131  0.51426  1.0000
  C   C938      1.0  0.29827  0.89273  0.51998  1.0000
  H   H757      1.0  0.08188  0.93023  0.97579  1.0000
  C   C939      1.0  0.48470  0.69217  0.63520  1.0000
  C   C940      1.0  0.41668  0.49224  0.52021  1.0000
  H   H758      1.0  0.47344  0.78528  0.73644  1.0000
  H   H759      1.0  0.48739  0.49134  0.51655  1.0000
  C   C941      1.0  0.48332  0.75749  0.77655  1.0000
  C   C942      1.0  0.45095  0.73726  0.54037  1.0000
  P   P32       1.0  0.25544  0.79346  0.49602  1.0000
  C   C943      1.0  0.08832  0.97289  0.50943  1.0000
  C   C944      1.0  0.22656  0.69899  0.48164  1.0000
  H   H760      1.0  0.98944  0.86926  0.93089  1.0000
  S   S128      1.0  0.14023  0.95112  0.97169  1.0000
  C   C945      1.0  0.26073  0.78539  0.97315  1.0000
  H   H761      1.0  0.09770  0.98154  0.57347  1.0000
  C   C946      1.0  0.48759  0.85929  0.85242  1.0000
  C   C947      1.0  0.48829  0.82258  0.83680  1.0000
  C   C948      1.0  0.99812  0.98233  0.49025  1.0000
  C   C949      1.0  0.47955  0.69144  0.47878  1.0000
  H   H762      1.0  0.48798  0.77818  0.80569  1.0000
  P   P33       1.0  0.99193  0.80833  0.48581  1.0000
  C   C950      1.0  0.33906  0.70108  0.47906  1.0000
  H   H763      1.0  0.22662  0.87072  0.47675  1.0000
  Fe  Fe64      1.0  0.34350  0.61838  0.97656  1.0000
  Fe  Fe65      1.0  0.66679  0.24924  0.12040  1.0000
  S   S129      1.0  0.65057  0.22558  0.09501  1.0000
  S   S130      1.0  0.68339  0.28328  0.10856  1.0000
  Fe  Fe66      1.0  0.65564  0.21639  0.16020  1.0000
  S   S131      1.0  0.63936  0.19025  0.13621  1.0000
  S   S132      1.0  0.64894  0.20805  0.19819  1.0000
  Fe  Fe67      1.0  0.67615  0.19960  0.11380  1.0000
  S   S133      1.0  0.69998  0.17597  0.09038  1.0000
  Fe  Fe68      1.0  0.61557  0.21841  0.11929  1.0000
  S   S134      1.0  0.57082  0.22272  0.10566  1.0000
  S   S135      1.0  0.69383  0.22380  0.13883  1.0000
  S   S136      1.0  0.63056  0.24396  0.14374  1.0000
  Fe  Fe69      1.0  0.84287  0.12329  0.03355  1.0000
  Fe  Fe70      1.0  0.90693  0.11433  0.46754  1.0000
  S   S137      1.0  0.82225  0.14345  0.06165  1.0000
  Fe  Fe71      1.0  0.90041  0.11794  0.00981  1.0000
  S   S138      1.0  0.94496  0.13034  0.00303  1.0000
  C   C951      1.0  0.70422  0.34645  0.46067  1.0000
  Fe  Fe72      1.0  0.85922  0.07835  0.01178  1.0000
  P   P34       1.0  0.55380  0.47005  0.01405  1.0000
  S   S139      1.0  0.86596  0.14299  0.00677  1.0000
  S   S140      1.0  0.87932  0.09963  0.03867  1.0000
  Fe  Fe73      1.0  0.66636  0.22963  0.33283  1.0000
  S   S141      1.0  0.64837  0.19537  0.33871  1.0000
  S   S142      1.0  0.67961  0.24255  0.29743  1.0000
  Fe  Fe74      1.0  0.65815  0.24156  0.38327  1.0000
  S   S143      1.0  0.63841  0.20805  0.39108  1.0000
  S   S144      1.0  0.66419  0.26162  0.41523  1.0000
  Fe  Fe75      1.0  0.67384  0.19431  0.37122  1.0000
  S   S145      1.0  0.69778  0.16324  0.38416  1.0000
  Fe  Fe76      1.0  0.61511  0.21263  0.35814  1.0000
  S   S146      1.0  0.56994  0.21284  0.34568  1.0000
  S   S147      1.0  0.69414  0.22763  0.36415  1.0000
  S   S148      1.0  0.63283  0.24698  0.35165  1.0000
  H   H764      1.0  0.70078  0.21656  0.06233  1.0000
  C   C952      1.0  0.51768  0.46167  0.01127  1.0000
  S   S149      1.0  0.86662  0.09621  0.45954  1.0000
  C   C953      1.0  0.53197  0.16940  0.26614  1.0000
  C   C954      1.0  0.65975  0.47543  0.99731  1.0000
  S   S150      1.0  0.94720  0.10382  0.45092  1.0000
  Fe  Fe77      1.0  0.84508  0.12959  0.46137  1.0000
  S   S151      1.0  0.81219  0.14916  0.44015  1.0000
  C   C955      1.0  0.55715  0.43480  0.04592  1.0000
  Fe  Fe78      1.0  0.63741  0.36510  0.00333  1.0000
  S   S152      1.0  0.62446  0.33712  0.02794  1.0000
  S   S153      1.0  0.61446  0.39760  0.00157  1.0000
  H   H765      1.0  0.72659  0.05535  0.44723  1.0000
  S   S154      1.0  0.62822  0.35968  0.44141  1.0000
  C   C956      1.0  0.56672  0.29182  0.40973  1.0000
  H   H766      1.0  0.88948  0.17570  0.05693  1.0000
  H   H767      1.0  0.70635  0.05512  0.37674  1.0000
  C   C957      1.0  0.98071  0.11224  0.46063  1.0000
  C   C958      1.0  0.70946  0.32699  0.47345  1.0000
  H   H768      1.0  0.52632  0.15248  0.29833  1.0000
  C   C959      1.0  0.90832  0.18417  0.02502  1.0000
  H   H769      1.0  0.96284  0.11266  0.04753  1.0000
  C   C960      1.0  0.55694  0.46805  0.42490  1.0000
  H   H770      1.0  0.57800  0.21235  0.25666  1.0000
  C   C961      1.0  0.57922  0.24742  0.40144  1.0000
  H   H771      1.0  0.50066  0.31094  0.15499  1.0000
  C   C962      1.0  0.53898  0.30256  0.00872  1.0000
  C   C963      1.0  0.65208  0.28850  0.42190  1.0000
  C   C964      1.0  0.64394  0.30430  0.40539  1.0000
  C   C965      1.0  0.63644  0.32596  0.41161  1.0000
  C   C966      1.0  0.63666  0.33196  0.43434  1.0000
  C   C967      1.0  0.64398  0.31592  0.45084  1.0000
  C   C968      1.0  0.65187  0.29444  0.44461  1.0000
  H   H772      1.0  0.64431  0.30004  0.38785  1.0000
  H   H773      1.0  0.63111  0.33830  0.39872  1.0000
  Fe  Fe79      1.0  0.84614  0.12003  0.98247  1.0000
  H   H774      1.0  0.65798  0.28237  0.45749  1.0000
  C   C969      1.0  0.53644  0.20690  0.35678  1.0000
  C   C970      1.0  0.53252  0.19435  0.37672  1.0000
  C   C971      1.0  0.51296  0.21432  0.34448  1.0000
  H   H775      1.0  0.55038  0.18839  0.38625  1.0000
  H   H776      1.0  0.51579  0.22398  0.32899  1.0000
  C   C972      1.0  0.72992  0.15997  0.39945  1.0000
  C   C973      1.0  0.73869  0.13831  0.40569  1.0000
  C   C974      1.0  0.76373  0.13470  0.41792  1.0000
  C   C975      1.0  0.78053  0.15274  0.42422  1.0000
  C   C976      1.0  0.77185  0.17442  0.41789  1.0000
  C   C977      1.0  0.74679  0.17805  0.40559  1.0000
  H   H777      1.0  0.72602  0.12416  0.40096  1.0000
  H   H778      1.0  0.77018  0.11794  0.42220  1.0000
  H   H779      1.0  0.78461  0.18849  0.42265  1.0000
  H   H780      1.0  0.74045  0.19483  0.40100  1.0000
  H   H781      1.0  0.55187  0.35708  0.43693  1.0000
  C   C978      1.0  0.57023  0.28634  0.30213  1.0000
  C   C979      1.0  0.55027  0.37313  0.38882  1.0000
  C   C980      1.0  0.56398  0.27340  0.99049  1.0000
  H   H782      1.0  0.56002  0.40745  0.07018  1.0000
  C   C981      1.0  0.55369  0.29037  0.32079  1.0000
  C   C982      1.0  0.80942  0.22626  0.03284  1.0000
  H   H783      1.0  0.77572  0.11490  0.46445  1.0000
  C   C983      1.0  0.78407  0.21741  0.04082  1.0000
  C   C984      1.0  0.66924  0.29701  0.08422  1.0000
  C   C985      1.0  0.64703  0.28773  0.07217  1.0000
  C   C986      1.0  0.63442  0.29992  0.05431  1.0000
  C   C987      1.0  0.64419  0.32129  0.04791  1.0000
  C   C988      1.0  0.66741  0.33012  0.05908  1.0000
  C   C989      1.0  0.67977  0.31805  0.07726  1.0000
  H   H784      1.0  0.63870  0.27158  0.07724  1.0000
  H   H785      1.0  0.61641  0.29301  0.04587  1.0000
  H   H786      1.0  0.67506  0.34659  0.05436  1.0000
  H   H787      1.0  0.69708  0.32529  0.08636  1.0000
  C   C990      1.0  0.53725  0.21277  0.11403  1.0000
  C   C991      1.0  0.53362  0.19438  0.12876  1.0000
  C   C992      1.0  0.51343  0.22360  0.10529  1.0000
  H   H788      1.0  0.55162  0.18558  0.13514  1.0000
  H   H789      1.0  0.51591  0.23763  0.09362  1.0000
  C   C993      1.0  0.65654  0.21919  0.22539  1.0000
  C   C994      1.0  0.64356  0.20948  0.24451  1.0000
  C   C995      1.0  0.64987  0.21669  0.26649  1.0000
  C   C996      1.0  0.66969  0.23356  0.26984  1.0000
  C   C997      1.0  0.68238  0.24354  0.25070  1.0000
  C   C998      1.0  0.67575  0.23656  0.22867  1.0000
  H   H790      1.0  0.62861  0.19612  0.24232  1.0000
  H   H791      1.0  0.63958  0.20906  0.28089  1.0000
  H   H792      1.0  0.69770  0.25665  0.25293  1.0000
  H   H793      1.0  0.68607  0.24425  0.21430  1.0000
  C   C999      1.0  0.78820  0.15353  0.06834  1.0000
  C   C1000     1.0  0.78501  0.16650  0.08757  1.0000
  C   C1001     1.0  0.75851  0.17392  0.09429  1.0000
  C   C1002     1.0  0.73449  0.16837  0.08199  1.0000
  C   C1003     1.0  0.73775  0.15573  0.06252  1.0000
  C   C1004     1.0  0.76429  0.14854  0.05564  1.0000
  H   H794      1.0  0.80319  0.17062  0.09756  1.0000
  H   H795      1.0  0.75664  0.18357  0.10928  1.0000
  H   H796      1.0  0.71949  0.15128  0.05277  1.0000
  H   H797      1.0  0.76613  0.13863  0.04084  1.0000
  H   H798      1.0  0.81588  0.16926  0.01625  1.0000
  C   C1005     1.0  0.63096  0.16032  0.28125  1.0000
  C   C1006     1.0  0.61824  0.15150  0.26218  1.0000
  C   C1007     1.0  0.63446  0.14554  0.24398  1.0000
  C   C1008     1.0  0.66338  0.14840  0.24484  1.0000
  C   C1009     1.0  0.67626  0.15791  0.26365  1.0000
  C   C1010     1.0  0.65980  0.16362  0.28197  1.0000
  P   P35       1.0  0.71374  0.16117  0.26482  1.0000
  C   C1011     1.0  0.72860  0.13423  0.26004  1.0000
  C   C1012     1.0  0.72689  0.18137  0.24417  1.0000
  C   C1013     1.0  0.71216  0.18629  0.22414  1.0000
  C   C1014     1.0  0.72307  0.20144  0.20813  1.0000
  C   C1015     1.0  0.74864  0.21195  0.21201  1.0000
  C   C1016     1.0  0.76353  0.20716  0.23185  1.0000
  C   C1017     1.0  0.75280  0.19186  0.24782  1.0000
  C   C1018     1.0  0.75367  0.13243  0.24832  1.0000
  C   C1019     1.0  0.76483  0.11146  0.24450  1.0000
  C   C1020     1.0  0.75111  0.09216  0.25236  1.0000
  C   C1021     1.0  0.72621  0.09380  0.26411  1.0000
  C   C1022     1.0  0.71498  0.11474  0.26795  1.0000
  C   C1023     1.0  0.72364  0.17026  0.29254  1.0000
  C   C1024     1.0  0.72263  0.19301  0.29728  1.0000
  C   C1025     1.0  0.72900  0.20028  0.31887  1.0000
  C   C1026     1.0  0.73594  0.18485  0.33603  1.0000
  C   C1027     1.0  0.73670  0.16215  0.33155  1.0000
  C   C1028     1.0  0.73065  0.15482  0.30987  1.0000
  H   H799      1.0  0.61851  0.16499  0.29542  1.0000
  H   H800      1.0  0.59583  0.14949  0.26148  1.0000
  H   H801      1.0  0.62468  0.13891  0.22907  1.0000
  H   H802      1.0  0.67566  0.14333  0.23073  1.0000
  H   H803      1.0  0.66896  0.17086  0.29681  1.0000
  H   H804      1.0  0.69204  0.17891  0.22079  1.0000
  H   H805      1.0  0.71127  0.20536  0.19288  1.0000
  H   H806      1.0  0.75677  0.22391  0.19967  1.0000
  H   H807      1.0  0.78333  0.21538  0.23491  1.0000
  H   H808      1.0  0.76475  0.18826  0.26302  1.0000
  H   H809      1.0  0.76463  0.14712  0.24202  1.0000
  H   H810      1.0  0.78411  0.11020  0.23535  1.0000
  H   H811      1.0  0.75977  0.07593  0.24932  1.0000
  H   H812      1.0  0.71556  0.07884  0.27021  1.0000
  H   H813      1.0  0.69570  0.11573  0.27714  1.0000
  H   H814      1.0  0.71645  0.20519  0.28439  1.0000
  H   H815      1.0  0.72793  0.21788  0.32232  1.0000
  H   H816      1.0  0.74018  0.19040  0.35294  1.0000
  H   H817      1.0  0.74143  0.15025  0.34511  1.0000
  H   H818      1.0  0.73100  0.13715  0.30690  1.0000
  H   H819      1.0  0.60545  0.29871  0.35940  1.0000
  H   H820      1.0  0.51515  0.34817  0.21409  1.0000
  C   C1029     1.0  0.57994  0.16301  0.17344  1.0000
  C   C1030     1.0  0.56585  0.17833  0.18630  1.0000
  C   C1031     1.0  0.55636  0.17217  0.20792  1.0000
  H   H821      1.0  0.71905  0.36924  0.43478  1.0000
  P   P36       1.0  0.53802  0.19189  0.22466  1.0000
  C   C1032     1.0  0.54620  0.18645  0.25411  1.0000
  C   C1033     1.0  0.54879  0.22000  0.21689  1.0000
  C   C1034     1.0  0.57685  0.22470  0.21218  1.0000
  C   C1035     1.0  0.58536  0.24628  0.20579  1.0000
  C   C1036     1.0  0.56596  0.26344  0.20434  1.0000
  S   S155      1.0  0.88618  0.14767  0.46565  1.0000
  C   C1037     1.0  0.51130  0.44008  0.00399  1.0000
  H   H822      1.0  0.60232  0.45519  0.46754  1.0000
  H   H823      1.0  0.64097  0.03646  0.03445  1.0000
  H   H824      1.0  0.84469  0.18497  0.46300  1.0000
  C   C1038     1.0  0.77073  0.00966  0.46486  1.0000
  H   H825      1.0  0.51626  0.15933  0.25791  1.0000
  H   H826      1.0  0.69712  0.25719  0.06757  1.0000
  H   H827      1.0  0.52771  0.42880  0.99952  1.0000
  C   C1039     1.0  0.68109  0.03902  0.05078  1.0000
  C   C1040     1.0  0.63951  0.47208  0.08965  1.0000
  C   C1041     1.0  0.58382  0.14122  0.18163  1.0000
  H   H828      1.0  0.56062  0.28178  0.28632  1.0000
  C   C1042     1.0  0.57202  0.26452  0.01154  1.0000
  H   H829      1.0  0.53141  0.28872  0.31890  1.0000
  H   H830      1.0  0.58784  0.16804  0.15702  1.0000
  H   H831      1.0  0.56253  0.19496  0.17926  1.0000
  C   C1043     1.0  0.49585  0.47618  0.01585  1.0000
  H   H832      1.0  0.59221  0.21163  0.21330  1.0000
  H   H833      1.0  0.60707  0.24954  0.20189  1.0000
  H   H834      1.0  0.57260  0.28011  0.19918  1.0000
  C   C1044     1.0  0.82474  0.24093  0.04633  1.0000
  H   H835      1.0  0.50459  0.31030  0.20108  1.0000
  C   C1045     1.0  0.49993  0.26545  0.43531  1.0000
  H   H836      1.0  0.50441  0.34298  0.42868  1.0000
  H   H837      1.0  0.50273  0.33201  0.38054  1.0000
  H   H838      1.0  0.77230  0.31403  0.45144  1.0000
  P   P37       1.0  0.98516  0.00544  0.47312  1.0000
  C   C1046     1.0  0.73527  0.30135  0.99696  1.0000
  S   S156      1.0  0.67860  0.38083  0.99379  1.0000
  H   H839      1.0  0.75048  0.03567  0.36929  1.0000
  C   C1047     1.0  0.56628  0.26062  0.38475  1.0000
  C   C1048     1.0  0.71230  0.25799  0.01151  1.0000
  C   C1049     1.0  0.53920  0.37144  0.03137  1.0000
  C   C1050     1.0  0.51309  0.37967  0.03670  1.0000
  H   H840      1.0  0.52091  0.23507  0.42744  1.0000
  C   C1051     1.0  0.50076  0.34398  0.05423  1.0000
  C   C1052     1.0  0.52686  0.33548  0.04869  1.0000
  C   C1053     1.0  0.54595  0.34938  0.03710  1.0000
  P   P38       1.0  0.53562  0.30676  0.05539  1.0000
  C   C1054     1.0  0.56253  0.30487  0.07700  1.0000
  H   H841      1.0  0.68496  0.35530  0.46284  1.0000
  H   H842      1.0  0.81084  0.99485  0.43439  1.0000
  C   C1055     1.0  0.49281  0.30512  0.34597  1.0000
  C   C1056     1.0  0.97219  0.99271  0.42917  1.0000
  H   H843      1.0  0.49736  0.34910  0.99330  1.0000
  C   C1057     1.0  0.65898  0.28729  0.99402  1.0000
  C   C1058     1.0  0.56709  0.28457  0.08882  1.0000
  C   C1059     1.0  0.58782  0.28294  0.10542  1.0000
  C   C1060     1.0  0.60434  0.30144  0.11040  1.0000
  C   C1061     1.0  0.60016  0.32166  0.09869  1.0000
  C   C1062     1.0  0.57935  0.32342  0.08209  1.0000
  C   C1063     1.0  0.54722  0.29391  0.02999  1.0000
  C   C1064     1.0  0.56365  0.27468  0.03121  1.0000
  H   H844      1.0  0.92878  0.98596  0.47400  1.0000
  C   C1065     1.0  0.75079  0.26946  0.46438  1.0000
  C   C1066     1.0  0.57174  0.44909  0.03090  1.0000
  P   P39       1.0  0.54507  0.30003  0.36627  1.0000
  H   H845      1.0  0.55396  0.38189  0.02212  1.0000
  H   H846      1.0  0.50750  0.39648  0.03155  1.0000
  C   C1067     1.0  0.77469  0.25633  0.46729  1.0000
  C   C1068     1.0  0.51264  0.24715  0.15740  1.0000
  H   H847      1.0  0.56593  0.34302  0.03218  1.0000
  C   C1069     1.0  0.57701  0.45621  0.43739  1.0000
  H   H848      1.0  0.87687  0.00157  0.46545  1.0000
  C   C1070     1.0  0.61165  0.29274  0.32451  1.0000
  C   C1071     1.0  0.78930  0.98459  0.04044  1.0000
  H   H849      1.0  0.87662  0.21152  0.98137  1.0000
  H   H850      1.0  0.55487  0.26981  0.08509  1.0000
  H   H851      1.0  0.59162  0.26706  0.11390  1.0000
  H   H852      1.0  0.62125  0.29981  0.12257  1.0000
  C   C1072     1.0  0.76607  0.06146  0.99661  1.0000
  H   H853      1.0  0.55016  0.46217  0.40864  1.0000
  H   H854      1.0  0.57011  0.26738  0.04724  1.0000
  H   H855      1.0  0.87256  0.04104  0.47614  1.0000
  C   C1073     1.0  0.50123  0.24375  0.42747  1.0000
  C   C1074     1.0  0.52279  0.34027  0.38045  1.0000
  C   C1075     1.0  0.67408  0.03972  0.01036  1.0000
  H   H856      1.0  0.92762  0.17566  0.02905  1.0000
  H   H857      1.0  0.58484  0.24977  0.01269  1.0000
  H   H858      1.0  0.84476  0.19306  0.04722  1.0000
  C   C1076     1.0  0.56639  0.47147  0.98552  1.0000
  C   C1077     1.0  0.80132  0.19645  0.99457  1.0000
  C   C1078     1.0  0.59522  0.29628  0.34334  1.0000
  C   C1079     1.0  0.77868  0.07984  0.45789  1.0000
  C   C1080     1.0  0.78125  0.05818  0.46728  1.0000
  C   C1081     1.0  0.56012  0.33212  0.46267  1.0000
  P   P40       1.0  0.78140  0.03450  0.44912  1.0000
  C   C1082     1.0  0.75718  0.04010  0.42621  1.0000
  C   C1083     1.0  0.81581  0.03055  0.43798  1.0000
  C   C1084     1.0  0.83388  0.04880  0.43446  1.0000
  C   C1085     1.0  0.86048  0.04569  0.42581  1.0000
  C   C1086     1.0  0.86910  0.02438  0.42036  1.0000
  C   C1087     1.0  0.85100  0.00617  0.42331  1.0000
  C   C1088     1.0  0.82445  0.00921  0.43205  1.0000
  C   C1089     1.0  0.76362  0.03448  0.40410  1.0000
  C   C1090     1.0  0.74526  0.03981  0.38635  1.0000
  C   C1091     1.0  0.54369  0.34259  0.44607  1.0000
  H   H859      1.0  0.76291  0.34865  0.42925  1.0000
  C   C1092     1.0  0.73198  0.05085  0.43030  1.0000
  H   H860      1.0  0.78532  0.14108  0.99929  1.0000
  C   C1093     1.0  0.82495  0.26213  0.99212  1.0000
  H   H861      1.0  0.57616  0.11766  0.20892  1.0000
  H   H862      1.0  0.73899  0.08342  0.04857  1.0000
  H   H863      1.0  0.70399  0.28362  0.03555  1.0000
  C   C1094     1.0  0.93689  0.05703  0.01414  1.0000
  C   C1095     1.0  0.52943  0.23737  0.21562  1.0000
  C   C1096     1.0  0.59919  0.28758  0.30397  1.0000
  C   C1097     1.0  0.71373  0.05621  0.41252  1.0000
  H   H864      1.0  0.77770  0.08254  0.43982  1.0000
  C   C1098     1.0  0.74342  0.00121  0.46332  1.0000
  H   H865      1.0  0.82760  0.06542  0.43853  1.0000
  H   H866      1.0  0.87455  0.05983  0.42360  1.0000
  H   H867      1.0  0.88991  0.02198  0.41407  1.0000
  H   H868      1.0  0.56174  0.17532  0.31786  1.0000
  C   C1099     1.0  0.53214  0.26143  0.14715  1.0000
  H   H869      1.0  0.78290  0.02625  0.40044  1.0000
  C   C1100     1.0  0.93703  0.04901  0.99234  1.0000
  C   C1101     1.0  0.56648  0.19918  0.26533  1.0000
  C   C1102     1.0  0.50640  0.31562  0.45319  1.0000
  C   C1103     1.0  0.71438  0.20776  0.46106  1.0000
  C   C1104     1.0  0.74804  0.34262  0.44163  1.0000
  C   C1105     1.0  0.56604  0.29555  0.34161  1.0000
  C   C1106     1.0  0.53806  0.25902  0.20944  1.0000
  H   H870      1.0  0.55048  0.25459  0.13954  1.0000
  H   H871      1.0  0.94507  0.99003  0.99592  1.0000
  H   H872      1.0  0.82618  0.29660  0.98061  1.0000
  H   H873      1.0  0.59778  0.24654  0.43460  1.0000
  H   H874      1.0  0.50575  0.37084  0.39224  1.0000
  H   H875      1.0  0.54277  0.29541  0.13818  1.0000
  C   C1107     1.0  0.72077  0.04362  0.02599  1.0000
  C   C1108     1.0  0.70981  0.04141  0.04776  1.0000
  P   P41       1.0  0.75785  0.04582  0.02212  1.0000
  C   C1109     1.0  0.77416  0.06169  0.04408  1.0000
  C   C1110     1.0  0.77038  0.01758  0.02137  1.0000
  C   C1111     1.0  0.98770  0.05080  0.99233  1.0000
  C   C1112     1.0  0.79014  0.05661  0.98462  1.0000
  H   H876      1.0  0.59461  0.12940  0.17150  1.0000
  C   C1113     1.0  0.55760  0.17826  0.30005  1.0000
  C   C1114     1.0  0.77950  0.00643  0.04118  1.0000
  C   C1115     1.0  0.76006  0.07939  0.05370  1.0000
  C   C1116     1.0  0.77342  0.09248  0.06973  1.0000
  C   C1117     1.0  0.80114  0.08848  0.07573  1.0000
  C   C1118     1.0  0.81545  0.07117  0.06592  1.0000
  C   C1119     1.0  0.80201  0.05784  0.05016  1.0000
  C   C1120     1.0  0.58016  0.27867  0.42626  1.0000
  H   H877      1.0  0.55169  0.39002  0.39474  1.0000
  C   C1121     1.0  0.66322  0.03830  0.03209  1.0000
  H   H878      1.0  0.81869  0.26635  0.00883  1.0000
  C   C1122     1.0  0.76990  0.00615  0.00107  1.0000
  C   C1123     1.0  0.73390  0.31495  0.47009  1.0000
  H   H879      1.0  0.59176  0.33177  0.37177  1.0000
  H   H880      1.0  0.61244  0.45913  0.01913  1.0000
  H   H881      1.0  0.94186  0.00153  0.06921  1.0000
  C   C1124     1.0  0.93637  0.98568  0.45694  1.0000
  H   H882      1.0  0.72343  0.04155  0.06241  1.0000
  H   H883      1.0  0.51023  0.26077  0.38041  1.0000
  C   C1125     1.0  0.75328  0.32304  0.45424  1.0000
  C   C1126     1.0  0.55986  0.15006  0.21584  1.0000
  H   H884      1.0  0.73210  0.08463  0.99938  1.0000
  H   H885      1.0  0.77931  0.01463  0.05715  1.0000
  C   C1127     1.0  0.52445  0.36232  0.38742  1.0000
  H   H886      1.0  0.76258  0.10619  0.07710  1.0000
  H   H887      1.0  0.81175  0.09923  0.08750  1.0000
  H   H888      1.0  0.83718  0.06841  0.07008  1.0000
  H   H889      1.0  0.81361  0.04490  0.04232  1.0000
  H   H890      1.0  0.48915  0.19956  0.25284  1.0000
  C   C1128     1.0  0.63291  0.29498  0.98689  1.0000
  C   C1129     1.0  0.50940  0.29170  0.36041  1.0000
  H   H891      1.0  0.72980  0.25158  0.41282  1.0000
  C   C1130     1.0  0.84690  0.01266  0.98248  1.0000
  H   H892      1.0  0.87116  0.99471  0.03359  1.0000
  H   H893      1.0  0.59455  0.37007  0.38488  1.0000
  H   H894      1.0  0.77892  0.35211  0.01704  1.0000
  C   C1131     1.0  0.55992  0.28290  0.38873  1.0000
  C   C1132     1.0  0.49977  0.28755  0.08760  1.0000
  H   H895      1.0  0.69676  0.18577  0.43650  1.0000
  C   C1133     1.0  0.96192  0.06239  0.02490  1.0000
  C   C1134     1.0  0.77408  0.22345  0.06177  1.0000
  H   H896      1.0  0.69454  0.06485  0.41574  1.0000
  H   H897      1.0  0.75494  0.21610  0.06815  1.0000
  H   H898      1.0  0.56245  0.30901  0.41327  1.0000
  H   H899      1.0  0.66116  0.46758  0.47378  1.0000
  C   C1135     1.0  0.98029  0.01339  0.05464  1.0000
  C   C1136     1.0  0.90435  0.19416  0.00372  1.0000
  H   H900      1.0  0.66026  0.03884  0.99588  1.0000
  H   H901      1.0  0.58415  0.23027  0.39806  1.0000
  C   C1137     1.0  0.61510  0.43253  0.04401  1.0000
  C   C1138     1.0  0.60040  0.41772  0.05816  1.0000
  C   C1139     1.0  0.57143  0.41894  0.05921  1.0000
  H   H902      1.0  0.80387  0.04350  0.99057  1.0000
  C   C1140     1.0  0.53765  0.16537  0.28902  1.0000
  C   C1141     1.0  0.60082  0.44806  0.03033  1.0000
  C   C1142     1.0  0.70624  0.26591  0.03294  1.0000
  C   C1143     1.0  0.97780  0.12250  0.01472  1.0000
  C   C1144     1.0  0.86141  0.19411  0.03507  1.0000
  H   H903      1.0  0.63757  0.43150  0.04303  1.0000
  H   H904      1.0  0.61148  0.40516  0.06809  1.0000
  C   C1145     1.0  0.76686  0.33794  0.01140  1.0000
  C   C1146     1.0  0.70924  0.18700  0.45178  1.0000
  C   C1147     1.0  0.85727  0.20444  0.01374  1.0000
  H   H905      1.0  0.77223  0.20539  0.03131  1.0000
  H   H906      1.0  0.62963  0.45575  0.08977  1.0000
  H   H907      1.0  0.71796  0.15194  0.45384  1.0000
  C   C1148     1.0  0.51689  0.33447  0.44140  1.0000
  C   C1149     1.0  0.58654  0.25651  0.42208  1.0000
  H   H908      1.0  0.52581  0.31705  0.00716  1.0000
  H   H909      1.0  0.52300  0.27226  0.20826  1.0000
  H   H910      1.0  0.79303  0.31364  0.02829  1.0000
  C   C1150     1.0  0.54750  0.29244  0.98909  1.0000
  C   C1151     1.0  0.50392  0.29312  0.15608  1.0000
  C   C1152     1.0  0.77964  0.98430  0.00042  1.0000
  C   C1153     1.0  0.74244  0.25290  0.42800  1.0000
  C   C1154     1.0  0.80185  0.17428  0.00272  1.0000
  H   H911      1.0  0.91732  0.05950  0.02256  1.0000
  H   H912      1.0  0.56153  0.25352  0.36858  1.0000
  H   H913      1.0  0.58723  0.20530  0.29699  1.0000
  C   C1155     1.0  0.81441  0.24722  0.06711  1.0000
  C   C1156     1.0  0.88685  0.18419  0.04070  1.0000
  C   C1157     1.0  0.73500  0.26786  0.44443  1.0000
  Fe  Fe80      1.0  0.65438  0.41325  0.98878  1.0000
  C   C1158     1.0  0.76587  0.23957  0.43122  1.0000
  H   H914      1.0  0.51589  0.22930  0.15771  1.0000
  C   C1159     1.0  0.77481  0.31627  0.01770  1.0000
  C   C1160     1.0  0.57270  0.34010  0.37563  1.0000
  S   S157      1.0  0.66815  0.44686  0.00391  1.0000
  H   H915      1.0  0.61209  0.28396  0.28968  1.0000
  H   H916      1.0  0.71669  0.27804  0.44159  1.0000
  C   C1161     1.0  0.78202  0.24131  0.45082  1.0000
  H   H917      1.0  0.72796  0.00947  0.45280  1.0000
  C   C1162     1.0  0.95824  0.99823  0.05741  1.0000
  H   H918      1.0  0.55197  0.14458  0.23204  1.0000
  H   H919      1.0  0.82630  0.25854  0.07745  1.0000
  S   S158      1.0  0.82147  0.10082  0.00897  1.0000
  H   H920      1.0  0.77153  0.22793  0.41848  1.0000
  C   C1163     1.0  0.75909  0.29802  0.01050  1.0000
  H   H921      1.0  0.71339  0.20226  0.02524  1.0000
  C   C1164     1.0  0.72342  0.35426  0.44476  1.0000
  H   H922      1.0  0.63417  0.29302  0.32607  1.0000
  C   C1165     1.0  0.78906  0.23850  0.07481  1.0000
  H   H923      1.0  0.50504  0.17788  0.18555  1.0000
  C   C1166     1.0  0.70220  0.25100  0.05117  1.0000
  C   C1167     1.0  0.49387  0.36594  0.04808  1.0000
  H   H924      1.0  0.67271  0.03764  0.06762  1.0000
  H   H925      1.0  0.76539  0.28131  0.01556  1.0000
  C   C1168     1.0  0.57439  0.36195  0.38311  1.0000
  C   C1169     1.0  0.87902  0.20430  0.99809  1.0000
  P   P42       1.0  0.82401  0.21710  0.00679  1.0000
  H   H926      1.0  0.58645  0.28589  0.44206  1.0000
  H   H927      1.0  0.84486  0.24723  0.04089  1.0000
  C   C1170     1.0  0.77744  0.09820  0.47178  1.0000
  H   H928      1.0  0.70576  0.22255  0.45285  1.0000
  H   H929      1.0  0.53477  0.43571  0.04733  1.0000
  S   S159      1.0  0.86216  0.04009  0.01828  1.0000
  H   H930      1.0  0.57718  0.33911  0.07295  1.0000
  H   H931      1.0  0.98663  0.19459  0.98125  1.0000
  C   C1171     1.0  0.72039  0.05074  0.39054  1.0000
  H   H932      1.0  0.80025  0.23098  0.45322  1.0000
  C   C1172     1.0  0.70429  0.22810  0.04823  1.0000
  C   C1173     1.0  0.71129  0.22007  0.02724  1.0000
  H   H933      1.0  0.65996  0.46677  0.12177  1.0000
  H   H934      1.0  0.58571  0.44108  0.43098  1.0000
  C   C1174     1.0  0.74325  0.34134  0.99785  1.0000
  C   C1175     1.0  0.85708  0.01404  0.00458  1.0000
  C   C1176     1.0  0.50102  0.18854  0.21988  1.0000
  H   H935      1.0  0.78117  0.24306  0.09105  1.0000
  C   C1177     1.0  0.50658  0.18691  0.13457  1.0000
  C   C1178     1.0  0.86307  0.99398  0.01657  1.0000
  H   H936      1.0  0.72102  0.22819  0.99301  1.0000
  C   C1179     1.0  0.71547  0.23492  0.00895  1.0000
  H   H937      1.0  0.96167  0.06916  0.04158  1.0000
  C   C1180     1.0  0.54685  0.32904  0.37406  1.0000
  H   H938      1.0  0.50408  0.17227  0.14542  1.0000
  C   C1181     1.0  0.57353  0.13468  0.20274  1.0000
  C   C1182     1.0  0.57198  0.19516  0.28824  1.0000
  H   H939      1.0  0.92068  0.19349  0.99132  1.0000
  H   H940      1.0  0.76236  0.01417  0.98566  1.0000
  C   C1183     1.0  0.68104  0.28649  0.97873  1.0000
  H   H941      1.0  0.50767  0.23426  0.21922  1.0000
  H   H942      1.0  0.61385  0.33572  0.10181  1.0000
  C   C1184     1.0  0.74996  0.07988  0.98973  1.0000
  H   H943      1.0  0.58084  0.33852  0.46630  1.0000
  H   H944      1.0  0.85774  0.98959  0.41934  1.0000
  S   S160      1.0  0.88181  0.09601  0.98331  1.0000
  C   C1185     1.0  0.70279  0.04214  0.00730  1.0000
  C   C1186     1.0  0.50533  0.18887  0.38391  1.0000
  H   H945      1.0  0.50125  0.32032  0.33835  1.0000
  C   C1187     1.0  0.83612  0.19473  0.47628  1.0000
  C   C1188     1.0  0.49806  0.27177  0.36959  1.0000
  H   H946      1.0  0.62214  0.48213  0.05736  1.0000
  H   H947      1.0  0.98114  0.02837  0.06441  1.0000
  H   H948      1.0  0.97525  0.05432  0.47276  1.0000
  C   C1189     1.0  0.50471  0.29172  0.06458  1.0000
  H   H949      1.0  0.64410  0.32018  0.46838  1.0000
  H   H950      1.0  0.71094  0.04279  0.99036  1.0000
  H   H951      1.0  0.66174  0.28250  0.01155  1.0000
  H   H952      1.0  0.51899  0.27315  0.44106  1.0000
  C   C1190     1.0  0.98098  0.11480  0.03704  1.0000
  C   C1191     1.0  0.82871  0.23982  0.98632  1.0000
  C   C1192     1.0  0.65661  0.47832  0.10766  1.0000
  C   C1193     1.0  0.96229  0.04618  0.98133  1.0000
  P   P43       1.0  0.71529  0.27760  0.98783  1.0000
  C   C1194     1.0  0.78172  0.20265  0.97785  1.0000
  H   H953      1.0  0.57923  0.43695  0.98506  1.0000
  H   H954      1.0  0.91743  0.04532  0.98395  1.0000
  C   C1195     1.0  0.49936  0.36299  0.98139  1.0000
  H   H955      1.0  0.73704  0.35812  0.99294  1.0000
  C   C1196     1.0  0.49094  0.18119  0.19909  1.0000
  H   H956      1.0  0.70942  0.32626  0.97993  1.0000
  H   H957      1.0  0.50249  0.17878  0.39912  1.0000
  H   H958      1.0  0.61636  0.29639  0.99899  1.0000
  C   C1197     1.0  0.52775  0.28441  0.14642  1.0000
  C   C1198     1.0  0.58634  0.46413  0.45803  1.0000
  C   C1199     1.0  0.96281  0.99431  0.45138  1.0000
  H   H959      1.0  0.51401  0.29362  0.10024  1.0000
  C   C1200     1.0  0.72753  0.32314  0.99055  1.0000
  C   C1201     1.0  0.98721  0.05952  0.01401  1.0000
  C   C1202     1.0  0.54977  0.31355  0.47471  1.0000
  C   C1203     1.0  0.72106  0.16790  0.46166  1.0000
  C   C1204     1.0  0.78417  0.15829  0.99338  1.0000
  C   C1205     1.0  0.52308  0.30528  0.46997  1.0000
  C   C1206     1.0  0.49480  0.34440  0.20703  1.0000
  H   H960      1.0  0.69728  0.25479  0.47517  1.0000
  C   C1207     1.0  0.95506  0.98325  0.41273  1.0000
  H   H961      1.0  0.54448  0.36304  0.98247  1.0000
  C   C1208     1.0  0.63396  0.40660  0.66776  1.0000
  C   C1209     1.0  0.93369  0.28695  0.80513  1.0000
  Fe  Fe81      1.0  0.87960  0.14302  0.50288  1.0000
  S   S161      1.0  0.89067  0.17482  0.52137  1.0000
  S   S162      1.0  0.90318  0.11076  0.50503  1.0000
  Fe  Fe82      1.0  0.85064  0.27028  0.83782  1.0000
  S   S163      1.0  0.85740  0.30527  0.84987  1.0000
  S   S164      1.0  0.83648  0.25991  0.80223  1.0000
  Fe  Fe83      1.0  0.86955  0.24967  0.88363  1.0000
  S   S165      1.0  0.87793  0.28338  0.89787  1.0000
  S   S166      1.0  0.88584  0.22110  0.90605  1.0000
  Fe  Fe84      1.0  0.83661  0.29349  0.88238  1.0000
  S   S167      1.0  0.81047  0.31396  0.90706  1.0000
  Fe  Fe85      1.0  0.89776  0.29217  0.86481  1.0000
  S   S168      1.0  0.93883  0.31134  0.85971  1.0000
  S   S169      1.0  0.82734  0.25901  0.86959  1.0000
  S   S170      1.0  0.89174  0.25801  0.85127  1.0000
  C   C1210     1.0  0.94440  0.29778  0.69896  1.0000
  H   H962      1.0  0.67019  0.29241  0.54465  1.0000
  S   S171      1.0  0.64451  0.40691  0.95231  1.0000
  H   H963      1.0  0.92456  0.14984  0.63101  1.0000
  C   C1211     1.0  0.85105  0.21289  0.48450  1.0000
  S   S172      1.0  0.56222  0.39903  0.95106  1.0000
  Fe  Fe86      1.0  0.66616  0.37357  0.95791  1.0000
  S   S173      1.0  0.69054  0.35359  0.93171  1.0000
  H   H964      1.0  0.84541  0.24864  0.93104  1.0000
  Fe  Fe87      1.0  0.84977  0.25277  0.61945  1.0000
  S   S174      1.0  0.86125  0.28048  0.59500  1.0000
  S   S175      1.0  0.83755  0.21811  0.60756  1.0000
  Fe  Fe88      1.0  0.85581  0.28206  0.66112  1.0000
  S   S176      1.0  0.86650  0.31181  0.63845  1.0000
  S   S177      1.0  0.86329  0.28845  0.69911  1.0000
  Fe  Fe89      1.0  0.83180  0.30120  0.61480  1.0000
  S   S178      1.0  0.80502  0.32781  0.59558  1.0000
  Fe  Fe90      1.0  0.89479  0.28877  0.62049  1.0000
  S   S179      1.0  0.93847  0.30151  0.61114  1.0000
  S   S180      1.0  0.81890  0.27301  0.63873  1.0000
  S   S181      1.0  0.88542  0.25949  0.64355  1.0000
  Fe  Fe91      1.0  0.63349  0.41342  0.50690  1.0000
  S   S182      1.0  0.62726  0.39173  0.53832  1.0000
  C   C1212     1.0  0.95444  0.29890  0.72106  1.0000
  S   S183      1.0  0.62227  0.34849  0.50710  1.0000
  Fe  Fe92      1.0  0.59313  0.37479  0.51879  1.0000
  S   S184      1.0  0.55146  0.36916  0.53646  1.0000
  Fe  Fe93      1.0  0.65745  0.36723  0.52413  1.0000
  S   S185      1.0  0.68707  0.34329  0.54436  1.0000
  S   S186      1.0  0.66620  0.38997  0.49379  1.0000
  H   H965      1.0  0.70254  0.24472  0.55160  1.0000
  C   C1213     1.0  0.77251  0.33099  0.58055  1.0000
  C   C1214     1.0  0.75087  0.31517  0.58186  1.0000
  C   C1215     1.0  0.72509  0.31925  0.57073  1.0000
  C   C1216     1.0  0.72050  0.33900  0.55777  1.0000
  C   C1217     1.0  0.74244  0.35450  0.55595  1.0000
  C   C1218     1.0  0.76801  0.35062  0.56741  1.0000
  H   H966      1.0  0.75378  0.30002  0.59188  1.0000
  H   H967      1.0  0.70848  0.30704  0.57236  1.0000
  H   H968      1.0  0.73973  0.36959  0.54582  1.0000
  H   H969      1.0  0.78449  0.36300  0.56613  1.0000
  H   H970      1.0  0.77927  0.23026  0.58662  1.0000
  C   C1219     1.0  0.84446  0.26821  0.77372  1.0000
  C   C1220     1.0  0.83102  0.25717  0.75593  1.0000
  C   C1221     1.0  0.83642  0.26306  0.73312  1.0000
  C   C1222     1.0  0.85541  0.28019  0.72764  1.0000
  C   C1223     1.0  0.86892  0.29121  0.74544  1.0000
  C   C1224     1.0  0.86352  0.28530  0.76826  1.0000
  H   H971      1.0  0.81621  0.24394  0.75983  1.0000
  H   H972      1.0  0.82579  0.25439  0.71978  1.0000
  H   H973      1.0  0.88364  0.30448  0.74154  1.0000
  H   H974      1.0  0.87399  0.29404  0.78160  1.0000
  C   C1225     1.0  0.77659  0.32376  0.91440  1.0000
  C   C1226     1.0  0.77434  0.33913  0.93179  1.0000
  C   C1227     1.0  0.74830  0.34798  0.93776  1.0000
  C   C1228     1.0  0.72390  0.34160  0.92643  1.0000
  C   C1229     1.0  0.72608  0.32588  0.90935  1.0000
  C   C1230     1.0  0.75209  0.31695  0.90346  1.0000
  H   H975      1.0  0.79298  0.34457  0.94049  1.0000
  H   H976      1.0  0.74724  0.36023  0.95068  1.0000
  H   H977      1.0  0.70748  0.32074  0.90041  1.0000
  H   H978      1.0  0.75312  0.30489  0.89034  1.0000
  H   H979      1.0  0.61816  0.39999  0.67907  1.0000
  C   C1231     1.0  0.96670  0.26310  0.94051  1.0000
  C   C1232     1.0  0.97079  0.16244  0.52734  1.0000
  H   H980      1.0  0.90773  0.99505  0.96771  1.0000
  H   H981      1.0  0.54180  0.44542  0.48440  1.0000
  C   C1233     1.0  0.97247  0.30032  0.86556  1.0000
  H   H982      1.0  0.50811  0.45819  0.95447  1.0000
  H   H983      1.0  0.95869  0.27565  0.88998  1.0000
  H   H984      1.0  0.62920  0.37996  0.64468  1.0000
  H   H985      1.0  0.96339  0.19095  0.50546  1.0000
  C   C1234     1.0  0.51786  0.36927  0.52362  1.0000
  C   C1235     1.0  0.51417  0.36943  0.50023  1.0000
  C   C1236     1.0  0.97524  0.26868  0.62686  1.0000
  H   H986      1.0  0.94269  0.26395  0.54483  1.0000
  C   C1237     1.0  0.97186  0.28989  0.61683  1.0000
  S   S187      1.0  0.59829  0.39689  0.48809  1.0000
  H   H987      1.0  0.94398  0.07713  0.49399  1.0000
  H   H988      1.0  0.95712  0.25897  0.63186  1.0000
  C   C1238     1.0  0.72976  0.23904  0.93349  1.0000
  C   C1239     1.0  0.87381  0.18683  0.54445  1.0000
  C   C1240     1.0  0.87944  0.20926  0.54914  1.0000
  C   C1241     1.0  0.86797  0.21915  0.56809  1.0000
  C   C1242     1.0  0.85115  0.20660  0.58284  1.0000
  C   C1243     1.0  0.84530  0.18420  0.57807  1.0000
  C   C1244     1.0  0.85661  0.17435  0.55900  1.0000
  H   H989      1.0  0.89294  0.21902  0.53815  1.0000
  H   H990      1.0  0.87243  0.23643  0.57142  1.0000
  H   H991      1.0  0.83238  0.17431  0.58942  1.0000
  H   H992      1.0  0.85281  0.15692  0.55597  1.0000
  C   C1245     1.0  0.76538  0.22802  0.57228  1.0000
  H   H993      1.0  0.73598  0.22574  0.48674  1.0000
  H   H994      1.0  0.80601  0.22978  0.52377  1.0000
  H   H995      1.0  0.96982  0.15939  0.96299  1.0000
  C   C1246     1.0  0.84165  0.16080  0.94006  1.0000
  C   C1247     1.0  0.86846  0.16732  0.94669  1.0000
  C   C1248     1.0  0.88137  0.18607  0.93636  1.0000
  C   C1249     1.0  0.86752  0.19875  0.91953  1.0000
  C   C1250     1.0  0.84029  0.19278  0.91344  1.0000
  C   C1251     1.0  0.82750  0.17376  0.92357  1.0000
  H   H996      1.0  0.87965  0.15752  0.95930  1.0000
  H   H997      1.0  0.90243  0.19053  0.94121  1.0000
  H   H998      1.0  0.82942  0.20239  0.90048  1.0000
  H   H999      1.0  0.80674  0.16887  0.91837  1.0000
  C   C1252     1.0  0.98307  0.29781  0.72548  1.0000
  H   H1000     1.0  0.64767  0.30839  0.93230  1.0000
  H   H1001     1.0  0.76711  0.28808  0.96286  1.0000
  C   C1253     1.0  0.62373  0.33930  0.57990  1.0000
  C   C1254     1.0  0.59690  0.34803  0.57921  1.0000
  C   C1255     1.0  0.59192  0.36885  0.58818  1.0000
  C   C1256     1.0  0.61378  0.38098  0.59786  1.0000
  C   C1257     1.0  0.64071  0.37212  0.59899  1.0000
  C   C1258     1.0  0.64557  0.35132  0.58967  1.0000
  P   P44       1.0  0.66941  0.38913  0.60856  1.0000
  C   C1259     1.0  0.69913  0.37248  0.61683  1.0000
  C   C1260     1.0  0.72632  0.38014  0.61241  1.0000
  C   C1261     1.0  0.74918  0.36719  0.61900  1.0000
  C   C1262     1.0  0.74515  0.34670  0.63030  1.0000
  C   C1263     1.0  0.71822  0.33926  0.63536  1.0000
  C   C1264     1.0  0.69529  0.35219  0.62886  1.0000
  C   C1265     1.0  0.66052  0.40390  0.63340  1.0000
  C   C1266     1.0  0.74457  0.15462  0.53650  1.0000
  H   H1002     1.0  0.92768  0.15799  0.88649  1.0000
  C   C1267     1.0  0.74252  0.19026  0.49081  1.0000
  H   H1003     1.0  0.76319  0.25880  0.52001  1.0000
  C   C1268     1.0  0.92637  0.14479  0.92051  1.0000
  H   H1004     1.0  0.62789  0.32361  0.57210  1.0000
  H   H1005     1.0  0.58012  0.33906  0.57099  1.0000
  H   H1006     1.0  0.57130  0.37593  0.58672  1.0000
  H   H1007     1.0  0.66639  0.34468  0.58914  1.0000
  H   H1008     1.0  0.72999  0.39599  0.60374  1.0000
  H   H1009     1.0  0.77014  0.37271  0.61492  1.0000
  H   H1010     1.0  0.76297  0.33648  0.63484  1.0000
  H   H1011     1.0  0.71520  0.32336  0.64415  1.0000
  H   H1012     1.0  0.67457  0.34626  0.63302  1.0000
  C   C1269     1.0  0.75491  0.24761  0.92521  1.0000
  H   H1013     1.0  0.75254  0.15179  0.96848  1.0000
  C   C1270     1.0  0.53967  0.43180  0.51818  1.0000
  C   C1271     1.0  0.66907  0.43453  0.65851  1.0000
  C   C1272     1.0  0.74632  0.13410  0.54821  1.0000
  H   H1014     1.0  0.69797  0.24177  0.95837  1.0000
  H   H1015     1.0  0.96585  0.13458  0.48532  1.0000
  C   C1273     1.0  0.81035  0.18879  0.48544  1.0000
  C   C1274     1.0  0.76815  0.26526  0.93594  1.0000
  H   H1016     1.0  0.81979  0.30086  0.55611  1.0000
  C   C1275     1.0  0.97870  0.29875  0.79092  1.0000
  C   C1276     1.0  0.96292  0.04621  0.48573  1.0000
  H   H1017     1.0  0.70171  0.38404  0.56803  1.0000
  H   H1018     1.0  0.53215  0.36986  0.48944  1.0000
  C   C1277     1.0  0.83542  0.23514  0.96398  1.0000
  C   C1278     1.0  0.95558  0.21142  0.56528  1.0000
  S   S188      1.0  0.85103  0.06122  0.51695  1.0000
  C   C1279     1.0  0.76561  0.16436  0.97608  1.0000
  C   C1280     1.0  0.77324  0.27486  0.52184  1.0000
  H   H1019     1.0  0.77392  0.32797  0.49967  1.0000
  H   H1020     1.0  0.84070  0.01914  0.54032  1.0000
  H   H1021     1.0  0.71484  0.21893  0.52197  1.0000
  C   C1281     1.0  0.81398  0.21971  0.51063  1.0000
  C   C1282     1.0  0.74030  0.23952  0.57072  1.0000
  H   H1022     1.0  0.81108  0.00492  0.48050  1.0000
  S   S189      1.0  0.83823  0.12583  0.49877  1.0000
  H   H1023     1.0  0.95012  0.15547  0.52469  1.0000
  C   C1283     1.0  0.84882  0.01537  0.52397  1.0000
  C   C1284     1.0  0.97836  0.18246  0.51638  1.0000
  C   C1285     1.0  0.67649  0.28373  0.52982  1.0000
  H   H1024     1.0  0.77432  0.40703  0.77606  1.0000
  H   H1025     1.0  0.94707  0.99571  0.51053  1.0000
  C   C1286     1.0  0.94069  0.21649  0.81549  1.0000
  C   C1287     1.0  0.94988  0.24655  0.93120  1.0000
  C   C1288     1.0  0.92909  0.02679  0.51905  1.0000
  H   H1026     1.0  0.78011  0.21980  0.97184  1.0000
  H   H1027     1.0  0.65411  0.24372  0.49428  1.0000
  C   C1289     1.0  0.64013  0.39537  0.64815  1.0000
  H   H1028     1.0  0.56102  0.42606  0.51844  1.0000
  C   C1290     1.0  0.79853  0.31644  0.52779  1.0000
  C   C1291     1.0  0.70930  0.27950  0.49943  1.0000
  H   H1029     1.0  0.91524  0.01920  0.53143  1.0000
  C   C1292     1.0  0.68558  0.43541  0.54672  1.0000
  C   C1293     1.0  0.97645  0.28292  0.88138  1.0000
  H   H1030     1.0  0.53109  0.41856  0.55140  1.0000
  C   C1294     1.0  0.72953  0.22168  0.53550  1.0000
  C   C1295     1.0  0.73771  0.16948  0.48102  1.0000
  C   C1296     1.0  0.63758  0.47842  0.50191  1.0000
  H   H1031     1.0  0.91904  0.27400  0.81023  1.0000
  H   H1032     1.0  0.81633  0.06589  0.95657  1.0000
  C   C1297     1.0  0.97274  0.17248  0.92855  1.0000
  Fe  Fe94      1.0  0.86239  0.09355  0.49717  1.0000
  H   H1033     1.0  0.80953  0.43749  0.77811  1.0000
  C   C1298     1.0  0.66419  0.42883  0.58310  1.0000
  C   C1299     1.0  0.77277  0.21363  0.55532  1.0000
  C   C1300     1.0  0.73127  0.20945  0.48032  1.0000
  C   C1301     1.0  0.76672  0.29272  0.50697  1.0000
  C   C1302     1.0  0.52281  0.42775  0.53688  1.0000
  C   C1303     1.0  0.83980  0.25244  0.94812  1.0000
  C   C1304     1.0  0.49513  0.43476  0.53654  1.0000
  C   C1305     1.0  0.93746  0.15802  0.90300  1.0000
  C   C1306     1.0  0.96140  0.15912  0.94607  1.0000
  H   H1034     1.0  0.49680  0.36841  0.55549  1.0000
  H   H1035     1.0  0.77841  0.10937  0.50583  1.0000
  C   C1307     1.0  0.95372  0.24580  0.76877  1.0000
  H   H1036     1.0  0.78714  0.09779  0.94405  1.0000
  H   H1037     1.0  0.92907  0.25053  0.92518  1.0000
  C   C1308     1.0  0.95598  0.23624  0.81880  1.0000
  C   C1309     1.0  0.95993  0.22492  0.92930  1.0000
  C   C1310     1.0  0.79739  0.06941  0.96548  1.0000
  H   H1038     1.0  0.81661  0.12802  0.54857  1.0000
  C   C1311     1.0  0.94713  0.01353  0.50705  1.0000
  H   H1039     1.0  0.96812  0.24647  0.71260  1.0000
  C   C1312     1.0  0.92710  0.24293  0.72655  1.0000
  C   C1313     1.0  0.96180  0.24280  0.84083  1.0000
  C   C1314     1.0  0.95177  0.23026  0.85929  1.0000
  C   C1315     1.0  0.93556  0.21118  0.85588  1.0000
  H   H1040     1.0  0.90306  0.11454  0.61904  1.0000
  H   H1041     1.0  0.84022  0.28798  0.94188  1.0000
  H   H1042     1.0  0.83281  0.99093  0.95621  1.0000
  Fe  Fe95      1.0  0.60525  0.39014  0.96560  1.0000
  H   H1043     1.0  0.90491  0.31318  0.81151  1.0000
  C   C1316     1.0  0.65335  0.48180  0.48241  1.0000
  C   C1317     1.0  0.86917  0.00527  0.48188  1.0000
  C   C1318     1.0  0.75668  0.27407  0.95525  1.0000
  C   C1319     1.0  0.92459  0.24370  0.76718  1.0000
  S   S190      1.0  0.82605  0.13597  0.95125  1.0000
  C   C1320     1.0  0.96294  0.29533  0.68129  1.0000
  H   H1044     1.0  0.59551  0.43930  0.94594  1.0000
  H   H1045     1.0  0.91178  0.24422  0.78207  1.0000
  H   H1046     1.0  0.96859  0.18228  0.89332  1.0000
  C   C1321     1.0  0.91144  0.24205  0.74620  1.0000
  H   H1047     1.0  0.68842  0.44588  0.53171  1.0000
  C   C1322     1.0  0.73160  0.26533  0.96391  1.0000
  C   C1323     1.0  0.96927  0.24683  0.74889  1.0000
  H   H1048     1.0  0.93665  0.21057  0.79875  1.0000
  H   H1049     1.0  0.95579  0.23574  0.87625  1.0000
  H   H1050     1.0  0.92672  0.20210  0.87019  1.0000
  H   H1051     1.0  0.78534  0.07144  0.52263  1.0000
  H   H1052     1.0  0.68049  0.44956  0.66264  1.0000
  C   C1324     1.0  0.66746  0.25641  0.50143  1.0000
  C   C1325     1.0  0.69775  0.41439  0.54835  1.0000
  H   H1053     1.0  0.60846  0.30827  0.95916  1.0000
  H   H1054     1.0  0.96771  0.20577  0.64939  1.0000
  H   H1055     1.0  0.94640  0.21255  0.92190  1.0000
  P   P45       1.0  0.76611  0.19246  0.51466  1.0000
  C   C1326     1.0  0.79259  0.27771  0.53931  1.0000
  H   H1056     1.0  0.96651  0.19657  0.56083  1.0000
  C   C1327     1.0  0.76418  0.18658  0.96847  1.0000
  C   C1328     1.0  0.91213  0.13963  0.56760  1.0000
  C   C1329     1.0  0.90457  0.12332  0.58369  1.0000
  C   C1330     1.0  0.90904  0.12714  0.60652  1.0000
  C   C1331     1.0  0.92107  0.14725  0.61323  1.0000
  C   C1332     1.0  0.92849  0.16386  0.59714  1.0000
  C   C1333     1.0  0.92393  0.15984  0.57426  1.0000
  P   P46       1.0  0.94538  0.18923  0.60624  1.0000
  C   C1334     1.0  0.92933  0.19678  0.63221  1.0000
  H   H1057     1.0  0.90800  0.13456  0.91764  1.0000
  C   C1335     1.0  0.93021  0.20420  0.83399  1.0000
  H   H1058     1.0  0.64333  0.47016  0.96409  1.0000
  H   H1059     1.0  0.60983  0.39753  0.60376  1.0000
  H   H1060     1.0  0.91663  0.24288  0.71031  1.0000
  H   H1061     1.0  0.91350  0.34850  0.88497  1.0000
  C   C1336     1.0  0.94531  0.20430  0.65046  1.0000
  C   C1337     1.0  0.93229  0.21028  0.67032  1.0000
  C   C1338     1.0  0.90330  0.20892  0.67201  1.0000
  C   C1339     1.0  0.88732  0.20166  0.65381  1.0000
  C   C1340     1.0  0.90025  0.19564  0.63399  1.0000
  C   C1341     1.0  0.94226  0.21233  0.58612  1.0000
  C   C1342     1.0  0.64834  0.42621  0.67290  1.0000
  C   C1343     1.0  0.75536  0.21092  0.53639  1.0000
  C   C1344     1.0  0.94258  0.24954  0.55626  1.0000
  C   C1345     1.0  0.92970  0.25074  0.57710  1.0000
  C   C1346     1.0  0.92940  0.23224  0.59197  1.0000
  H   H1062     1.0  0.90825  0.13685  0.54990  1.0000
  H   H1063     1.0  0.89505  0.10784  0.57842  1.0000
  H   H1064     1.0  0.69376  0.29514  0.94460  1.0000
  H   H1065     1.0  0.81378  0.16415  0.52785  1.0000
  H   H1066     1.0  0.92873  0.17234  0.56146  1.0000
  H   H1067     1.0  0.72757  0.12571  0.55407  1.0000
  H   H1068     1.0  0.65024  0.43434  0.59593  1.0000
  H   H1069     1.0  0.92220  0.29862  0.69551  1.0000
  H   H1070     1.0  0.91761  0.18940  0.83138  1.0000
  H   H1071     1.0  0.71916  0.22571  0.92485  1.0000
  H   H1072     1.0  0.93987  0.30019  0.73477  1.0000
  H   H1073     1.0  0.94466  0.21620  0.68429  1.0000
  H   H1074     1.0  0.89308  0.21387  0.68722  1.0000
  H   H1075     1.0  0.86478  0.20123  0.65477  1.0000
  H   H1076     1.0  0.88748  0.19044  0.61990  1.0000
  H   H1077     1.0  0.85165  0.23941  0.50812  1.0000
  C   C1347     1.0  0.85603  0.03303  0.50889  1.0000
  H   H1078     1.0  0.83739  0.21805  0.95877  1.0000
  H   H1079     1.0  0.92000  0.26611  0.58182  1.0000
  H   H1080     1.0  0.91932  0.23381  0.60801  1.0000
  H   H1081     1.0  0.97873  0.14846  0.61411  1.0000
  C   C1348     1.0  0.89152  0.35856  0.85463  1.0000
  C   C1349     1.0  0.89359  0.35329  0.87764  1.0000
  C   C1350     1.0  0.86982  0.35318  0.89094  1.0000
  C   C1351     1.0  0.84398  0.35846  0.88129  1.0000
  C   C1352     1.0  0.84172  0.36407  0.85826  1.0000
  C   C1353     1.0  0.86565  0.36376  0.84490  1.0000
  P   P47       1.0  0.80797  0.36773  0.84512  1.0000
  C   C1354     1.0  0.80887  0.38967  0.82376  1.0000
  C   C1355     1.0  0.79954  0.34110  0.83332  1.0000
  C   C1356     1.0  0.78755  0.32417  0.84693  1.0000
  C   C1357     1.0  0.78176  0.30322  0.83825  1.0000
  C   C1358     1.0  0.78846  0.29887  0.81601  1.0000
  C   C1359     1.0  0.80137  0.31536  0.80255  1.0000
  C   C1360     1.0  0.80703  0.33640  0.81118  1.0000
  C   C1361     1.0  0.78911  0.38990  0.80618  1.0000
  C   C1362     1.0  0.78948  0.40704  0.78970  1.0000
  C   C1363     1.0  0.80928  0.42421  0.79088  1.0000
  C   C1364     1.0  0.82859  0.42436  0.80865  1.0000
  C   C1365     1.0  0.82829  0.40723  0.82514  1.0000
  C   C1366     1.0  0.78209  0.37615  0.86494  1.0000
  C   C1367     1.0  0.78914  0.39131  0.88170  1.0000
  C   C1368     1.0  0.76927  0.39759  0.89728  1.0000
  C   C1369     1.0  0.74210  0.38917  0.89593  1.0000
  C   C1370     1.0  0.73466  0.37475  0.87880  1.0000
  C   C1371     1.0  0.75447  0.36840  0.86322  1.0000
  H   H1082     1.0  0.90987  0.35766  0.84426  1.0000
  H   H1083     1.0  0.95501  0.29442  0.66416  1.0000
  H   H1084     1.0  0.87117  0.34819  0.90859  1.0000
  H   H1085     1.0  0.82570  0.35735  0.89174  1.0000
  H   H1086     1.0  0.86419  0.36680  0.82688  1.0000
  H   H1087     1.0  0.78318  0.32708  0.86439  1.0000
  H   H1088     1.0  0.77271  0.29018  0.84893  1.0000
  H   H1089     1.0  0.78445  0.28248  0.80938  1.0000
  H   H1090     1.0  0.80757  0.31153  0.78561  1.0000
  H   H1091     1.0  0.81773  0.34873  0.80072  1.0000
  H   H1092     1.0  0.77340  0.37686  0.80523  1.0000
  C   C1372     1.0  0.95606  0.24501  0.72790  1.0000
  C   C1373     1.0  0.94386  0.32622  0.79889  1.0000
  H   H1093     1.0  0.84374  0.43781  0.80970  1.0000
  H   H1094     1.0  0.84310  0.40779  0.83898  1.0000
  H   H1095     1.0  0.81008  0.39803  0.88295  1.0000
  H   H1096     1.0  0.77495  0.40878  0.91058  1.0000
  H   H1097     1.0  0.72680  0.39353  0.90831  1.0000
  H   H1098     1.0  0.71360  0.36811  0.87800  1.0000
  H   H1099     1.0  0.74817  0.35727  0.85007  1.0000
  C   C1374     1.0  0.52902  0.38876  0.95983  1.0000
  C   C1375     1.0  0.96050  0.28157  0.79812  1.0000
  H   H1100     1.0  0.78705  0.27246  0.92894  1.0000
  H   H1101     1.0  0.73475  0.25086  0.58379  1.0000
  H   H1102     1.0  0.92956  0.13522  0.95564  1.0000
  H   H1103     1.0  0.71010  0.40849  0.53464  1.0000
  C   C1376     1.0  0.62856  0.30187  0.96450  1.0000
  C   C1377     1.0  0.70140  0.28976  0.51924  1.0000
  S   S191      1.0  0.62566  0.35681  0.96785  1.0000
  P   P48       1.0  0.96965  0.25271  0.79541  1.0000
  H   H1104     1.0  0.88893  0.24095  0.74516  1.0000
  H   H1105     1.0  0.59188  0.47459  0.92358  1.0000
  H   H1106     1.0  0.69174  0.42974  0.62810  1.0000
  C   C1378     1.0  0.77929  0.31364  0.51023  1.0000
  H   H1107     1.0  0.91345  0.05988  0.52333  1.0000
  C   C1379     1.0  0.93845  0.14525  0.94197  1.0000
  C   C1380     1.0  0.95545  0.22984  0.55030  1.0000
  H   H1108     1.0  0.65838  0.45852  0.56218  1.0000
  H   H1109     1.0  0.96557  0.22895  0.53417  1.0000
  C   C1381     1.0  0.67686  0.40787  0.58506  1.0000
  H   H1110     1.0  0.76393  0.24092  0.91022  1.0000
  C   C1382     1.0  0.49418  0.36861  0.53738  1.0000
  C   C1383     1.0  0.77228  0.12452  0.55256  1.0000
  S   S192      1.0  0.62916  0.45118  0.51325  1.0000
  H   H1111     1.0  0.79754  0.26398  0.55088  1.0000
  C   C1384     1.0  0.72225  0.23615  0.55249  1.0000
  H   H1112     1.0  0.79232  0.20480  0.55690  1.0000
  H   H1113     1.0  0.72436  0.16203  0.53349  1.0000
  C   C1385     1.0  0.65057  0.30181  0.94934  1.0000
  C   C1386     1.0  0.86661  0.02777  0.48788  1.0000
  H   H1114     1.0  0.64362  0.43484  0.68814  1.0000
  C   C1387     1.0  0.85161  0.99283  0.51802  1.0000
  C   C1388     1.0  0.79916  0.20107  0.50285  1.0000
  C   C1389     1.0  0.67529  0.42333  0.63890  1.0000
  H   H1115     1.0  0.56245  0.30568  0.48781  1.0000
  H   H1116     1.0  0.71407  0.30303  0.52609  1.0000
  C   C1390     1.0  0.79478  0.15591  0.53334  1.0000
  C   C1391     1.0  0.92541  0.30918  0.80548  1.0000
  C   C1392     1.0  0.78263  0.07373  0.50458  1.0000
  C   C1393     1.0  0.66869  0.44258  0.56402  1.0000
  C   C1394     1.0  0.78098  0.08745  0.95848  1.0000
  H   H1117     1.0  0.64005  0.26255  0.52901  1.0000
  C   C1395     1.0  0.58456  0.47376  0.94077  1.0000
  C   C1396     1.0  0.76879  0.16557  0.52884  1.0000
  C   C1397     1.0  0.58677  0.45388  0.95343  1.0000
  H   H1118     1.0  0.98465  0.33425  0.78637  1.0000
  C   C1398     1.0  0.71795  0.24806  0.95257  1.0000
  C   C1399     1.0  0.79008  0.99851  0.47886  1.0000
  C   C1400     1.0  0.69316  0.40061  0.56735  1.0000
  C   C1401     1.0  0.65952  0.26703  0.52094  1.0000
  C   C1402     1.0  0.69219  0.26268  0.49064  1.0000
  H   H1119     1.0  0.77371  0.10867  0.56171  1.0000
  H   H1120     1.0  0.95901  0.27995  0.94152  1.0000
  H   H1121     1.0  0.80778  0.33268  0.53064  1.0000
  C   C1403     1.0  0.80525  0.29848  0.54226  1.0000
  C   C1404     1.0  0.96061  0.17175  0.90695  1.0000
  C   C1405     1.0  0.50482  0.39855  0.95053  1.0000
  C   C1406     1.0  0.94502  0.05940  0.49788  1.0000
  H   H1122     1.0  0.74750  0.15453  0.48778  1.0000
  C   C1407     1.0  0.92800  0.04972  0.51445  1.0000
  C   C1408     1.0  0.67675  0.29429  0.95643  1.0000
  H   H1123     1.0  0.50684  0.41214  0.93828  1.0000
  H   H1124     1.0  0.97386  0.25778  0.84371  1.0000
  C   C1409     1.0  0.83990  0.22547  0.50156  1.0000
  C   C1410     1.0  0.86138  0.98758  0.49671  1.0000
  C   C1411     1.0  0.98213  0.18446  0.61052  1.0000
  H   H1125     1.0  0.74975  0.19129  0.95509  1.0000
  H   H1126     1.0  0.78728  0.03905  0.49851  1.0000
  C   C1412     1.0  0.79647  0.13544  0.54517  1.0000
  H   H1127     1.0  0.93756  0.34345  0.79972  1.0000
  H   H1128     1.0  0.51537  0.29082  0.47942  1.0000
  C   C1413     1.0  0.52882  0.44278  0.49902  1.0000
  C   C1414     1.0  0.96426  0.02312  0.49025  1.0000
  H   H1129     1.0  0.98391  0.13590  0.55003  1.0000
  C   C1415     1.0  0.97045  0.32101  0.79152  1.0000
  C   C1416     1.0  0.50114  0.44978  0.49858  1.0000
  C   C1417     1.0  0.83690  0.27458  0.95424  1.0000
  H   H1130     1.0  0.96188  0.04057  0.96419  1.0000
  C   C1418     1.0  0.98700  0.21966  0.93678  1.0000
  H   H1131     1.0  0.78778  0.25759  0.48209  1.0000
  P   P49       1.0  0.74054  0.28900  0.48528  1.0000
  H   H1132     1.0  0.98822  0.08643  0.96160  1.0000
  C   C1419     1.0  0.82909  0.27941  0.97613  1.0000
  C   C1420     1.0  0.75733  0.09273  0.97064  1.0000
  H   H1133     1.0  0.74514  0.10711  0.96551  1.0000
  Fe  Fe96      1.0  0.62993  0.37176  0.47756  1.0000
  H   H1134     1.0  0.49282  0.45780  0.48347  1.0000
  C   C1421     1.0  0.52611  0.37095  0.97539  1.0000
  C   C1422     1.0  0.84147  0.99165  0.97305  1.0000
  C   C1423     1.0  0.78388  0.05532  0.49074  1.0000
  H   H1135     1.0  0.69410  0.32135  0.48555  1.0000
  H   H1136     1.0  0.54122  0.29939  0.97279  1.0000
  H   H1137     1.0  0.79934  0.17440  0.47911  1.0000
  H   H1138     1.0  0.84280  0.02777  0.97272  1.0000
  C   C1424     1.0  0.98401  0.12756  0.47775  1.0000
  C   C1425     1.0  0.77905  0.09511  0.49513  1.0000
  H   H1139     1.0  0.57062  0.26559  0.97527  1.0000
  H   H1140     1.0  0.87146  0.21696  0.47787  1.0000
  C   C1426     1.0  0.64797  0.48237  0.97665  1.0000
  C   C1427     1.0  0.57765  0.45265  0.97570  1.0000
  C   C1428     1.0  0.97964  0.81351  0.98930  1.0000
  Fe  Fe97      1.0  0.86027  0.86708  0.01051  1.0000
  S   S193      1.0  0.86818  0.85769  0.04757  1.0000
  C   C1429     1.0  0.71643  0.56576  0.02870  1.0000
  H   H1141     1.0  0.93051  0.80981  0.39361  1.0000
  S   S194      1.0  0.88871  0.85403  0.45986  1.0000
  Fe  Fe98      1.0  0.87553  0.73855  0.12396  1.0000
  S   S195      1.0  0.88173  0.71254  0.09816  1.0000
  S   S196      1.0  0.88163  0.77612  0.11860  1.0000
  Fe  Fe99      1.0  0.86973  0.70408  0.16321  1.0000
  S   S197      1.0  0.87489  0.67577  0.13917  1.0000
  S   S198      1.0  0.86870  0.69325  0.20103  1.0000
  Fe  Fe100     1.0  0.91000  0.69628  0.12415  1.0000
  S   S199      1.0  0.95145  0.67983  0.11615  1.0000
  Fe  Fe101     1.0  0.84563  0.69404  0.11497  1.0000
  S   S200      1.0  0.81393  0.67728  0.09022  1.0000
  S   S201      1.0  0.90621  0.72334  0.14900  1.0000
  S   S202      1.0  0.83817  0.72124  0.13998  1.0000
  C   C1430     1.0  0.94783  0.76022  0.22320  1.0000
  S   S203      1.0  0.63019  0.63870  0.02945  1.0000
  Fe  Fe102     1.0  0.64495  0.58358  0.99943  1.0000
  S   S204      1.0  0.63972  0.58577  0.03681  1.0000
  C   C1431     1.0  0.72458  0.52605  0.03048  1.0000
  Fe  Fe103     1.0  0.60334  0.60788  0.02815  1.0000
  S   S205      1.0  0.56168  0.60300  0.04609  1.0000
  Fe  Fe104     1.0  0.66759  0.61681  0.03470  1.0000
  S   S206      1.0  0.69853  0.62702  0.06330  1.0000
  S   S207      1.0  0.67505  0.61336  0.99738  1.0000
  Fe  Fe105     1.0  0.86545  0.72628  0.33777  1.0000
  S   S208      1.0  0.88068  0.69528  0.35650  1.0000
  S   S209      1.0  0.86702  0.73559  0.29960  1.0000
  Fe  Fe106     1.0  0.85362  0.74965  0.38280  1.0000
  S   S210      1.0  0.86849  0.72036  0.40355  1.0000
  S   S211      1.0  0.83352  0.77850  0.40051  1.0000
  Fe  Fe107     1.0  0.90389  0.71919  0.37889  1.0000
  S   S212      1.0  0.94789  0.71915  0.39421  1.0000
  Fe  Fe108     1.0  0.84350  0.69945  0.37967  1.0000
  S   S213      1.0  0.81642  0.67028  0.39426  1.0000
  S   S214      1.0  0.89014  0.74995  0.35960  1.0000
  S   S215      1.0  0.82710  0.72897  0.35950  1.0000
  H   H1142     1.0  0.67482  0.48671  0.02935  1.0000
  S   S216      1.0  0.64057  0.60790  0.44797  1.0000
  H   H1143     1.0  0.92168  0.65072  0.08401  1.0000
  H   H1144     1.0  0.76399  0.55189  0.15711  1.0000
  C   C1432     1.0  0.54176  0.55909  0.43569  1.0000
  H   H1145     1.0  0.55460  0.50592  0.97956  1.0000
  Fe  Fe109     1.0  0.66827  0.63393  0.46368  1.0000
  S   S217      1.0  0.69867  0.65836  0.44490  1.0000
  C   C1433     1.0  0.94673  0.78066  0.15417  1.0000
  C   C1434     1.0  0.70004  0.54351  0.06083  1.0000
  H   H1146     1.0  0.71830  0.58179  0.01991  1.0000
  H   H1147     1.0  0.74385  0.53620  0.08896  1.0000
  C   C1435     1.0  0.82525  0.69210  0.47325  1.0000
  C   C1436     1.0  0.78370  0.66751  0.40853  1.0000
  C   C1437     1.0  0.76432  0.68475  0.40888  1.0000
  C   C1438     1.0  0.73867  0.68165  0.42015  1.0000
  C   C1439     1.0  0.73173  0.66121  0.43115  1.0000
  C   C1440     1.0  0.75108  0.64393  0.43075  1.0000
  C   C1441     1.0  0.77666  0.64701  0.41937  1.0000
  H   H1148     1.0  0.76902  0.70039  0.40018  1.0000
  H   H1149     1.0  0.72394  0.69514  0.42017  1.0000
  H   H1150     1.0  0.74640  0.62814  0.43920  1.0000
  H   H1151     1.0  0.79125  0.63342  0.41913  1.0000
  C   C1442     1.0  0.98038  0.71446  0.38107  1.0000
  C   C1443     1.0  0.95486  0.71641  0.23955  1.0000
  C   C1444     1.0  0.66555  0.51420  0.08897  1.0000
  C   C1445     1.0  0.66041  0.51463  0.00864  1.0000
  C   C1446     1.0  0.86838  0.70554  0.22823  1.0000
  C   C1447     1.0  0.86762  0.72861  0.23108  1.0000
  C   C1448     1.0  0.86746  0.73737  0.25296  1.0000
  C   C1449     1.0  0.86784  0.72330  0.27241  1.0000
  C   C1450     1.0  0.86882  0.70023  0.26957  1.0000
  C   C1451     1.0  0.86913  0.69148  0.24769  1.0000
  H   H1152     1.0  0.86703  0.73972  0.21642  1.0000
  H   H1153     1.0  0.86677  0.75523  0.25480  1.0000
  H   H1154     1.0  0.86920  0.68912  0.28423  1.0000
  H   H1155     1.0  0.86978  0.67362  0.24583  1.0000
  C   C1452     1.0  0.78097  0.66450  0.08262  1.0000
  C   C1453     1.0  0.75904  0.66160  0.09787  1.0000
  C   C1454     1.0  0.73401  0.65062  0.09145  1.0000
  C   C1455     1.0  0.72992  0.64264  0.06953  1.0000
  C   C1456     1.0  0.75157  0.64597  0.05409  1.0000
  C   C1457     1.0  0.77683  0.65663  0.06064  1.0000
  H   H1156     1.0  0.76131  0.66780  0.11468  1.0000
  H   H1157     1.0  0.71762  0.64830  0.10364  1.0000
  H   H1158     1.0  0.74914  0.63991  0.03722  1.0000
  H   H1159     1.0  0.79337  0.65874  0.04854  1.0000
  C   C1458     1.0  0.96608  0.77948  0.13688  1.0000
  C   C1459     1.0  0.52836  0.60547  0.03277  1.0000
  C   C1460     1.0  0.52532  0.60811  0.00939  1.0000
  H   H1160     1.0  0.94864  0.76737  0.09134  1.0000
  H   H1161     1.0  0.54353  0.60846  0.99888  1.0000
  H   H1162     1.0  0.81033  0.78570  0.02410  1.0000
  C   C1461     1.0  0.52090  0.67492  0.97924  1.0000
  C   C1462     1.0  0.48928  0.54142  0.46884  1.0000
  H   H1163     1.0  0.86254  0.95779  0.01661  1.0000
  C   C1463     1.0  0.93787  0.72080  0.22072  1.0000
  H   H1164     1.0  0.74818  0.72297  0.46389  1.0000
  C   C1464     1.0  0.52910  0.62153  0.45994  1.0000
  H   H1165     1.0  0.96437  0.83922  0.40407  1.0000
  C   C1465     1.0  0.81376  0.76126  0.46161  1.0000
  H   H1166     1.0  0.97018  0.72270  0.13301  1.0000
  H   H1167     1.0  0.93236  0.74558  0.28342  1.0000
  C   C1466     1.0  0.72693  0.54667  0.01909  1.0000
  H   H1168     1.0  0.96384  0.70832  0.34804  1.0000
  C   C1467     1.0  0.52627  0.66162  0.02452  1.0000
  C   C1468     1.0  0.87297  0.83141  0.44576  1.0000
  C   C1469     1.0  0.89001  0.81718  0.43364  1.0000
  C   C1470     1.0  0.87839  0.80014  0.42054  1.0000
  C   C1471     1.0  0.84952  0.79769  0.41884  1.0000
  C   C1472     1.0  0.83254  0.81173  0.43112  1.0000
  C   C1473     1.0  0.84414  0.82826  0.44486  1.0000
  H   H1169     1.0  0.91230  0.81962  0.43410  1.0000
  H   H1170     1.0  0.89162  0.78936  0.41121  1.0000
  H   H1171     1.0  0.81028  0.81027  0.42932  1.0000
  H   H1172     1.0  0.83077  0.83927  0.45381  1.0000
  C   C1474     1.0  0.98441  0.70014  0.28507  1.0000
  Fe  Fe110     1.0  0.63660  0.63442  0.99237  1.0000
  C   C1475     1.0  0.87127  0.83350  0.06556  1.0000
  C   C1476     1.0  0.86677  0.81143  0.05879  1.0000
  C   C1477     1.0  0.86970  0.79328  0.07461  1.0000
  C   C1478     1.0  0.87734  0.79723  0.09712  1.0000
  C   C1479     1.0  0.88225  0.81922  0.10342  1.0000
  C   C1480     1.0  0.87918  0.83708  0.08791  1.0000
  H   H1173     1.0  0.86079  0.80840  0.04154  1.0000
  H   H1174     1.0  0.86593  0.77637  0.06947  1.0000
  H   H1175     1.0  0.88813  0.82256  0.12062  1.0000
  H   H1176     1.0  0.88281  0.85391  0.09339  1.0000
  H   H1177     1.0  0.77421  0.79986  0.45459  1.0000
  C   C1481     1.0  0.83679  0.78549  0.32007  1.0000
  C   C1482     1.0  0.83120  0.79428  0.29852  1.0000
  C   C1483     1.0  0.80991  0.80976  0.29525  1.0000
  C   C1484     1.0  0.79408  0.81631  0.31353  1.0000
  C   C1485     1.0  0.79931  0.80717  0.33521  1.0000
  C   C1486     1.0  0.82084  0.79174  0.33827  1.0000
  P   P50       1.0  0.77887  0.81497  0.35909  1.0000
  C   C1487     1.0  0.79832  0.83389  0.37669  1.0000
  C   C1488     1.0  0.74766  0.82874  0.34908  1.0000
  C   C1489     1.0  0.74856  0.85152  0.34289  1.0000
  C   C1490     1.0  0.72459  0.86225  0.33485  1.0000
  C   C1491     1.0  0.69958  0.85032  0.33285  1.0000
  C   C1492     1.0  0.69856  0.82763  0.33882  1.0000
  C   C1493     1.0  0.72250  0.81683  0.34686  1.0000
  C   C1494     1.0  0.78419  0.84791  0.39118  1.0000
  C   C1495     1.0  0.79904  0.86259  0.40484  1.0000
  C   C1496     1.0  0.82807  0.86345  0.40411  1.0000
  C   C1497     1.0  0.84229  0.84958  0.38979  1.0000
  C   C1498     1.0  0.82753  0.83482  0.37617  1.0000
  C   C1499     1.0  0.76878  0.79010  0.37510  1.0000
  C   C1500     1.0  0.76562  0.76962  0.36439  1.0000
  C   C1501     1.0  0.75741  0.75046  0.37667  1.0000
  C   C1502     1.0  0.75198  0.75162  0.39964  1.0000
  C   C1503     1.0  0.75491  0.77190  0.41041  1.0000
  C   C1504     1.0  0.76321  0.79109  0.39820  1.0000
  H   H1178     1.0  0.85332  0.77356  0.32269  1.0000
  H   H1179     1.0  0.84329  0.78889  0.28440  1.0000
  H   H1180     1.0  0.80558  0.81656  0.27850  1.0000
  H   H1181     1.0  0.77769  0.82825  0.31052  1.0000
  H   H1182     1.0  0.82523  0.78438  0.35472  1.0000
  H   H1183     1.0  0.76787  0.86093  0.34410  1.0000
  H   H1184     1.0  0.72542  0.87982  0.33008  1.0000
  H   H1185     1.0  0.68103  0.85864  0.32655  1.0000
  H   H1186     1.0  0.67920  0.81835  0.33713  1.0000
  H   H1187     1.0  0.72127  0.79921  0.35120  1.0000
  H   H1188     1.0  0.76171  0.84736  0.39207  1.0000
  H   H1189     1.0  0.78814  0.87312  0.41625  1.0000
  H   H1190     1.0  0.83967  0.87433  0.41517  1.0000
  H   H1191     1.0  0.86484  0.84970  0.38986  1.0000
  H   H1192     1.0  0.83913  0.82385  0.36576  1.0000
  H   H1193     1.0  0.76966  0.76833  0.34659  1.0000
  H   H1194     1.0  0.75562  0.73463  0.36842  1.0000
  C   C1505     1.0  0.96736  0.75914  0.08603  1.0000
  Fe  Fe111     1.0  0.84806  0.90858  0.98026  1.0000
  H   H1195     1.0  0.76572  0.80652  0.40692  1.0000
  C   C1506     1.0  0.86924  0.54558  0.14411  1.0000
  C   C1507     1.0  0.85533  0.53796  0.16344  1.0000
  C   C1508     1.0  0.83493  0.55111  0.17289  1.0000
  C   C1509     1.0  0.82861  0.57198  0.16314  1.0000
  C   C1510     1.0  0.84312  0.58003  0.14414  1.0000
  C   C1511     1.0  0.86297  0.56645  0.13434  1.0000
  P   P51       1.0  0.83361  0.60624  0.13081  1.0000
  C   C1512     1.0  0.80398  0.60032  0.11298  1.0000
  C   C1513     1.0  0.82576  0.62702  0.15105  1.0000
  C   C1514     1.0  0.80951  0.64536  0.14438  1.0000
  C   C1515     1.0  0.80427  0.66227  0.15937  1.0000
  C   C1516     1.0  0.81562  0.66115  0.18109  1.0000
  C   C1517     1.0  0.83255  0.64326  0.18770  1.0000
  C   C1518     1.0  0.83782  0.62630  0.17269  1.0000
  C   C1519     1.0  0.80790  0.59204  0.09139  1.0000
  C   C1520     1.0  0.78503  0.58833  0.07718  1.0000
  C   C1521     1.0  0.75817  0.59244  0.08460  1.0000
  C   C1522     1.0  0.75403  0.59970  0.10641  1.0000
  C   C1523     1.0  0.77682  0.60349  0.12064  1.0000
  C   C1524     1.0  0.86189  0.61860  0.11494  1.0000
  C   C1525     1.0  0.88918  0.61793  0.12363  1.0000
  C   C1526     1.0  0.90512  0.64141  0.09238  1.0000
  C   C1527     1.0  0.87796  0.64247  0.08387  1.0000
  C   C1528     1.0  0.85642  0.63116  0.09511  1.0000
  H   H1196     1.0  0.88481  0.53527  0.13661  1.0000
  H   H1197     1.0  0.86025  0.52180  0.17100  1.0000
  H   H1198     1.0  0.82398  0.54511  0.18776  1.0000
  H   H1199     1.0  0.81243  0.58185  0.17040  1.0000
  H   H1200     1.0  0.87353  0.57191  0.11910  1.0000
  H   H1201     1.0  0.80155  0.64687  0.12734  1.0000
  H   H1202     1.0  0.79216  0.67661  0.15386  1.0000
  H   H1203     1.0  0.81224  0.67459  0.19253  1.0000
  H   H1204     1.0  0.84235  0.64310  0.20422  1.0000
  H   H1205     1.0  0.85185  0.61308  0.17780  1.0000
  H   H1206     1.0  0.82865  0.58905  0.08531  1.0000
  H   H1207     1.0  0.78814  0.58283  0.06019  1.0000
  H   H1208     1.0  0.74057  0.59053  0.07330  1.0000
  H   H1209     1.0  0.73317  0.60315  0.11198  1.0000
  H   H1210     1.0  0.77316  0.60939  0.13737  1.0000
  H   H1211     1.0  0.89366  0.60936  0.13951  1.0000
  H   H1212     1.0  0.87331  0.65276  0.06903  1.0000
  H   H1213     1.0  0.83537  0.63303  0.08871  1.0000
  C   C1529     1.0  0.92539  0.90593  0.04733  1.0000
  H   H1214     1.0  0.71472  0.97531  0.47430  1.0000
  C   C1530     1.0  0.98460  0.87109  0.43894  1.0000
  S   S218      1.0  0.60745  0.60484  0.99101  1.0000
  H   H1215     1.0  0.92655  0.83628  0.05252  1.0000
  C   C1531     1.0  0.93491  0.92331  0.03311  1.0000
  C   C1532     1.0  0.98884  0.72685  0.07030  1.0000
  C   C1533     1.0  0.97303  0.79861  0.12389  1.0000
  H   H1216     1.0  0.94770  0.91994  0.98129  1.0000
  C   C1534     1.0  0.63527  0.48689  0.07139  1.0000
  H   H1217     1.0  0.79768  0.95684  0.01932  1.0000
  H   H1218     1.0  0.59765  0.50398  0.00767  1.0000
  H   H1219     1.0  0.94033  0.86622  0.44143  1.0000
  H   H1220     1.0  0.59494  0.59109  0.41486  1.0000
  C   C1535     1.0  0.96821  0.84244  0.04090  1.0000
  C   C1536     1.0  0.93977  0.93656  0.97808  1.0000
  H   H1221     1.0  0.67170  0.50598  0.45915  1.0000
  C   C1537     1.0  0.85823  0.97295  0.00696  1.0000
  C   C1538     1.0  0.49776  0.67608  0.99342  1.0000
  C   C1539     1.0  0.53536  0.55235  0.99113  1.0000
  H   H1222     1.0  0.66532  0.52699  0.02093  1.0000
  C   C1540     1.0  0.96041  0.78454  0.45404  1.0000
  H   H1223     1.0  0.89925  0.96915  0.44521  1.0000
  H   H1224     1.0  0.94042  0.76563  0.16333  1.0000
  H   H1225     1.0  0.93679  0.87881  0.06986  1.0000
  H   H1226     1.0  0.90322  0.90282  0.04916  1.0000
  C   C1541     1.0  0.75647  0.76189  0.98127  1.0000
  H   H1227     1.0  0.98655  0.68869  0.16597  1.0000
  C   C1542     1.0  0.58443  0.57736  0.42352  1.0000
  H   H1228     1.0  0.91975  0.93373  0.02438  1.0000
  C   C1543     1.0  0.64953  0.52165  0.98773  1.0000
  C   C1544     1.0  0.98886  0.83290  0.46738  1.0000
  H   H1229     1.0  0.79706  0.97625  0.05562  1.0000
  C   C1545     1.0  0.57532  0.48366  0.46640  1.0000
  H   H1230     1.0  0.84209  0.69337  0.46124  1.0000
  C   C1546     1.0  0.80321  0.67726  0.46963  1.0000
  H   H1231     1.0  0.97453  0.76978  0.25058  1.0000
  C   C1547     1.0  0.94982  0.76510  0.44454  1.0000
  C   C1548     1.0  0.93876  0.66397  0.20036  1.0000
  C   C1549     1.0  0.96484  0.75593  0.24208  1.0000
  C   C1550     1.0  0.97537  0.74275  0.47198  1.0000
  H   H1232     1.0  0.71389  0.55706  0.16508  1.0000
  H   H1233     1.0  0.92050  0.74585  0.19830  1.0000
  Fe  Fe112     1.0  0.60449  0.62217  0.46656  1.0000
  C   C1551     1.0  0.97808  0.97463  0.02926  1.0000
  C   C1552     1.0  0.66637  0.58799  0.31415  1.0000
  C   C1553     1.0  0.64452  0.59895  0.30293  1.0000
  C   C1554     1.0  0.63154  0.61685  0.31291  1.0000
  C   C1555     1.0  0.64020  0.62365  0.33421  1.0000
  C   C1556     1.0  0.66153  0.61224  0.34589  1.0000
  C   C1557     1.0  0.67506  0.59476  0.33546  1.0000
  P   P52       1.0  0.67386  0.62153  0.37284  1.0000
  C   C1558     1.0  0.64769  0.63709  0.38693  1.0000
  C   C1559     1.0  0.68096  0.59843  0.39210  1.0000
  C   C1560     1.0  0.66855  0.57740  0.38909  1.0000
  C   C1561     1.0  0.67376  0.55988  0.40459  1.0000
  C   C1562     1.0  0.69094  0.56335  0.42331  1.0000
  C   C1563     1.0  0.70254  0.58442  0.42680  1.0000
  C   C1564     1.0  0.69738  0.60194  0.41135  1.0000
  C   C1565     1.0  0.65516  0.65577  0.39940  1.0000
  C   C1566     1.0  0.63528  0.66649  0.41210  1.0000
  C   C1567     1.0  0.60781  0.65867  0.41241  1.0000
  C   C1568     1.0  0.60019  0.64009  0.40002  1.0000
  C   C1569     1.0  0.62010  0.62917  0.38751  1.0000
  C   C1570     1.0  0.70467  0.63812  0.36707  1.0000
  C   C1571     1.0  0.70214  0.66000  0.35829  1.0000
  C   C1572     1.0  0.72592  0.67281  0.35333  1.0000
  C   C1573     1.0  0.75234  0.66373  0.35673  1.0000
  C   C1574     1.0  0.75499  0.64179  0.36490  1.0000
  C   C1575     1.0  0.73129  0.62896  0.36998  1.0000
  H   H1234     1.0  0.67676  0.57436  0.30627  1.0000
  H   H1235     1.0  0.63785  0.59374  0.28639  1.0000
  H   H1236     1.0  0.61492  0.62559  0.30404  1.0000
  H   H1237     1.0  0.63036  0.63790  0.34141  1.0000
  H   H1238     1.0  0.69241  0.58641  0.34377  1.0000
  H   H1239     1.0  0.65456  0.57454  0.37508  1.0000
  H   H1240     1.0  0.66412  0.54367  0.40238  1.0000
  H   H1241     1.0  0.69468  0.54985  0.43548  1.0000
  H   H1242     1.0  0.71497  0.58729  0.44180  1.0000
  H   H1243     1.0  0.70574  0.61836  0.41462  1.0000
  H   H1244     1.0  0.67653  0.66159  0.40010  1.0000
  H   H1245     1.0  0.64149  0.68036  0.42236  1.0000
  H   H1246     1.0  0.59255  0.66656  0.42278  1.0000
  H   H1247     1.0  0.57901  0.63374  0.40087  1.0000
  H   H1248     1.0  0.61413  0.61426  0.37877  1.0000
  H   H1249     1.0  0.68180  0.66719  0.35540  1.0000
  H   H1250     1.0  0.72393  0.68981  0.34694  1.0000
  H   H1251     1.0  0.77087  0.67372  0.35335  1.0000
  H   H1252     1.0  0.77558  0.63494  0.36778  1.0000
  H   H1253     1.0  0.73392  0.61199  0.37621  1.0000
  C   C1576     1.0  0.65926  0.50368  0.47411  1.0000
  C   C1577     1.0  0.71131  0.52445  0.05131  1.0000
  C   C1578     1.0  0.98249  0.70948  0.35831  1.0000
  H   H1254     1.0  0.98289  0.88601  0.42833  1.0000
  C   C1579     1.0  0.70035  0.54949  0.13144  1.0000
  C   C1580     1.0  0.76641  0.73378  0.46322  1.0000
  H   H1255     1.0  0.53726  0.52929  0.06882  1.0000
  C   C1581     1.0  0.95689  0.81948  0.07377  1.0000
  C   C1582     1.0  0.70848  0.54370  0.10977  1.0000
  H   H1256     1.0  0.64480  0.51907  0.05670  1.0000
  H   H1257     1.0  0.52824  0.65583  0.04192  1.0000
  C   C1583     1.0  0.94224  0.82032  0.14664  1.0000
  C   C1584     1.0  0.50507  0.62961  0.44879  1.0000
  H   H1258     1.0  0.50633  0.60300  0.06418  1.0000
  C   C1585     1.0  0.98815  0.71396  0.12718  1.0000
  H   H1259     1.0  0.97492  0.76351  0.13326  1.0000
  H   H1260     1.0  0.54343  0.58954  0.41555  1.0000
  C   C1586     1.0  0.78685  0.73040  0.44719  1.0000
  C   C1587     1.0  0.81032  0.74426  0.44624  1.0000
  H   H1261     1.0  0.75693  0.83613  0.44012  1.0000
  C   C1588     1.0  0.54590  0.48762  0.43322  1.0000
  H   H1262     1.0  0.78471  0.71697  0.43557  1.0000
  H   H1263     1.0  0.82591  0.74185  0.43352  1.0000
  C   C1589     1.0  0.58386  0.50941  0.02069  1.0000
  H   H1264     1.0  0.94141  0.66668  0.31682  1.0000
  C   C1590     1.0  0.96694  0.78924  0.02087  1.0000
  C   C1591     1.0  0.79543  0.77900  0.01216  1.0000
  H   H1265     1.0  0.91664  0.66013  0.20087  1.0000
  H   H1266     1.0  0.94484  0.72974  0.07600  1.0000
  C   C1592     1.0  0.69914  0.68134  0.98407  1.0000
  H   H1267     1.0  0.77865  0.54145  0.11899  1.0000
  C   C1593     1.0  0.65743  0.56312  0.09088  1.0000
  H   H1268     1.0  0.94632  0.70559  0.30336  1.0000
  C   C1594     1.0  0.76494  0.83455  0.45717  1.0000
  H   H1269     1.0  0.68289  0.50377  0.12138  1.0000
  C   C1595     1.0  0.62862  0.55884  0.08942  1.0000
  C   C1596     1.0  0.60966  0.57623  0.09130  1.0000
  C   C1597     1.0  0.61920  0.59793  0.09475  1.0000
  C   C1598     1.0  0.64770  0.60221  0.09685  1.0000
  C   C1599     1.0  0.66672  0.58489  0.09507  1.0000
  H   H1270     1.0  0.91872  0.80173  0.17167  1.0000
  H   H1271     1.0  0.93166  0.62923  0.11925  1.0000
  C   C1600     1.0  0.91073  0.62917  0.11226  1.0000
  H   H1272     1.0  0.51930  0.55877  0.43549  1.0000
  H   H1273     1.0  0.93673  0.67871  0.16689  1.0000
  C   C1601     1.0  0.66959  0.49934  0.10737  1.0000
  P   P53       1.0  0.68259  0.54118  0.08765  1.0000
  H   H1274     1.0  0.78020  0.97575  0.98460  1.0000
  H   H1275     1.0  0.98712  0.71004  0.06423  1.0000
  H   H1276     1.0  0.62053  0.54232  0.08651  1.0000
  H   H1277     1.0  0.58750  0.57310  0.08953  1.0000
  H   H1278     1.0  0.60450  0.61148  0.09536  1.0000
  H   H1279     1.0  0.65518  0.61913  0.09910  1.0000
  H   H1280     1.0  0.68874  0.58870  0.09624  1.0000
  H   H1281     1.0  0.91556  0.96736  0.40575  1.0000
  H   H1282     1.0  0.95655  0.69941  0.24587  1.0000
  C   C1602     1.0  0.96504  0.73790  0.07707  1.0000
  H   H1283     1.0  0.92669  0.70734  0.21276  1.0000
  C   C1603     1.0  0.77485  0.81400  0.46543  1.0000
  C   C1604     1.0  0.98428  0.66438  0.21841  1.0000
  C   C1605     1.0  0.94993  0.95463  0.99036  1.0000
  H   H1284     1.0  0.56888  0.65445  0.01682  1.0000
  H   H1285     1.0  0.80315  0.66703  0.45493  1.0000
  C   C1606     1.0  0.55434  0.49520  0.45439  1.0000
  C   C1607     1.0  0.57206  0.53730  0.04746  1.0000
  S   S219      1.0  0.56244  0.62960  0.44957  1.0000
  P   P54       1.0  0.97575  0.95004  0.01237  1.0000
  C   C1608     1.0  0.97097  0.87703  0.98504  1.0000
  C   C1609     1.0  0.92869  0.97493  0.41840  1.0000
  C   C1610     1.0  0.97832  0.68009  0.18073  1.0000
  C   C1611     1.0  0.96868  0.73396  0.25030  1.0000
  H   H1286     1.0  0.94690  0.77151  0.38633  1.0000
  H   H1287     1.0  0.57565  0.55360  0.05442  1.0000
  H   H1288     1.0  0.49801  0.53874  0.00549  1.0000
  C   C1612     1.0  0.54649  0.66727  0.98771  1.0000
  C   C1613     1.0  0.94847  0.83311  0.05554  1.0000
  C   C1614     1.0  0.66572  0.49177  0.01331  1.0000
  H   H1289     1.0  0.49665  0.61289  0.98152  1.0000
  H   H1290     1.0  0.96239  0.98215  0.39562  1.0000
  H   H1291     1.0  0.94459  0.77720  0.21712  1.0000
  H   H1292     1.0  0.67496  0.69853  0.00818  1.0000
  C   C1615     1.0  0.58641  0.54377  0.44699  1.0000
  C   C1616     1.0  0.97822  0.65562  0.30018  1.0000
  C   C1617     1.0  0.77999  0.75980  0.01778  1.0000
  C   C1618     1.0  0.74851  0.54946  0.14399  1.0000
  H   H1293     1.0  0.54520  0.55492  0.00736  1.0000
  H   H1294     1.0  0.94377  0.83269  0.46629  1.0000
  C   C1619     1.0  0.54918  0.66072  0.01035  1.0000
  H   H1295     1.0  0.94691  0.65130  0.23401  1.0000
  C   C1620     1.0  0.97998  0.76720  0.33135  1.0000
  C   C1621     1.0  0.93456  0.80101  0.15888  1.0000
  C   C1622     1.0  0.69007  0.70028  0.99482  1.0000
  C   C1623     1.0  0.95585  0.65902  0.21899  1.0000
  H   H1296     1.0  0.95139  0.78294  0.03258  1.0000
  C   C1624     1.0  0.96155  0.81917  0.12927  1.0000
  C   C1625     1.0  0.73580  0.98178  0.47548  1.0000
  H   H1297     1.0  0.94304  0.78295  0.34322  1.0000
  H   H1298     1.0  0.94113  0.81197  0.08459  1.0000
  C   C1626     1.0  0.93495  0.76512  0.31291  1.0000
  C   C1627     1.0  0.73686  0.54057  0.10548  1.0000
  H   H1299     1.0  0.93569  0.76611  0.43020  1.0000
  H   H1300     1.0  0.93803  0.81011  0.00215  1.0000
  C   C1628     1.0  0.84680  0.97159  0.98524  1.0000
  C   C1629     1.0  0.95940  0.80459  0.00377  1.0000
  H   H1301     1.0  0.95445  0.80031  0.44649  1.0000
  C   C1630     1.0  0.50062  0.66911  0.01611  1.0000
  C   C1631     1.0  0.94436  0.89234  0.05900  1.0000
  C   C1632     1.0  0.97293  0.89609  0.05646  1.0000
  H   H1302     1.0  0.93258  0.83605  0.15015  1.0000
  C   C1633     1.0  0.95872  0.67147  0.30609  1.0000
  C   C1634     1.0  0.96168  0.69362  0.29849  1.0000
  C   C1635     1.0  0.97844  0.78331  0.47283  1.0000
  C   C1636     1.0  0.95187  0.77287  0.33033  1.0000
  C   C1637     1.0  0.93838  0.97584  0.98635  1.0000
  H   H1303     1.0  0.69509  0.57920  0.05646  1.0000
  S   S220      1.0  0.88687  0.89594  0.99752  1.0000
  H   H1304     1.0  0.50723  0.64046  0.43404  1.0000
  C   C1638     1.0  0.54496  0.50302  0.04569  1.0000
  H   H1305     1.0  0.73657  0.54782  0.00268  1.0000
  H   H1306     1.0  0.67858  0.55198  0.13512  1.0000
  C   C1639     1.0  0.70308  0.56420  0.04948  1.0000
  H   H1307     1.0  0.70948  0.50826  0.05973  1.0000
  S   S221      1.0  0.65821  0.54976  0.47375  1.0000
  C   C1640     1.0  0.72031  0.55239  0.14846  1.0000
  C   C1641     1.0  0.59991  0.56087  0.43482  1.0000
  C   C1642     1.0  0.50428  0.60505  0.04609  1.0000
  H   H1308     1.0  0.97609  0.63853  0.30640  1.0000
  C   C1643     1.0  0.64826  0.50782  0.07102  1.0000
  C   C1644     1.0  0.96268  0.84085  0.46041  1.0000
  C   C1645     1.0  0.96361  0.92701  0.03016  1.0000
  C   C1646     1.0  0.75676  0.54350  0.12253  1.0000
  H   H1309     1.0  0.62246  0.56162  0.43473  1.0000
  C   C1647     1.0  0.95743  0.74423  0.45337  1.0000
  H   H1310     1.0  0.96691  0.83420  0.11968  1.0000
  C   C1648     1.0  0.97157  0.82254  0.40107  1.0000
  C   C1649     1.0  0.55023  0.52369  0.05534  1.0000
  S   S222      1.0  0.86867  0.84540  0.98128  1.0000
  C   C1650     1.0  0.93434  0.74263  0.21254  1.0000
  C   C1651     1.0  0.98531  0.81546  0.07770  1.0000
  C   C1652     1.0  0.55539  0.57644  0.42390  1.0000
  C   C1653     1.0  0.56094  0.49620  0.02755  1.0000
  C   C1654     1.0  0.50834  0.54351  0.98997  1.0000
  C   C1655     1.0  0.95001  0.67457  0.18127  1.0000
  C   C1656     1.0  0.95244  0.80597  0.39510  1.0000
  C   C1657     1.0  0.96165  0.78451  0.39088  1.0000
  H   H1311     1.0  0.73234  0.51118  0.02285  1.0000
  H   H1312     1.0  0.49698  0.48718  0.45477  1.0000
  C   C1658     1.0  0.91945  0.97602  0.44054  1.0000
  C   C1659     1.0  0.55722  0.54284  0.44770  1.0000
  H   H1313     1.0  0.74577  0.73675  0.40916  1.0000
  H   H1314     1.0  0.52842  0.49246  0.05237  1.0000
  S   S223      1.0  0.82038  0.88127  0.99553  1.0000
  H   H1315     1.0  0.93974  0.96749  0.04709  1.0000
  C   C1660     1.0  0.58916  0.52997  0.03040  1.0000
  H   H1316     1.0  0.96145  0.85276  0.02668  1.0000
  H   H1317     1.0  0.75120  0.77264  0.42830  1.0000
  H   H1318     1.0  0.94950  0.72923  0.44562  1.0000
  C   C1661     1.0  0.97453  0.74636  0.29708  1.0000
  H   H1319     1.0  0.69095  0.66506  0.98909  1.0000
  C   C1662     1.0  0.70004  0.72138  0.98804  1.0000
  H   H1320     1.0  0.74905  0.73634  0.00725  1.0000
  C   C1663     1.0  0.94614  0.75187  0.29640  1.0000
  H   H1321     1.0  0.83212  0.77187  0.46050  1.0000
  H   H1322     1.0  0.91295  0.76898  0.31236  1.0000
  C   C1664     1.0  0.96061  0.85991  0.44635  1.0000
  H   H1323     1.0  0.60631  0.54037  0.02438  1.0000
  C   C1665     1.0  0.79165  0.78957  0.99111  1.0000
  C   C1666     1.0  0.98255  0.91338  0.04215  1.0000
  C   C1667     1.0  0.98477  0.69279  0.11833  1.0000
  H   H1324     1.0  0.80361  0.80448  0.98665  1.0000
  C   C1668     1.0  0.49864  0.61074  0.99959  1.0000
  C   C1669     1.0  0.76060  0.75125  0.00244  1.0000
  H   H1325     1.0  0.95280  0.87919  0.99531  1.0000
  H   H1326     1.0  0.75799  0.86905  0.46460  1.0000
  H   H1327     1.0  0.78305  0.75154  0.03408  1.0000
  C   C1670     1.0  0.76552  0.85308  0.47092  1.0000
  P   P55       1.0  0.54069  0.52101  0.46447  1.0000
  H   H1328     1.0  0.59883  0.53151  0.45622  1.0000
  H   H1329     1.0  0.69272  0.73593  0.99647  1.0000
  H   H1330     1.0  0.50100  0.55610  0.47362  1.0000
  C   C1671     1.0  0.95716  0.97889  0.04484  1.0000
  H   H1331     1.0  0.53084  0.49692  0.42313  1.0000
  H   H1332     1.0  0.67280  0.69317  0.47189  1.0000
  S   S224      1.0  0.64407  0.55051  0.98044  1.0000
  H   H1333     1.0  0.49989  0.49329  0.02013  1.0000
  C   C1672     1.0  0.78950  0.97358  0.02005  1.0000
  C   C1673     1.0  0.50306  0.52182  0.46333  1.0000
  H   H1334     1.0  0.56433  0.66619  0.97681  1.0000
  P   P56       1.0  0.98876  0.72890  0.27585  1.0000
  H   H1335     1.0  0.98766  0.88543  0.06540  1.0000
  Fe  Fe113     1.0  0.66053  0.79725  0.87650  1.0000
  S   S225      1.0  0.68513  0.77394  0.85577  1.0000
  S   S226      1.0  0.68083  0.82480  0.89796  1.0000
  Fe  Fe114     1.0  0.60370  0.77660  0.86036  1.0000
  S   S227      1.0  0.62603  0.75176  0.83942  1.0000
  S   S228      1.0  0.55656  0.77121  0.85464  1.0000
  Fe  Fe115     1.0  0.65501  0.74773  0.86930  1.0000
  S   S229      1.0  0.67009  0.71371  0.88210  1.0000
  Fe  Fe116     1.0  0.65357  0.78013  0.82764  1.0000
  S   S230      1.0  0.66403  0.79168  0.79115  1.0000
  S   S231      1.0  0.63130  0.77070  0.89101  1.0000
  S   S232      1.0  0.63053  0.80528  0.84765  1.0000
  H   H1336     1.0  0.74289  0.70572  0.94601  1.0000
  H   H1337     1.0  0.59107  0.67098  0.92412  1.0000
  S   S233      1.0  0.80163  0.83624  0.94548  1.0000
  C   C1674     1.0  0.50041  0.79554  0.64659  1.0000
  S   S234      1.0  0.93427  0.87261  0.94895  1.0000
  C   C1675     1.0  0.57064  0.90045  0.80531  1.0000
  C   C1676     1.0  0.64312  0.50529  0.97187  1.0000
  C   C1677     1.0  0.97970  0.88753  0.51374  1.0000
  S   S235      1.0  0.85551  0.88888  0.94907  1.0000
  Fe  Fe117     1.0  0.64756  0.77366  0.65254  1.0000
  S   S236      1.0  0.63180  0.80684  0.63919  1.0000
  S   S237      1.0  0.64212  0.76054  0.68938  1.0000
  Fe  Fe118     1.0  0.65767  0.75760  0.60403  1.0000
  S   S238      1.0  0.64202  0.78974  0.58866  1.0000
  S   S239      1.0  0.67283  0.73452  0.57698  1.0000
  Fe  Fe119     1.0  0.66823  0.80650  0.61487  1.0000
  S   S240      1.0  0.69437  0.83820  0.60589  1.0000
  Fe  Fe120     1.0  0.60748  0.78690  0.61399  1.0000
  S   S241      1.0  0.56268  0.78989  0.60058  1.0000
  S   S242      1.0  0.68533  0.77432  0.62974  1.0000
  S   S243      1.0  0.62192  0.75381  0.62770  1.0000
  Fe  Fe121     1.0  0.83960  0.88327  0.53063  1.0000
  H   H1338     1.0  0.51908  0.80751  0.73397  1.0000
  S   S244      1.0  0.80537  0.86181  0.54868  1.0000
  Fe  Fe122     1.0  0.90326  0.89433  0.53028  1.0000
  S   S245      1.0  0.94473  0.89412  0.54979  1.0000
  Fe  Fe123     1.0  0.86281  0.92440  0.50356  1.0000
  H   H1339     1.0  0.56213  0.60800  0.95116  1.0000
  S   S246      1.0  0.86533  0.91370  0.54038  1.0000
  S   S247      1.0  0.87811  0.86334  0.52381  1.0000
  C   C1678     1.0  0.51302  0.86440  0.84215  1.0000
  C   C1679     1.0  0.81344  0.90735  0.80075  1.0000
  Fe  Fe124     1.0  0.63894  0.62709  0.50931  1.0000
  S   S248      1.0  0.63365  0.63864  0.54533  1.0000
  S   S249      1.0  0.61011  0.59979  0.49712  1.0000
  C   C1680     1.0  0.55349  0.65852  0.50839  1.0000
  C   C1681     1.0  0.57296  0.49248  0.95030  1.0000
  C   C1682     1.0  0.57777  0.81311  0.80703  1.0000
  H   H1340     1.0  0.76407  0.66435  0.48148  1.0000
  H   H1341     1.0  0.56060  0.65841  0.82729  1.0000
  C   C1683     1.0  0.53190  0.62709  0.93192  1.0000
  H   H1342     1.0  0.56191  0.69667  0.94843  1.0000
  H   H1343     1.0  0.57869  0.76692  0.94673  1.0000
  H   H1344     1.0  0.53660  0.49138  0.50417  1.0000
  C   C1684     1.0  0.57445  0.89518  0.72902  1.0000
  C   C1685     1.0  0.78578  0.81199  0.48739  1.0000
  H   H1345     1.0  0.58853  0.82552  0.74338  1.0000
  H   H1346     1.0  0.59928  0.78840  0.75959  1.0000
  C   C1686     1.0  0.52675  0.64691  0.91960  1.0000
  H   H1347     1.0  0.72485  0.66873  0.95802  1.0000
  C   C1687     1.0  0.65736  0.70913  0.56833  1.0000
  C   C1688     1.0  0.64711  0.69309  0.58377  1.0000
  C   C1689     1.0  0.63950  0.67166  0.57648  1.0000
  C   C1690     1.0  0.64166  0.66618  0.55368  1.0000
  C   C1691     1.0  0.65070  0.68256  0.53816  1.0000
  C   C1692     1.0  0.65868  0.70380  0.54552  1.0000
  H   H1348     1.0  0.64641  0.69681  0.60146  1.0000
  H   H1349     1.0  0.63284  0.65906  0.58870  1.0000
  H   H1350     1.0  0.65234  0.67867  0.52058  1.0000
  H   H1351     1.0  0.66633  0.71613  0.53354  1.0000
  C   C1693     1.0  0.52970  0.79042  0.61395  1.0000
  C   C1694     1.0  0.58489  0.82210  0.76107  1.0000
  C   C1695     1.0  0.52698  0.79265  0.63721  1.0000
  H   H1352     1.0  0.91080  0.92551  0.95274  1.0000
  H   H1353     1.0  0.54540  0.79315  0.64781  1.0000
  C   C1696     1.0  0.72517  0.84409  0.58959  1.0000
  C   C1697     1.0  0.74120  0.82741  0.58014  1.0000
  C   C1698     1.0  0.76554  0.83304  0.56778  1.0000
  C   C1699     1.0  0.77434  0.85544  0.56452  1.0000
  C   C1700     1.0  0.75818  0.87208  0.57382  1.0000
  C   C1701     1.0  0.73397  0.86644  0.58626  1.0000
  H   H1354     1.0  0.73498  0.81017  0.58259  1.0000
  H   H1355     1.0  0.77769  0.81991  0.56080  1.0000
  H   H1356     1.0  0.76446  0.88935  0.57160  1.0000
  H   H1357     1.0  0.72197  0.87957  0.59342  1.0000
  C   C1702     1.0  0.96774  0.87397  0.96194  1.0000
  H   H1358     1.0  0.50638  0.49760  0.96496  1.0000
  H   H1359     1.0  0.74038  0.79222  0.50977  1.0000
  H   H1360     1.0  0.54416  0.60111  0.48773  1.0000
  H   H1361     1.0  0.73049  0.79605  0.90104  1.0000
  C   C1703     1.0  0.65882  0.70102  0.90785  1.0000
  C   C1704     1.0  0.64214  0.71239  0.92272  1.0000
  C   C1705     1.0  0.63380  0.70201  0.94312  1.0000
  C   C1706     1.0  0.64133  0.67998  0.94871  1.0000
  C   C1707     1.0  0.65799  0.66850  0.93388  1.0000
  C   C1708     1.0  0.66684  0.67907  0.91360  1.0000
  H   H1362     1.0  0.63583  0.72925  0.91862  1.0000
  H   H1363     1.0  0.62148  0.71111  0.95473  1.0000
  H   H1364     1.0  0.66395  0.65151  0.93795  1.0000
  H   H1365     1.0  0.67978  0.67012  0.90221  1.0000
  C   C1709     1.0  0.52263  0.77630  0.86516  1.0000
  H   H1366     1.0  0.57716  0.73042  0.96759  1.0000
  C   C1710     1.0  0.51768  0.79188  0.88168  1.0000
  C   C1711     1.0  0.58650  0.85795  0.83748  1.0000
  H   H1367     1.0  0.53490  0.80123  0.88869  1.0000
  C   C1712     1.0  0.64828  0.76968  0.71753  1.0000
  C   C1713     1.0  0.64088  0.75546  0.73589  1.0000
  C   C1714     1.0  0.64555  0.76176  0.75844  1.0000
  C   C1715     1.0  0.65764  0.78252  0.76304  1.0000
  C   C1716     1.0  0.66474  0.79682  0.74466  1.0000
  C   C1717     1.0  0.66010  0.79049  0.72213  1.0000
  H   H1368     1.0  0.63180  0.73928  0.73266  1.0000
  H   H1369     1.0  0.64001  0.75049  0.77224  1.0000
  H   H1370     1.0  0.67413  0.81289  0.74788  1.0000
  H   H1371     1.0  0.66608  0.80154  0.70832  1.0000
  C   C1718     1.0  0.71439  0.82734  0.91143  1.0000
  C   C1719     1.0  0.72058  0.84643  0.92395  1.0000
  C   C1720     1.0  0.74679  0.84931  0.93475  1.0000
  C   C1721     1.0  0.76760  0.83334  0.93286  1.0000
  C   C1722     1.0  0.76122  0.81410  0.92064  1.0000
  C   C1723     1.0  0.73487  0.81101  0.91019  1.0000
  H   H1372     1.0  0.70492  0.85909  0.92540  1.0000
  H   H1373     1.0  0.75098  0.86395  0.94446  1.0000
  H   H1374     1.0  0.77685  0.80141  0.91921  1.0000
  H   H1375     1.0  0.59720  0.70648  0.88764  1.0000
  C   C1724     1.0  0.52594  0.60749  0.47898  1.0000
  C   C1725     1.0  0.50545  0.79007  0.60044  1.0000
  H   H1376     1.0  0.68323  0.82388  0.95868  1.0000
  C   C1726     1.0  0.67526  0.76002  0.95243  1.0000
  C   C1727     1.0  0.51372  0.84782  0.61747  1.0000
  C   C1728     1.0  0.97753  0.88992  0.53696  1.0000
  H   H1377     1.0  0.65381  0.87511  0.63035  1.0000
  H   H1378     1.0  0.72360  0.79992  0.96505  1.0000
  C   C1729     1.0  0.94571  0.81613  0.55293  1.0000
  H   H1379     1.0  0.74957  0.95557  0.49854  1.0000
  H   H1380     1.0  0.54788  0.55973  0.93523  1.0000
  C   C1730     1.0  0.56527  0.92072  0.79393  1.0000
  C   C1731     1.0  0.53175  0.88341  0.78570  1.0000
  C   C1732     1.0  0.58698  0.69288  0.66672  1.0000
  H   H1381     1.0  0.98631  0.77958  0.52632  1.0000
  C   C1733     1.0  0.56067  0.54502  0.50106  1.0000
  H   H1382     1.0  0.57138  0.50794  0.94053  1.0000
  C   C1734     1.0  0.81399  0.87277  0.82282  1.0000
  C   C1735     1.0  0.81241  0.88468  0.84276  1.0000
  C   C1736     1.0  0.81189  0.90808  0.84148  1.0000
  P   P57       1.0  0.81287  0.86988  0.86967  1.0000
  C   C1737     1.0  0.84834  0.86405  0.87824  1.0000
  C   C1738     1.0  0.79779  0.88731  0.89060  1.0000
  C   C1739     1.0  0.76935  0.88591  0.89568  1.0000
  C   C1740     1.0  0.75803  0.89987  0.91160  1.0000
  C   C1741     1.0  0.77504  0.91510  0.92277  1.0000
  C   C1742     1.0  0.80330  0.91670  0.91776  1.0000
  C   C1743     1.0  0.81463  0.90297  0.90167  1.0000
  C   C1744     1.0  0.85394  0.85668  0.90044  1.0000
  C   C1745     1.0  0.88130  0.85316  0.90777  1.0000
  C   C1746     1.0  0.90336  0.85712  0.89306  1.0000
  C   C1747     1.0  0.89802  0.86426  0.87083  1.0000
  C   C1748     1.0  0.87060  0.86771  0.86339  1.0000
  C   C1749     1.0  0.79284  0.84439  0.86660  1.0000
  C   C1750     1.0  0.80338  0.82375  0.87429  1.0000
  C   C1751     1.0  0.78839  0.80405  0.87059  1.0000
  C   C1752     1.0  0.76263  0.80479  0.85948  1.0000
  C   C1753     1.0  0.75187  0.82523  0.85192  1.0000
  C   C1754     1.0  0.76701  0.84493  0.85525  1.0000
  C   C1755     1.0  0.70131  0.76908  0.95844  1.0000
  H   H1383     1.0  0.59995  0.63593  0.94546  1.0000
  C   C1756     1.0  0.57937  0.63908  0.93848  1.0000
  H   H1384     1.0  0.81499  0.85472  0.82343  1.0000
  H   H1385     1.0  0.81117  0.91771  0.85657  1.0000
  H   H1386     1.0  0.75585  0.87382  0.88786  1.0000
  H   H1387     1.0  0.73618  0.89839  0.91572  1.0000
  C   C1757     1.0  0.78124  0.67572  0.48483  1.0000
  C   C1758     1.0  0.55537  0.68417  0.53903  1.0000
  H   H1388     1.0  0.96141  0.78361  0.56191  1.0000
  H   H1389     1.0  0.83711  0.85398  0.91219  1.0000
  H   H1390     1.0  0.88548  0.84783  0.92508  1.0000
  H   H1391     1.0  0.92458  0.85490  0.89907  1.0000
  H   H1392     1.0  0.91519  0.86740  0.85948  1.0000
  H   H1393     1.0  0.86701  0.87351  0.84622  1.0000
  H   H1394     1.0  0.82303  0.82270  0.88324  1.0000
  H   H1395     1.0  0.79648  0.78827  0.87684  1.0000
  H   H1396     1.0  0.75070  0.78958  0.85712  1.0000
  H   H1397     1.0  0.73165  0.82577  0.84365  1.0000
  H   H1398     1.0  0.75850  0.86060  0.84904  1.0000
  C   C1759     1.0  0.64745  0.86654  0.64581  1.0000
  C   C1760     1.0  0.66752  0.85636  0.65969  1.0000
  C   C1761     1.0  0.65954  0.84520  0.67959  1.0000
  C   C1762     1.0  0.63137  0.84349  0.68522  1.0000
  C   C1763     1.0  0.61090  0.85264  0.67070  1.0000
  C   C1764     1.0  0.61932  0.86517  0.65155  1.0000
  P   P58       1.0  0.57450  0.85088  0.67807  1.0000
  C   C1765     1.0  0.56600  0.82617  0.69482  1.0000
  C   C1766     1.0  0.56857  0.87535  0.69417  1.0000
  H   H1399     1.0  0.77614  0.86524  0.50381  1.0000
  H   H1400     1.0  0.53246  0.66375  0.86125  1.0000
  C   C1767     1.0  0.57794  0.87599  0.71660  1.0000
  C   C1768     1.0  0.58074  0.80631  0.69243  1.0000
  C   C1769     1.0  0.57384  0.78731  0.70547  1.0000
  C   C1770     1.0  0.55164  0.78773  0.72041  1.0000
  C   C1771     1.0  0.53633  0.80722  0.72242  1.0000
  C   C1772     1.0  0.54344  0.82637  0.70967  1.0000
  C   C1773     1.0  0.55107  0.84998  0.65407  1.0000
  C   C1774     1.0  0.56042  0.84400  0.63279  1.0000
  C   C1775     1.0  0.54192  0.84353  0.61447  1.0000
  C   C1776     1.0  0.96046  0.79673  0.54901  1.0000
  H   H1401     1.0  0.84198  0.71753  0.49427  1.0000
  C   C1777     1.0  0.52259  0.85404  0.65698  1.0000
  C   C1778     1.0  0.56896  0.67081  0.52383  1.0000
  C   C1779     1.0  0.59123  0.80108  0.77026  1.0000
  H   H1402     1.0  0.62573  0.83477  0.70074  1.0000
  H   H1403     1.0  0.60422  0.87357  0.64076  1.0000
  H   H1404     1.0  0.76917  0.60442  0.52673  1.0000
  H   H1405     1.0  0.49872  0.79820  0.66443  1.0000
  H   H1406     1.0  0.58844  0.86180  0.72431  1.0000
  H   H1407     1.0  0.59757  0.80536  0.68056  1.0000
  H   H1408     1.0  0.58580  0.77222  0.70393  1.0000
  H   H1409     1.0  0.54635  0.77295  0.73040  1.0000
  C   C1780     1.0  0.49276  0.72369  0.96494  1.0000
  C   C1781     1.0  0.49755  0.74402  0.76161  1.0000
  H   H1410     1.0  0.58169  0.83901  0.63026  1.0000
  H   H1411     1.0  0.54922  0.83856  0.59818  1.0000
  P   P59       1.0  0.73122  0.75111  0.96131  1.0000
  C   C1782     1.0  0.64943  0.52257  0.48502  1.0000
  C   C1783     1.0  0.74500  0.71203  0.58633  1.0000
  C   C1784     1.0  0.77170  0.70996  0.59562  1.0000
  C   C1785     1.0  0.79293  0.70077  0.58307  1.0000
  C   C1786     1.0  0.78752  0.69385  0.56114  1.0000
  C   C1787     1.0  0.76102  0.69672  0.55136  1.0000
  C   C1788     1.0  0.73959  0.70520  0.56442  1.0000
  P   P60       1.0  0.75322  0.68595  0.52390  1.0000
  C   C1789     1.0  0.72491  0.70079  0.51037  1.0000
  C   C1790     1.0  0.78152  0.68865  0.50418  1.0000
  C   C1791     1.0  0.71905  0.72367  0.97030  1.0000
  H   H1412     1.0  0.81374  0.91610  0.78453  1.0000
  H   H1413     1.0  0.83938  0.75220  0.51218  1.0000
  Fe  Fe125     1.0  0.89297  0.87496  0.96750  1.0000
  C   C1792     1.0  0.80316  0.70424  0.50722  1.0000
  C   C1793     1.0  0.70734  0.68995  0.49507  1.0000
  C   C1794     1.0  0.85055  0.76779  0.50975  1.0000
  C   C1795     1.0  0.68288  0.72445  0.48716  1.0000
  C   C1796     1.0  0.70044  0.73541  0.50224  1.0000
  C   C1797     1.0  0.72144  0.72363  0.51376  1.0000
  C   C1798     1.0  0.74366  0.65715  0.52924  1.0000
  C   C1799     1.0  0.71785  0.65192  0.53896  1.0000
  H   H1414     1.0  0.52238  0.88071  0.84437  1.0000
  H   H1415     1.0  0.57033  0.85489  0.76734  1.0000
  H   H1416     1.0  0.58193  0.89564  0.74627  1.0000
  C   C1800     1.0  0.76241  0.63992  0.52530  1.0000
  H   H1417     1.0  0.72826  0.71869  0.59616  1.0000
  H   H1418     1.0  0.77575  0.71514  0.61269  1.0000
  H   H1419     1.0  0.81345  0.69862  0.59051  1.0000
  H   H1420     1.0  0.80387  0.68590  0.55200  1.0000
  H   H1421     1.0  0.71850  0.70627  0.55791  1.0000
  C   C1801     1.0  0.54974  0.52464  0.49371  1.0000
  C   C1802     1.0  0.53670  0.55536  0.95050  1.0000
  H   H1422     1.0  0.51615  0.69519  0.55109  1.0000
  S   S250      1.0  0.62789  0.66755  0.97384  1.0000
  H   H1423     1.0  0.80299  0.71539  0.52119  1.0000
  H   H1424     1.0  0.70986  0.67239  0.49190  1.0000
  H   H1425     1.0  0.50666  0.64899  0.91153  1.0000
  H   H1426     1.0  0.79787  0.97042  0.50132  1.0000
  H   H1427     1.0  0.69747  0.75292  0.50535  1.0000
  H   H1428     1.0  0.73497  0.73240  0.52528  1.0000
  H   H1429     1.0  0.70346  0.66497  0.54281  1.0000
  H   H1430     1.0  0.54352  0.92822  0.68869  1.0000
  H   H1431     1.0  0.53127  0.84129  0.71134  1.0000
  H   H1432     1.0  0.55991  0.85187  0.86641  1.0000
  H   H1433     1.0  0.78290  0.64350  0.51869  1.0000
  H   H1434     1.0  0.56419  0.76927  0.90651  1.0000
  H   H1435     1.0  0.53876  0.93819  0.77001  1.0000
  P   P61       1.0  0.53377  0.70432  0.61326  1.0000
  C   C1803     1.0  0.54438  0.72378  0.59119  1.0000
  C   C1804     1.0  0.55643  0.70784  0.63728  1.0000
  C   C1805     1.0  0.56039  0.72925  0.64574  1.0000
  C   C1806     1.0  0.57768  0.73242  0.66447  1.0000
  C   C1807     1.0  0.59128  0.71432  0.67477  1.0000
  C   C1808     1.0  0.54313  0.92238  0.77855  1.0000
  H   H1436     1.0  0.49693  0.59102  0.50162  1.0000
  C   C1809     1.0  0.57282  0.72840  0.58804  1.0000
  C   C1810     1.0  0.58152  0.74245  0.57025  1.0000
  C   C1811     1.0  0.56190  0.75196  0.55545  1.0000
  C   C1812     1.0  0.53359  0.74712  0.55821  1.0000
  C   C1813     1.0  0.52485  0.73293  0.57591  1.0000
  C   C1814     1.0  0.53701  0.67742  0.60065  1.0000
  C   C1815     1.0  0.51333  0.66547  0.59359  1.0000
  C   C1816     1.0  0.51610  0.64541  0.58249  1.0000
  C   C1817     1.0  0.54253  0.63743  0.57771  1.0000
  C   C1818     1.0  0.56620  0.64939  0.58425  1.0000
  C   C1819     1.0  0.56351  0.66933  0.59564  1.0000
  H   H1437     1.0  0.76998  0.78940  0.95950  1.0000
  H   H1438     1.0  0.55946  0.92892  0.72851  1.0000
  H   H1439     1.0  0.55060  0.74361  0.63758  1.0000
  H   H1440     1.0  0.58145  0.74909  0.67042  1.0000
  H   H1441     1.0  0.60548  0.71705  0.68878  1.0000
  H   H1442     1.0  0.61925  0.86246  0.81293  1.0000
  H   H1443     1.0  0.58751  0.89976  0.81750  1.0000
  H   H1444     1.0  0.58839  0.72120  0.59929  1.0000
  H   H1445     1.0  0.60349  0.74630  0.56825  1.0000
  H   H1446     1.0  0.56867  0.76335  0.54209  1.0000
  C   C1820     1.0  0.90741  0.96076  0.95803  1.0000
  C   C1821     1.0  0.91722  0.97884  0.97024  1.0000
  Fe  Fe126     1.0  0.83008  0.86090  0.96513  1.0000
  H   H1447     1.0  0.96127  0.88863  0.50319  1.0000
  H   H1448     1.0  0.54473  0.62216  0.56861  1.0000
  H   H1449     1.0  0.58665  0.64342  0.57999  1.0000
  H   H1450     1.0  0.58212  0.67865  0.60005  1.0000
  H   H1451     1.0  0.61533  0.49501  0.52780  1.0000
  H   H1452     1.0  0.56749  0.69373  0.55093  1.0000
  H   H1453     1.0  0.49368  0.67577  0.63742  1.0000
  C   C1822     1.0  0.78573  0.83051  0.50116  1.0000
  H   H1454     1.0  0.84535  0.97955  0.52965  1.0000
  H   H1455     1.0  0.93427  0.84856  0.53990  1.0000
  C   C1823     1.0  0.70387  0.79222  0.96095  1.0000
  C   C1824     1.0  0.65514  0.79683  0.95123  1.0000
  S   S251      1.0  0.83719  0.94561  0.97295  1.0000
  H   H1456     1.0  0.69050  0.62582  0.55144  1.0000
  C   C1825     1.0  0.49917  0.70440  0.87300  1.0000
  S   S252      1.0  0.86125  0.95969  0.48670  1.0000
  H   H1457     1.0  0.56412  0.55894  0.48936  1.0000
  C   C1826     1.0  0.63558  0.86301  0.84667  1.0000
  H   H1458     1.0  0.63255  0.76669  0.94380  1.0000
  C   C1827     1.0  0.81229  0.91934  0.82053  1.0000
  H   H1459     1.0  0.51460  0.85771  0.67339  1.0000
  H   H1460     1.0  0.81656  0.92832  0.92669  1.0000
  C   C1828     1.0  0.56185  0.91394  0.71902  1.0000
  C   C1829     1.0  0.74584  0.74930  0.93350  1.0000
  C   C1830     1.0  0.77479  0.74970  0.93039  1.0000
  C   C1831     1.0  0.78580  0.74752  0.90888  1.0000
  C   C1832     1.0  0.76806  0.74445  0.89040  1.0000
  C   C1833     1.0  0.73930  0.74357  0.89343  1.0000
  C   C1834     1.0  0.72820  0.74601  0.91484  1.0000
  H   H1461     1.0  0.59754  0.67886  0.67477  1.0000
  C   C1835     1.0  0.58075  0.85546  0.86057  1.0000
  C   C1836     1.0  0.97345  0.81148  0.51192  1.0000
  H   H1462     1.0  0.51433  0.75248  0.95082  1.0000
  C   C1837     1.0  0.55414  0.73433  0.90488  1.0000
  C   C1838     1.0  0.56756  0.54761  0.52377  1.0000
  C   C1839     1.0  0.52623  0.74083  0.76407  1.0000
  C   C1840     1.0  0.55236  0.67224  0.85960  1.0000
  C   C1841     1.0  0.62962  0.86089  0.86959  1.0000
  H   H1463     1.0  0.56607  0.67282  0.64236  1.0000
  H   H1464     1.0  0.57649  0.56324  0.52924  1.0000
  H   H1465     1.0  0.81176  0.93740  0.81964  1.0000
  H   H1466     1.0  0.48935  0.68307  0.92609  1.0000
  C   C1842     1.0  0.54093  0.75115  0.78137  1.0000
  C   C1843     1.0  0.55811  0.62329  0.94156  1.0000
  H   H1467     1.0  0.51905  0.67968  0.96161  1.0000
  H   H1468     1.0  0.80814  0.74794  0.90660  1.0000
  H   H1469     1.0  0.77655  0.74244  0.87378  1.0000
  H   H1470     1.0  0.72546  0.74063  0.87925  1.0000
  C   C1844     1.0  0.72889  0.61262  0.53941  1.0000
  C   C1845     1.0  0.52445  0.65959  0.50814  1.0000
  H   H1471     1.0  0.91686  0.78831  0.50977  1.0000
  H   H1472     1.0  0.67278  0.74232  0.94991  1.0000
  C   C1846     1.0  0.52643  0.90371  0.77438  1.0000
  C   C1847     1.0  0.63335  0.51919  0.50436  1.0000
  C   C1848     1.0  0.57421  0.65902  0.92647  1.0000
  H   H1473     1.0  0.78896  0.75142  0.94452  1.0000
  H   H1474     1.0  0.81537  0.87477  0.78658  1.0000
  H   H1475     1.0  0.52339  0.81484  0.81692  1.0000
  C   C1849     1.0  0.57462  0.83864  0.77477  1.0000
  C   C1850     1.0  0.52694  0.76466  0.79618  1.0000
  H   H1476     1.0  0.59148  0.66994  0.52400  1.0000
  C   C1851     1.0  0.49979  0.76449  0.85616  1.0000
  H   H1477     1.0  0.50731  0.78842  0.58244  1.0000
  H   H1478     1.0  0.75370  0.75346  0.49067  1.0000
  C   C1852     1.0  0.56179  0.71237  0.93914  1.0000
  C   C1853     1.0  0.57075  0.83415  0.79788  1.0000
  C   C1854     1.0  0.58856  0.69628  0.87449  1.0000
  C   C1855     1.0  0.60441  0.69305  0.85529  1.0000
  C   C1856     1.0  0.79369  0.76444  0.47818  1.0000
  H   H1479     1.0  0.65696  0.86521  0.84135  1.0000
  C   C1857     1.0  0.57056  0.73158  0.95010  1.0000
  C   C1858     1.0  0.51379  0.82751  0.82666  1.0000
  C   C1859     1.0  0.56329  0.75345  0.91576  1.0000
  H   H1480     1.0  0.50913  0.90501  0.76256  1.0000
  C   C1860     1.0  0.61416  0.86139  0.83065  1.0000
  C   C1861     1.0  0.54761  0.66345  0.91753  1.0000
  C   C1862     1.0  0.49827  0.76782  0.79385  1.0000
  H   H1481     1.0  0.59413  0.78067  0.80059  1.0000
  H   H1482     1.0  0.50335  0.75220  0.84358  1.0000
  C   C1863     1.0  0.56938  0.68957  0.64816  1.0000
  H   H1483     1.0  0.63763  0.80766  0.94776  1.0000
  C   C1864     1.0  0.55392  0.88161  0.80123  1.0000
  P   P62       1.0  0.55933  0.85547  0.81640  1.0000
  H   H1484     1.0  0.57809  0.93525  0.79730  1.0000
  H   H1485     1.0  0.67524  0.83756  0.69042  1.0000
  C   C1865     1.0  0.55361  0.71360  0.91639  1.0000
  C   C1866     1.0  0.91877  0.93966  0.96189  1.0000
  C   C1867     1.0  0.54508  0.50717  0.50949  1.0000
  H   H1486     1.0  0.59789  0.85475  0.89430  1.0000
  H   H1487     1.0  0.49818  0.69963  0.48500  1.0000
  C   C1868     1.0  0.50401  0.85289  0.63876  1.0000
  H   H1488     1.0  0.49921  0.84627  0.60349  1.0000
  H   H1489     1.0  0.64634  0.86163  0.88197  1.0000
  C   C1869     1.0  0.62763  0.49731  0.51277  1.0000
  H   H1490     1.0  0.51840  0.75460  0.54681  1.0000
  H   H1491     1.0  0.56314  0.74858  0.78343  1.0000
  H   H1492     1.0  0.60677  0.67706  0.82346  1.0000
  C   C1870     1.0  0.82512  0.70572  0.49192  1.0000
  H   H1493     1.0  0.83664  0.90445  0.89812  1.0000
  C   C1871     1.0  0.77237  0.78102  0.97573  1.0000
  C   C1872     1.0  0.94509  0.83328  0.53659  1.0000
  C   C1873     1.0  0.52648  0.84844  0.82942  1.0000
  C   C1874     1.0  0.59427  0.67956  0.83822  1.0000
  H   H1494     1.0  0.57556  0.80946  0.82490  1.0000
  S   S253      1.0  0.67743  0.61210  0.49446  1.0000
  H   H1495     1.0  0.53831  0.77250  0.80969  1.0000
  C   C1875     1.0  0.60227  0.85701  0.87653  1.0000
  H   H1496     1.0  0.63464  0.51038  0.95561  1.0000
  C   C1876     1.0  0.57154  0.75209  0.93836  1.0000
  C   C1877     1.0  0.56827  0.66911  0.84039  1.0000
  C   C1878     1.0  0.81435  0.88408  0.80191  1.0000
  H   H1497     1.0  0.49289  0.62797  0.52966  1.0000
  H   H1498     1.0  0.49979  0.54495  0.93290  1.0000
  C   C1879     1.0  0.52627  0.68500  0.53903  1.0000
  C   C1880     1.0  0.50591  0.69413  0.89391  1.0000
  H   H1499     1.0  0.53707  0.73029  0.75261  1.0000
  H   H1500     1.0  0.62563  0.53343  0.51300  1.0000
  P   P63       1.0  0.79889  0.78585  0.49859  1.0000
  C   C1881     1.0  0.77894  0.77892  0.52361  1.0000
  C   C1882     1.0  0.56343  0.52996  0.53929  1.0000
  H   H1501     1.0  0.70585  0.74487  0.91674  1.0000
  C   C1883     1.0  0.55287  0.91355  0.69657  1.0000
  H   H1502     1.0  0.51570  0.61451  0.93387  1.0000
  C   C1884     1.0  0.79133  0.76861  0.54269  1.0000
  C   C1885     1.0  0.77530  0.76289  0.56156  1.0000
  C   C1886     1.0  0.74686  0.76749  0.56162  1.0000
  C   C1887     1.0  0.73447  0.77811  0.54293  1.0000
  C   C1888     1.0  0.75040  0.78386  0.52403  1.0000
  C   C1889     1.0  0.83605  0.78738  0.50399  1.0000
  C   C1890     1.0  0.85118  0.80731  0.50032  1.0000
  C   C1891     1.0  0.88022  0.80753  0.50242  1.0000
  C   C1892     1.0  0.89439  0.78800  0.50828  1.0000
  H   H1503     1.0  0.89039  0.96295  0.94607  1.0000
  C   C1893     1.0  0.77577  0.85100  0.49296  1.0000
  H   H1504     1.0  0.84094  0.82268  0.49538  1.0000
  H   H1505     1.0  0.62478  0.70084  0.85375  1.0000
  H   H1506     1.0  0.79359  0.82904  0.51827  1.0000
  S   S254      1.0  0.83490  0.89509  0.49409  1.0000
  H   H1507     1.0  0.54786  0.73564  0.88734  1.0000
  H   H1508     1.0  0.81334  0.76528  0.54334  1.0000
  H   H1509     1.0  0.78498  0.75519  0.57634  1.0000
  H   H1510     1.0  0.73442  0.76319  0.57630  1.0000
  H   H1511     1.0  0.71251  0.78210  0.54331  1.0000
  C   C1894     1.0  0.58802  0.79667  0.79328  1.0000
  H   H1512     1.0  0.68923  0.85697  0.65485  1.0000
  H   H1513     1.0  0.89180  0.82287  0.49921  1.0000
  C   C1895     1.0  0.56222  0.68612  0.87663  1.0000
  C   C1896     1.0  0.55210  0.50977  0.53217  1.0000
  H   H1514     1.0  0.76646  0.92548  0.93555  1.0000
  C   C1897     1.0  0.49924  0.70933  0.62363  1.0000
  H   H1515     1.0  0.51838  0.86913  0.78257  1.0000
  C   C1898     1.0  0.56370  0.49129  0.97252  1.0000
  C   C1899     1.0  0.95894  0.83108  0.51624  1.0000
  H   H1516     1.0  0.93513  0.81813  0.56875  1.0000
  C   C1900     1.0  0.55641  0.89439  0.68410  1.0000
  P   P64       1.0  0.54191  0.68925  0.90167  1.0000
  Fe  Fe127     1.0  0.87427  0.87619  0.48812  1.0000
  H   H1517     1.0  0.55005  0.89463  0.66655  1.0000
  C   C1901     1.0  0.49910  0.60182  0.48684  1.0000
  H   H1518     1.0  0.95853  0.84497  0.50430  1.0000
  H   H1519     1.0  0.49979  0.74483  0.61565  1.0000
  S   S255      1.0  0.90160  0.90614  0.49433  1.0000
  C   C1902     1.0  0.68637  0.70175  0.48357  1.0000
  C   C1903     1.0  0.51059  0.67276  0.52352  1.0000
  C   C1904     1.0  0.71053  0.62974  0.54403  1.0000
  C   C1905     1.0  0.75486  0.61771  0.53012  1.0000
  H   H1520     1.0  0.56922  0.53189  0.55681  1.0000
  H   H1521     1.0  0.72294  0.59543  0.54307  1.0000
  C   C1906     1.0  0.98589  0.76215  0.48164  1.0000
  C   C1907     1.0  0.65231  0.77383  0.94891  1.0000
  H   H1522     1.0  0.89059  0.75294  0.51639  1.0000
  H   H1523     1.0  0.49774  0.63623  0.57727  1.0000
  C   C1908     1.0  0.50942  0.54700  0.94926  1.0000
  H   H1524     1.0  0.51273  0.65025  0.49586  1.0000
  C   C1909     1.0  0.87956  0.76812  0.51201  1.0000
  H   H1525     1.0  0.57080  0.56454  0.97243  1.0000
  H   H1526     1.0  0.56403  0.64823  0.49651  1.0000
  H   H1527     1.0  0.51534  0.70953  0.86133  1.0000
  H   H1528     1.0  0.50292  0.72909  0.57755  1.0000
  H   H1529     1.0  0.54913  0.49600  0.54415  1.0000
  H   H1530     1.0  0.49269  0.67177  0.59617  1.0000
  C   C1910     1.0  0.49519  0.74281  0.95098  1.0000
  C   C1911     1.0  0.54965  0.55807  0.97143  1.0000
  C   C1912     1.0  0.68085  0.80598  0.95741  1.0000
  Fe  Fe128     1.0  0.64766  0.58662  0.47966  1.0000
  C   C1913     1.0  0.97441  0.79446  0.52868  1.0000
  C   C1914     1.0  0.71821  0.68344  0.96654  1.0000
  H   H1531     1.0  0.58357  0.48975  0.48208  1.0000
  S   S256      1.0  0.63120  0.65013  0.47962  1.0000
  C   C1915     1.0  0.72827  0.70451  0.95971  1.0000
  H   H1532     1.0  0.98661  0.97383  0.95274  1.0000
  C   C1916     1.0  0.49494  0.54111  0.96901  1.0000
  C   C1917     1.0  0.76973  0.75088  0.47855  1.0000
  C   C1918     1.0  0.78252  0.97903  0.49082  1.0000
  H   H1533     1.0  0.66638  0.73346  0.47844  1.0000
  C   C1919     1.0  0.49023  0.79579  0.88877  1.0000
  H   H1534     1.0  0.98124  0.72651  0.47881  1.0000
  C   C1920     1.0  0.75537  0.97066  0.48917  1.0000
  H   H1535     1.0  0.97396  0.82600  0.97653  1.0000
  H   H1536     1.0  0.51016  0.71907  0.97571  1.0000
