data_image0
_chemical_formula_structural       C2HC2HCHFeCHSHCSC2HC2H4C3HSC3HCHS2HCHSCHCFeH2C2H2CH2FeCHCFeHCHFeC3H3CHFeC3SHSHSHCHC3HSHFeC2HC2HSHCSC3HCHSC2HC2H3CHSH2C2H2CSCH4C3H6C2H2PC5HCH3C3H2CHCH2C11HC4HFeC2PCH2CHSC3HCHCHSHC2PCHCHCHC3H2CH2C2HCH4CH2C3H8SHC3H2C7FeHCSCH3CH2CSH4SHC2SCHC2HC6HC2HCSFeHCHCHC2HFeHC2H2PSHSH2CSCHC4H2CHCHC3HCHCHCH3SC3HCSH3C2HSCHC2FeCHC2HFeC2H5CSC3HC2S2C3HC2PHCFeCHCHC3HCH3CPFeCHCHC2H2C2HCH3CSHC3H5CH2CHC5PCHC6H2CHC4PCH3C2HC3HCH4C2H2CH3CHC2PCH2C5HCH2C9HC2H2C3SHC4FeHC2HCHC2H3C2FeCH2CHCH4CHCSCHC5HCSCSC2SHC2SH3SC2H2CH2CFeCS2HCSHCHC2FeHFeC3FeSCHFeC2H2SCH4CHCPSCHCHSHC2HC4FeSC10H2CH2PCFeHFeC2HCHCHC2H2CHC2H3C5H2SHFeC2H2C3H2CHCHCHCHSCH2C2SPCHCSFeHCHC3H2S2CHC4HC5H2CHCH9C5HC3HC3HCHC7PCH2CH3PCHC2HC2HC2HC2HCHFeHC5HCHCH2CH5C2SCHCH4C2HC4HC2SH3C6H4CH4CHSCHSHCHC3H2FeCSC3HCS3HFeCHCH2C2HCH2C4HCHSHSHC2HC3FeC2H2C2FeC3HPCHCHC2HCHCH5CH3C2FeC2SHC3HC2HCHCSHFeHSC2SCHCH2C2HCHC6HCHCHC2HCHC4SHPCH6C3PH2SC4HFeC5HC5HCHPC3HC3H2C3H2CH2CHC2HC2HCHC2HC3H4CH2CPCH2CH3C3SCHCHFeHCH2C2H2C2H2SC3H2FeCHC2S4CSH3CHCH2C2H2FeHCHSC2FeC2SC3FeH2FeC2SH3CHCHFeCHS3HCSHCHCHPHSC3H2CHFeH2CHC6HC5H2C2SC3H2C2HC3H2C4HC2H2C3PC2H2C2SCSCHC3HCHCH2CH3C3H3C4HC4HC3H3C2PHCSC3HCH3CH3CHCHFeC2SHCH3C6H2C2HPC3H7C6H2C2HCH2CHC2HC8HSH3C2SH2FeHCHSC3HCFeH4SC2HCH2CHSHC3Fe2HCHC3HCH2CHSC5SH3C2SH3C2S2H2C2HCFeC5HCFeCS2FeC2HCH2C2FeCHCHCHPCHC3SC2SHCH3CHS2H2CFeH2C2HCH2CH2CHCHCH2CHCSHCHCH2CH2C3HC2HCH2CPCHCHCHC2H5CH4CH2SH2C3HCH2C3PHC2HC2FeC4H3CH2SC5H2C2H2C2HC2HPCH3C2HC2H2C5SC4H2CHC3HC2HSHCHCH2CFeC2H2C5H5CS2CH2CSHC2SH2C4HC2FeH2CH2FeCSH4S2CSCH3C4HFeC7FeHSC4H2SC2HCHC2HCHC2HFeHC2H3C2PCH2C2HSC2FeCSH2C2HPH4CHC2H3FeCHC4HC2H4C2HCHC3PC3HCHC2HC3HC7H3CHC4H2C3H6CHC2H3C2HC2PC3HC2H2CHCHC3H4CH3C3HSH5C3HC3HCHC4HC4PC4HC3H3C3H2CHC3H7CH3CHC2FeCH4CFeCFeCHCHSHCHC3HCFeSH3CH2SCHFeCSCSH3CFeHCHFeH2CH2FePCHC3H2C6SCSCSHC2H3CHCSH2CFe2CHSHCHC2HC3SCSCH2CS2CHCHC2SC2H3CSCHCH2C4H3C3HCH2CHC2H2C2HC3H2C2HCHC2H2C2H2C2HSHC2HPH2SH3C6HCHC3H3CHC3H2C4H3CHCHPHSH3CH2C2HCH2C2H2CSHC2H2C2HPCHCH
_chemical_formula_sum              "C1080 H864 Fe72 S144 P36"
_cell_length_a       37.0587
_cell_length_b       34.8143
_cell_length_c       26.7584
_cell_angle_alpha    80.6349
_cell_angle_beta     89.8592
_cell_angle_gamma    119.001

_space_group_name_H-M_alt    "P 1"
_space_group_IT_number       1

loop_
  _space_group_symop_operation_xyz
  'x, y, z'

loop_
  _atom_site_type_symbol
  _atom_site_label
  _atom_site_symmetry_multiplicity
  _atom_site_fract_x
  _atom_site_fract_y
  _atom_site_fract_z
  _atom_site_occupancy
  C   C1        1.0  0.20986  0.99340  0.72131  1.0000
  C   C2        1.0  0.50352  0.33751  0.65477  1.0000
  H   H1        1.0  0.31010  0.07787  0.63410  1.0000
  C   C3        1.0  0.17134  0.20074  0.69326  1.0000
  C   C4        1.0  0.20600  0.44854  0.70156  1.0000
  H   H2        1.0  0.39158  0.06684  0.75667  1.0000
  C   C5        1.0  0.48433  0.03921  0.76868  1.0000
  H   H3        1.0  0.47013  0.38532  0.71937  1.0000
  Fe  Fe1       1.0  0.36666  0.15302  0.67241  1.0000
  C   C6        1.0  0.29571  0.28852  0.62344  1.0000
  H   H4        1.0  0.33161  0.45502  0.55789  1.0000
  S   S1        1.0  0.08483  0.33057  0.74338  1.0000
  H   H5        1.0  0.16845  0.02165  0.58505  1.0000
  C   C7        1.0  0.50024  0.41121  0.72633  1.0000
  S   S2        1.0  0.40803  0.22310  0.68313  1.0000
  C   C8        1.0  0.14439  0.08231  0.65167  1.0000
  C   C9        1.0  0.21452  0.98757  0.67174  1.0000
  H   H6        1.0  0.49069  0.07240  0.55763  1.0000
  C   C10       1.0  0.42128  0.12859  0.78354  1.0000
  C   C11       1.0  0.21925  0.47647  0.65390  1.0000
  H   H7        1.0  0.49712  0.45365  0.55948  1.0000
  H   H8        1.0  0.34997  0.23414  0.75325  1.0000
  H   H9        1.0  0.20131  0.46479  0.62237  1.0000
  H   H10       1.0  0.20130  0.19160  0.63173  1.0000
  C   C12       1.0  0.25597  0.38315  0.74777  1.0000
  C   C13       1.0  0.25048  0.01840  0.64007  1.0000
  C   C14       1.0  0.16434  0.22214  0.60407  1.0000
  H   H11       1.0  0.15328  0.31967  0.73635  1.0000
  S   S3        1.0  0.40007  0.44870  0.73537  1.0000
  C   C15       1.0  0.39341  0.34366  0.57517  1.0000
  C   C16       1.0  0.41945  0.40282  0.62492  1.0000
  C   C17       1.0  0.28552  0.23517  0.69998  1.0000
  H   H12       1.0  0.47403  0.31042  0.67261  1.0000
  C   C18       1.0  0.27079  0.39516  0.69634  1.0000
  H   H13       1.0  0.42470  0.02135  0.65356  1.0000
  S   S4        1.0  0.08193  0.38907  0.63740  1.0000
  S   S5        1.0  0.16586  0.35170  0.62726  1.0000
  H   H14       1.0  0.03910  0.12054  0.69774  1.0000
  C   C19       1.0  0.18593  0.34079  0.72516  1.0000
  H   H15       1.0  0.28090  0.47153  0.59511  1.0000
  S   S6        1.0  0.06177  0.99784  0.77701  1.0000
  C   C20       1.0  0.12212  0.04145  0.56579  1.0000
  H   H16       1.0  0.12576  0.25318  0.59118  1.0000
  C   C21       1.0  0.40228  0.98379  0.59330  1.0000
  Fe  Fe2       1.0  0.34988  0.46300  0.75541  1.0000
  H   H17       1.0  0.10915  0.24759  0.68204  1.0000
  H   H18       1.0  0.09930  0.10331  0.63347  1.0000
  C   C22       1.0  0.50670  0.35928  0.60484  1.0000
  C   C23       1.0  0.20032  0.35658  0.67361  1.0000
  H   H19       1.0  0.18457  0.18694  0.72199  1.0000
  H   H20       1.0  0.41096  0.14532  0.75430  1.0000
  C   C24       1.0  0.21372  0.35454  0.76230  1.0000
  H   H21       1.0  0.37591  0.32031  0.76291  1.0000
  H   H22       1.0  0.41829  0.33953  0.64731  1.0000
  Fe  Fe3       1.0  0.10530  0.34082  0.66103  1.0000
  C   C25       1.0  0.41073  0.42945  0.58724  1.0000
  H   H23       1.0  0.07127  0.08609  0.75719  1.0000
  C   C26       1.0  0.18078  0.20352  0.64169  1.0000
  Fe  Fe4       1.0  0.41147  0.16950  0.56879  1.0000
  H   H24       1.0  0.07247  0.46115  0.66627  1.0000
  C   C27       1.0  0.52386  0.44812  0.68805  1.0000
  H   H25       1.0  0.22027  0.43799  0.77847  1.0000
  Fe  Fe5       1.0  0.05503  0.37219  0.71859  1.0000
  C   C28       1.0  0.41111  0.35991  0.61868  1.0000
  C   C29       1.0  0.39864  0.00465  0.63191  1.0000
  C   C30       1.0  0.14536  0.21638  0.70777  1.0000
  H   H26       1.0  0.45938  0.12066  0.56451  1.0000
  H   H27       1.0  0.17743  0.41691  0.70670  1.0000
  H   H28       1.0  0.43114  0.98426  0.58509  1.0000
  C   C31       1.0  0.11463  0.08584  0.62238  1.0000
  H   H29       1.0  0.20899  0.31402  0.57069  1.0000
  Fe  Fe6       1.0  0.40236  0.24439  0.60141  1.0000
  C   C32       1.0  0.10390  0.06599  0.57938  1.0000
  C   C33       1.0  0.33735  0.21290  0.79024  1.0000
  C   C34       1.0  0.15335  0.03978  0.59431  1.0000
  S   S7        1.0  0.38225  0.29165  0.56129  1.0000
  H   H30       1.0  0.25417  0.39268  0.61935  1.0000
  S   S8        1.0  0.51098  0.22439  0.70462  1.0000
  H   H31       1.0  0.28542  0.22208  0.62389  1.0000
  S   S9        1.0  0.45739  0.24071  0.57250  1.0000
  H   H32       1.0  0.23765  0.03356  0.77805  1.0000
  C   C35       1.0  0.24291  0.38161  0.65919  1.0000
  H   H33       1.0  0.13833  0.21471  0.74761  1.0000
  C   C36       1.0  0.27726  0.06025  0.70805  1.0000
  C   C37       1.0  0.32799  0.98268  0.61412  1.0000
  C   C38       1.0  0.28820  0.24609  0.64694  1.0000
  H   H34       1.0  0.30743  0.35336  0.63439  1.0000
  S   S10       1.0  0.35664  0.17470  0.59325  1.0000
  H   H35       1.0  0.29887  0.29741  0.58244  1.0000
  Fe  Fe7       1.0  0.45981  0.21384  0.65402  1.0000
  C   C39       1.0  0.23009  0.46068  0.74219  1.0000
  C   C40       1.0  0.03796  0.02154  0.73568  1.0000
  H   H36       1.0  0.51176  0.45069  0.65185  1.0000
  C   C41       1.0  0.24115  0.02967  0.73943  1.0000
  C   C42       1.0  0.16426  0.05998  0.63711  1.0000
  H   H37       1.0  0.27944  0.20205  0.71762  1.0000
  S   S11       1.0  0.04811  0.28079  0.64603  1.0000
  H   H38       1.0  0.30356  0.41604  0.68513  1.0000
  C   C43       1.0  0.51583  0.40717  0.77313  1.0000
  S   S12       1.0  0.05039  0.41446  0.77092  1.0000
  C   C44       1.0  0.13827  0.23782  0.61920  1.0000
  C   C45       1.0  0.28201  0.05463  0.65830  1.0000
  C   C46       1.0  0.12877  0.23478  0.67078  1.0000
  H   H39       1.0  0.25399  0.01421  0.60148  1.0000
  C   C47       1.0  0.04861  0.06630  0.73341  1.0000
  H   H40       1.0  0.18731  0.05709  0.65986  1.0000
  S   S13       1.0  0.31569  0.10478  0.73256  1.0000
  C   C48       1.0  0.39187  0.41236  0.54488  1.0000
  C   C49       1.0  0.30088  0.32023  0.65273  1.0000
  H   H41       1.0  0.43360  0.41576  0.65803  1.0000
  C   C50       1.0  0.29178  0.26733  0.72958  1.0000
  C   C51       1.0  0.29882  0.30968  0.70566  1.0000
  H   H42       1.0  0.35877  0.02123  0.67134  1.0000
  H   H43       1.0  0.15169  0.09646  0.68590  1.0000
  H   H44       1.0  0.48486  0.07103  0.76200  1.0000
  C   C52       1.0  0.36161  0.00457  0.64189  1.0000
  H   H45       1.0  0.30319  0.33480  0.72784  1.0000
  S   S14       1.0  0.41799  0.14201  0.64760  1.0000
  H   H46       1.0  0.47908  0.34863  0.58488  1.0000
  H   H47       1.0  0.29934  0.98236  0.62275  1.0000
  C   C53       1.0  0.07247  0.47113  0.74353  1.0000
  C   C54       1.0  0.51815  0.99644  0.75604  1.0000
  H   H48       1.0  0.24491  0.13434  0.54668  1.0000
  H   H49       1.0  0.08645  0.17617  0.56728  1.0000
  C   C55       1.0  0.51790  0.03699  0.74817  1.0000
  S   S15       1.0  0.51878  0.00777  0.62569  1.0000
  C   C56       1.0  0.40998  0.08376  0.78556  1.0000
  H   H50       1.0  0.18609  0.14774  0.55888  1.0000
  H   H51       1.0  0.08072  0.06918  0.55760  1.0000
  H   H52       1.0  0.37526  0.18193  0.78643  1.0000
  H   H53       1.0  0.14135  0.45554  0.79141  1.0000
  C   C57       1.0  0.15142  0.99458  0.93139  1.0000
  C   C58       1.0  0.14207  0.41666  0.88682  1.0000
  C   C59       1.0  0.08588  0.32858  0.87664  1.0000
  H   H54       1.0  0.45976  0.07044  0.88825  1.0000
  H   H55       1.0  0.53244  0.24926  0.86766  1.0000
  H   H56       1.0  0.03628  0.03643  0.95932  1.0000
  H   H57       1.0  0.23801  0.08833  0.83020  1.0000
  H   H58       1.0  0.45604  0.42473  0.93644  1.0000
  H   H59       1.0  0.04368  0.20246  0.88976  1.0000
  C   C60       1.0  0.52818  0.29938  0.90095  1.0000
  C   C61       1.0  0.48835  0.43346  0.93617  1.0000
  H   H60       1.0  0.06426  0.31300  0.00625  1.0000
  H   H61       1.0  0.20227  0.34519  0.80202  1.0000
  P   P1        1.0  0.17799  0.47457  0.88891  1.0000
  C   C62       1.0  0.21070  0.28020  0.96556  1.0000
  C   C63       1.0  0.03384  0.00392  0.97121  1.0000
  C   C64       1.0  0.51012  0.44918  0.97746  1.0000
  C   C65       1.0  0.39767  0.21382  0.99792  1.0000
  C   C66       1.0  0.32654  0.30491  0.81946  1.0000
  H   H62       1.0  0.26336  0.34181  0.92784  1.0000
  C   C67       1.0  0.42271  0.06167  0.82418  1.0000
  H   H63       1.0  0.12080  0.18651  0.86793  1.0000
  H   H64       1.0  0.10242  0.23974  0.94030  1.0000
  H   H65       1.0  0.37676  0.09622  0.93371  1.0000
  C   C68       1.0  0.33606  0.08651  0.99788  1.0000
  C   C69       1.0  0.23669  0.23316  0.82173  1.0000
  C   C70       1.0  0.40253  0.24250  0.90811  1.0000
  H   H66       1.0  0.18879  0.39678  0.88075  1.0000
  H   H67       1.0  0.16735  0.35578  0.99744  1.0000
  C   C71       1.0  0.38630  0.37977  0.85591  1.0000
  H   H68       1.0  0.25627  0.06296  0.91346  1.0000
  C   C72       1.0  0.03812  0.20656  0.92788  1.0000
  H   H69       1.0  0.46546  0.00198  0.90177  1.0000
  H   H70       1.0  0.21924  0.16371  0.82401  1.0000
  C   C73       1.0  0.30730  0.21511  0.81974  1.0000
  C   C74       1.0  0.30867  0.16018  0.88752  1.0000
  C   C75       1.0  0.32897  0.98498  0.80410  1.0000
  C   C76       1.0  0.25473  0.47775  0.88465  1.0000
  C   C77       1.0  0.29378  0.18925  0.86893  1.0000
  C   C78       1.0  0.34617  0.35506  0.88012  1.0000
  C   C79       1.0  0.19316  0.01446  0.94163  1.0000
  C   C80       1.0  0.09951  0.40229  0.88614  1.0000
  C   C81       1.0  0.31650  0.31743  0.86242  1.0000
  C   C82       1.0  0.15619  0.38648  0.88197  1.0000
  C   C83       1.0  0.12813  0.34255  0.87724  1.0000
  H   H71       1.0  0.16887  0.26837  0.84905  1.0000
  C   C84       1.0  0.34872  0.07274  0.95830  1.0000
  C   C85       1.0  0.18008  0.24556  0.84431  1.0000
  C   C86       1.0  0.39697  0.36668  0.81422  1.0000
  C   C87       1.0  0.41206  0.21839  0.94763  1.0000
  H   H72       1.0  0.29923  0.14147  0.92603  1.0000
  Fe  Fe8       1.0  0.51340  0.10968  0.98297  1.0000
  C   C88       1.0  0.32525  0.02899  0.95019  1.0000
  C   C89       1.0  0.45088  0.00080  0.79771  1.0000
  P   P2        1.0  0.40851  0.00369  0.82719  1.0000
  C   C90       1.0  0.35209  0.18371  0.80896  1.0000
  H   H73       1.0  0.09763  0.02752  0.94870  1.0000
  H   H74       1.0  0.17207  0.12591  0.97520  1.0000
  C   C91       1.0  0.14136  0.00856  0.88370  1.0000
  H   H75       1.0  0.49064  0.41775  0.86277  1.0000
  S   S16       1.0  0.43874  0.19219  0.92901  1.0000
  C   C92       1.0  0.06405  0.23375  0.00574  1.0000
  C   C93       1.0  0.17241  0.04240  0.84752  1.0000
  C   C94       1.0  0.16735  0.17012  0.84754  1.0000
  H   H76       1.0  0.49750  0.37765  0.80192  1.0000
  C   C95       1.0  0.44665  0.15229  0.81851  1.0000
  H   H77       1.0  0.33837  0.36436  0.91355  1.0000
  C   C96       1.0  0.50823  0.42947  0.89439  1.0000
  H   H78       1.0  0.48062  0.14964  0.88255  1.0000
  S   S17       1.0  0.28885  0.40693  0.79392  1.0000
  H   H79       1.0  0.40916  0.40908  0.86943  1.0000
  C   C97       1.0  0.17849  0.33403  0.98807  1.0000
  C   C98       1.0  0.07160  0.35844  0.88115  1.0000
  P   P3        1.0  0.28995  0.25475  0.79781  1.0000
  C   C99       1.0  0.15303  0.19944  0.85493  1.0000
  H   H80       1.0  0.24194  0.29829  0.81769  1.0000
  C   C100      1.0  0.17210  0.26075  0.99365  1.0000
  H   H81       1.0  0.52716  0.35483  0.92384  1.0000
  C   C101      1.0  0.22413  0.04818  0.90536  1.0000
  H   H82       1.0  0.24910  0.47113  0.84669  1.0000
  C   C102      1.0  0.37137  0.23091  0.00787  1.0000
  C   C103      1.0  0.27667  0.01240  0.02195  1.0000
  C   C104      1.0  0.37567  0.25840  0.91796  1.0000
  H   H83       1.0  0.28646  0.29736  0.88368  1.0000
  H   H84       1.0  0.10954  0.99293  0.87406  1.0000
  C   C105      1.0  0.30033  0.05621  0.03055  1.0000
  H   H85       1.0  0.45602  0.18733  0.81623  1.0000
  H   H86       1.0  0.27309  0.19304  0.89356  1.0000
  C   C106      1.0  0.21379  0.06243  0.85846  1.0000
  C   C107      1.0  0.28906  0.99887  0.98178  1.0000
  H   H87       1.0  0.40547  0.19575  0.02878  1.0000
  C   C108      1.0  0.35863  0.25113  0.96741  1.0000
  H   H88       1.0  0.23539  0.38930  0.94913  1.0000
  H   H89       1.0  0.41423  0.24696  0.86928  1.0000
  H   H90       1.0  0.12862  0.43595  0.98708  1.0000
  H   H91       1.0  0.15545  0.22493  0.00733  1.0000
  C   C109      1.0  0.13087  0.46822  0.97433  1.0000
  H   H92       1.0  0.24563  0.18230  0.97543  1.0000
  H   H93       1.0  0.06430  0.29509  0.87099  1.0000
  C   C110      1.0  0.19309  0.11638  0.99418  1.0000
  C   C111      1.0  0.17834  0.07282  0.02065  1.0000
  C   C112      1.0  0.33755  0.15712  0.85729  1.0000
  H   H94       1.0  0.33207  0.00901  0.82724  1.0000
  H   H95       1.0  0.35001  0.13554  0.87178  1.0000
  H   H96       1.0  0.36677  0.27476  0.88679  1.0000
  H   H97       1.0  0.50907  0.27605  0.93460  1.0000
  H   H98       1.0  0.14618  0.13438  0.85453  1.0000
  H   H99       1.0  0.20211  0.00417  0.97745  1.0000
  H   H100      1.0  0.08802  0.42547  0.88727  1.0000
  H   H101      1.0  0.13935  0.31969  0.87280  1.0000
  S   S18       1.0  0.31719  0.26173  0.97425  1.0000
  H   H102      1.0  0.33520  0.01867  0.91934  1.0000
  C   C113      1.0  0.43428  0.98289  0.92057  1.0000
  C   C114      1.0  0.07131  0.22775  0.95672  1.0000
  C   C115      1.0  0.22159  0.26241  0.82697  1.0000
  H   H103      1.0  0.29400  0.16116  0.01865  1.0000
  H   H104      1.0  0.03910  0.34822  0.87864  1.0000
  C   C116      1.0  0.15565  0.28755  0.00508  1.0000
  C   C117      1.0  0.44841  0.08589  0.85903  1.0000
  C   C118      1.0  0.23316  0.32649  0.94883  1.0000
  C   C119      1.0  0.36715  0.32979  0.79553  1.0000
  C   C120      1.0  0.46050  0.13102  0.85591  1.0000
  C   C121      1.0  0.20891  0.18689  0.83053  1.0000
  C   C122      1.0  0.21718  0.35332  0.96037  1.0000
  Fe  Fe9       1.0  0.46662  0.16107  0.98414  1.0000
  H   H105      1.0  0.22380  0.25962  0.95786  1.0000
  C   C123      1.0  0.06850  0.99853  0.96479  1.0000
  S   S19       1.0  0.44591  0.08778  0.99578  1.0000
  C   C124      1.0  0.23468  0.14817  0.99421  1.0000
  H   H106      1.0  0.51516  0.36132  0.00569  1.0000
  H   H107      1.0  0.35409  0.12090  0.00265  1.0000
  H   H108      1.0  0.14575  0.04867  0.02263  1.0000
  C   C125      1.0  0.26180  0.13629  0.01974  1.0000
  H   H109      1.0  0.49445  0.45216  0.00959  1.0000
  H   H110      1.0  0.05722  0.37201  0.03744  1.0000
  C   C126      1.0  0.07850  0.32409  0.04021  1.0000
  S   S20       1.0  0.32829  0.35844  0.03542  1.0000
  H   H111      1.0  0.16431  0.05244  0.81062  1.0000
  H   H112      1.0  0.46780  0.27960  0.02812  1.0000
  H   H113      1.0  0.42819  0.38597  0.79579  1.0000
  H   H114      1.0  0.09563  0.46382  0.04158  1.0000
  S   S21       1.0  0.53321  0.07765  0.93093  1.0000
  H   H115      1.0  0.48367  0.36344  0.22686  1.0000
  C   C127      1.0  0.19647  0.12935  0.13305  1.0000
  C   C128      1.0  0.19960  0.40117  0.27050  1.0000
  S   S22       1.0  0.31026  0.33972  0.15965  1.0000
  C   C129      1.0  0.35822  0.11223  0.11618  1.0000
  H   H116      1.0  0.13954  0.30994  0.12823  1.0000
  C   C130      1.0  0.42465  0.27364  0.21607  1.0000
  C   C131      1.0  0.11126  0.16352  0.17805  1.0000
  H   H117      1.0  0.17211  0.26672  0.10682  1.0000
  C   C132      1.0  0.50501  0.29828  0.14340  1.0000
  C   C133      1.0  0.24512  0.44220  0.12060  1.0000
  C   C134      1.0  0.10764  0.22340  0.09661  1.0000
  C   C135      1.0  0.38674  0.13878  0.14695  1.0000
  C   C136      1.0  0.26164  0.41920  0.09935  1.0000
  C   C137      1.0  0.50349  0.45960  0.11552  1.0000
  H   H118      1.0  0.40274  0.19070  0.19044  1.0000
  C   C138      1.0  0.12068  0.32231  0.10863  1.0000
  C   C139      1.0  0.19151  0.13102  0.23661  1.0000
  H   H119      1.0  0.10053  0.39462  0.24165  1.0000
  C   C140      1.0  0.45664  0.38741  0.16701  1.0000
  S   S23       1.0  0.04632  0.02696  0.25148  1.0000
  Fe  Fe10      1.0  0.27410  0.33575  0.09197  1.0000
  H   H120      1.0  0.41239  0.13338  0.15738  1.0000
  C   C141      1.0  0.22800  0.98326  0.23308  1.0000
  H   H121      1.0  0.42733  0.28070  0.17488  1.0000
  C   C142      1.0  0.21459  0.01378  0.21530  1.0000
  H   H122      1.0  0.42595  0.35876  0.17603  1.0000
  C   C143      1.0  0.04592  0.38729  0.20773  1.0000
  C   C144      1.0  0.18807  0.33980  0.22937  1.0000
  H   H123      1.0  0.22006  0.43430  0.27810  1.0000
  Fe  Fe11      1.0  0.36366  0.35879  0.10305  1.0000
  H   H124      1.0  0.06083  0.42154  0.18765  1.0000
  C   C145      1.0  0.46239  0.17974  0.25356  1.0000
  C   C146      1.0  0.37752  0.99507  0.14148  1.0000
  H   H125      1.0  0.17504  0.21380  0.17791  1.0000
  H   H126      1.0  0.47453  0.09421  0.22671  1.0000
  P   P4        1.0  0.49851  0.27054  0.20873  1.0000
  S   S24       1.0  0.52335  0.10919  0.06511  1.0000
  H   H127      1.0  0.24670  0.40030  0.22401  1.0000
  S   S25       1.0  0.35046  0.28810  0.10805  1.0000
  H   H128      1.0  0.13400  0.06896  0.24175  1.0000
  H   H129      1.0  0.36510  0.27045  0.22169  1.0000
  C   C147      1.0  0.50356  0.16060  0.18246  1.0000
  S   S26       1.0  0.47285  0.16486  0.06637  1.0000
  C   C148      1.0  0.48425  0.98095  0.11968  1.0000
  H   H130      1.0  0.04759  0.11930  0.16833  1.0000
  C   C149      1.0  0.32391  0.11770  0.10411  1.0000
  C   C150      1.0  0.22848  0.03944  0.16627  1.0000
  C   C151      1.0  0.25572  0.03462  0.13458  1.0000
  C   C152      1.0  0.06828  0.37164  0.23841  1.0000
  H   H131      1.0  0.53226  0.02591  0.06000  1.0000
  H   H132      1.0  0.13360  0.37029  0.15727  1.0000
  C   C153      1.0  0.26883  0.00379  0.15271  1.0000
  H   H133      1.0  0.09249  0.40151  0.11241  1.0000
  C   C154      1.0  0.24709  0.09267  0.04665  1.0000
  H   H134      1.0  0.31697  0.42298  0.06801  1.0000
  C   C155      1.0  0.48910  0.39023  0.19593  1.0000
  C   C156      1.0  0.14649  0.31650  0.24922  1.0000
  C   C157      1.0  0.45582  0.26995  0.24271  1.0000
  H   H135      1.0  0.45642  0.01525  0.23483  1.0000
  C   C158      1.0  0.10099  0.30544  0.06616  1.0000
  H   H136      1.0  0.19341  0.02748  0.06771  1.0000
  C   C159      1.0  0.31864  0.14993  0.12328  1.0000
  H   H137      1.0  0.18887  0.13236  0.27638  1.0000
  C   C160      1.0  0.48825  0.21368  0.21281  1.0000
  H   H138      1.0  0.19837  0.12959  0.09293  1.0000
  H   H139      1.0  0.29156  0.15317  0.11624  1.0000
  H   H140      1.0  0.51948  0.15308  0.15483  1.0000
  S   S27       1.0  0.26489  0.21209  0.22581  1.0000
  C   C161      1.0  0.14449  0.23484  0.12011  1.0000
  C   C162      1.0  0.53254  0.34441  0.12962  1.0000
  C   C163      1.0  0.38123  0.17092  0.16575  1.0000
  H   H141      1.0  0.04381  0.17102  0.09713  1.0000
  C   C164      1.0  0.45744  0.13680  0.25866  1.0000
  S   S28       1.0  0.25332  0.26395  0.09274  1.0000
  H   H142      1.0  0.52768  0.22863  0.14460  1.0000
  H   H143      1.0  0.25548  0.18851  0.12844  1.0000
  H   H144      1.0  0.19980  0.32544  0.20500  1.0000
  C   C165      1.0  0.38919  0.26786  0.24244  1.0000
  C   C166      1.0  0.07474  0.35794  0.05749  1.0000
  H   H145      1.0  0.44584  0.18588  0.28158  1.0000
  S   S29       1.0  0.23065  0.36343  0.09306  1.0000
  C   C167      1.0  0.47828  0.12736  0.22323  1.0000
  H   H146      1.0  0.34232  0.20079  0.16924  1.0000
  C   C168      1.0  0.04883  0.32711  0.26459  1.0000
  C   C169      1.0  0.09444  0.37445  0.09979  1.0000
  Fe  Fe12      1.0  0.29276  0.26853  0.15763  1.0000
  C   C170      1.0  0.48572  0.29751  0.05669  1.0000
  H   H147      1.0  0.21229  0.42600  0.13204  1.0000
  C   C171      1.0  0.48182  0.27482  0.10638  1.0000
  C   C172      1.0  0.44413  0.00007  0.27400  1.0000
  H   H148      1.0  0.05197  0.25276  0.22508  1.0000
  Fe  Fe13      1.0  0.45749  0.09303  0.07710  1.0000
  C   C173      1.0  0.35952  0.98945  0.09544  1.0000
  C   C174      1.0  0.22579  0.16525  0.20447  1.0000
  H   H149      1.0  0.46053  0.23928  0.11577  1.0000
  H   H150      1.0  0.21922  0.06424  0.15391  1.0000
  H   H151      1.0  0.11272  0.14020  0.20902  1.0000
  H   H152      1.0  0.19393  0.01812  0.23968  1.0000
  H   H153      1.0  0.40517  0.03015  0.27293  1.0000
  C   C175      1.0  0.52872  0.42752  0.18428  1.0000
  S   S30       1.0  0.42318  0.04337  0.14825  1.0000
  C   C176      1.0  0.50825  0.20345  0.17691  1.0000
  C   C177      1.0  0.13101  0.33554  0.27979  1.0000
  C   C178      1.0  0.34730  0.17667  0.15373  1.0000
  H   H154      1.0  0.36195  0.08603  0.10400  1.0000
  C   C179      1.0  0.30408  0.44037  0.08451  1.0000
  C   C180      1.0  0.46399  0.42214  0.12678  1.0000
  S   S31       1.0  0.42487  0.42173  0.09046  1.0000
  S   S32       1.0  0.12393  0.05355  0.13534  1.0000
  C   C181      1.0  0.07258  0.18147  0.11446  1.0000
  C   C182      1.0  0.15990  0.09567  0.21676  1.0000
  C   C183      1.0  0.16199  0.09534  0.16451  1.0000
  H   H155      1.0  0.37473  0.01459  0.06158  1.0000
  C   C184      1.0  0.15806  0.37809  0.29036  1.0000
  C   C185      1.0  0.07451  0.15177  0.15501  1.0000
  P   P5        1.0  0.28160  0.07558  0.07753  1.0000
  H   H156      1.0  0.29143  0.00126  0.13004  1.0000
  C   C186      1.0  0.50438  0.98286  0.20617  1.0000
  Fe  Fe14      1.0  0.06076  0.01314  0.17755  1.0000
  C   C187      1.0  0.14627  0.20502  0.16058  1.0000
  H   H157      1.0  0.12688  0.28395  0.24008  1.0000
  C   C188      1.0  0.21461  0.38206  0.24005  1.0000
  H   H158      1.0  0.35884  0.22588  0.04630  1.0000
  C   C189      1.0  0.22848  0.16343  0.15307  1.0000
  C   C190      1.0  0.11748  0.35673  0.12523  1.0000
  C   C191      1.0  0.04553  0.23031  0.26124  1.0000
  H   H159      1.0  0.24868  0.98879  0.04625  1.0000
  C   C192      1.0  0.52448  0.01407  0.10074  1.0000
  H   H160      1.0  0.43741  0.11081  0.29007  1.0000
  H   H161      1.0  0.52888  0.33232  0.28246  1.0000
  H   H162      1.0  0.43926  0.42416  0.29056  1.0000
  C   C193      1.0  0.20524  0.06106  0.04678  1.0000
  P   P6        1.0  0.10653  0.26218  0.04329  1.0000
  Fe  Fe15      1.0  0.31188  0.28695  0.04384  1.0000
  C   C194      1.0  0.51261  0.34356  0.04376  1.0000
  H   H163      1.0  0.35648  0.25303  0.31558  1.0000
  C   C195      1.0  0.50165  0.23323  0.45271  1.0000
  H   H164      1.0  0.11267  0.12878  0.41227  1.0000
  C   C196      1.0  0.49083  0.37011  0.33780  1.0000
  C   C197      1.0  0.38282  0.36955  0.53917  1.0000
  H   H165      1.0  0.22692  0.40436  0.43148  1.0000
  H   H166      1.0  0.12603  0.99041  0.41890  1.0000
  C   C198      1.0  0.50300  0.45695  0.30916  1.0000
  C   C199      1.0  0.21867  0.36246  0.50416  1.0000
  H   H167      1.0  0.37619  0.99663  0.36293  1.0000
  C   C200      1.0  0.03875  0.45714  0.46123  1.0000
  H   H168      1.0  0.31333  0.19721  0.50773  1.0000
  H   H169      1.0  0.48618  0.33666  0.34898  1.0000
  H   H170      1.0  0.45106  0.20934  0.40586  1.0000
  C   C201      1.0  0.06698  0.12029  0.46925  1.0000
  S   S33       1.0  0.48406  0.01788  0.48090  1.0000
  H   H171      1.0  0.12064  0.31901  0.47900  1.0000
  C   C202      1.0  0.04477  0.21685  0.35315  1.0000
  C   C203      1.0  0.09302  0.16697  0.53308  1.0000
  C   C204      1.0  0.07241  0.33606  0.46644  1.0000
  H   H172      1.0  0.41136  0.24701  0.36365  1.0000
  H   H173      1.0  0.42943  0.40607  0.42518  1.0000
  H   H174      1.0  0.05012  0.22829  0.38903  1.0000
  H   H175      1.0  0.51618  0.98852  0.37236  1.0000
  H   H176      1.0  0.48977  0.25020  0.47218  1.0000
  C   C205      1.0  0.52868  0.40676  0.34356  1.0000
  H   H177      1.0  0.40335  0.32566  0.42577  1.0000
  H   H178      1.0  0.07141  0.34304  0.50436  1.0000
  C   C206      1.0  0.05424  0.24696  0.30683  1.0000
  H   H179      1.0  0.22637  0.11572  0.34201  1.0000
  C   C207      1.0  0.29257  0.24574  0.49769  1.0000
  C   C208      1.0  0.48320  0.41505  0.46360  1.0000
  C   C209      1.0  0.46472  0.41990  0.30455  1.0000
  C   C210      1.0  0.20342  0.33550  0.42481  1.0000
  C   C211      1.0  0.26007  0.04230  0.45193  1.0000
  P   P7        1.0  0.10595  0.01300  0.51202  1.0000
  C   C212      1.0  0.49139  0.34948  0.48373  1.0000
  H   H180      1.0  0.38385  0.43209  0.51656  1.0000
  C   C213      1.0  0.45888  0.37667  0.31828  1.0000
  C   C214      1.0  0.20093  0.11662  0.41414  1.0000
  C   C215      1.0  0.21566  0.17527  0.54169  1.0000
  C   C216      1.0  0.43229  0.34509  0.44131  1.0000
  C   C217      1.0  0.19092  0.28321  0.50389  1.0000
  C   C218      1.0  0.43981  0.05888  0.45084  1.0000
  H   H181      1.0  0.32274  0.27321  0.48167  1.0000
  H   H182      1.0  0.50823  0.33319  0.50048  1.0000
  C   C219      1.0  0.20339  0.09624  0.37433  1.0000
  H   H183      1.0  0.33105  0.03349  0.52500  1.0000
  C   C220      1.0  0.53122  0.18798  0.40312  1.0000
  C   C221      1.0  0.44689  0.39040  0.44130  1.0000
  C   C222      1.0  0.14690  0.02554  0.41806  1.0000
  C   C223      1.0  0.10122  0.31344  0.40320  1.0000
  P   P8        1.0  0.07708  0.30647  0.30509  1.0000
  C   C224      1.0  0.24884  0.16756  0.53459  1.0000
  H   H184      1.0  0.26467  0.28730  0.49382  1.0000
  H   H185      1.0  0.12262  0.30272  0.39255  1.0000
  H   H186      1.0  0.47747  0.16952  0.36151  1.0000
  C   C225      1.0  0.14035  0.17268  0.46599  1.0000
  C   C226      1.0  0.47197  0.07653  0.52864  1.0000
  H   H187      1.0  0.47412  0.25688  0.31739  1.0000
  C   C227      1.0  0.04695  0.33166  0.38297  1.0000
  C   C228      1.0  0.45484  0.32477  0.46191  1.0000
  C   C229      1.0  0.39844  0.98956  0.34606  1.0000
  H   H188      1.0  0.20304  0.34216  0.38383  1.0000
  C   C230      1.0  0.45388  0.10342  0.53283  1.0000
  H   H189      1.0  0.06774  0.01122  0.41499  1.0000
  H   H190      1.0  0.17979  0.26524  0.42934  1.0000
  H   H191      1.0  0.43441  0.04191  0.41904  1.0000
  H   H192      1.0  0.49372  0.44984  0.46380  1.0000
  C   C231      1.0  0.41517  0.00890  0.29570  1.0000
  C   C232      1.0  0.28732  0.20285  0.51258  1.0000
  H   H193      1.0  0.44312  0.28948  0.46272  1.0000
  H   H194      1.0  0.31542  0.08971  0.48038  1.0000
  C   C233      1.0  0.42152  0.08526  0.45518  1.0000
  H   H195      1.0  0.42956  0.34838  0.31363  1.0000
  H   H196      1.0  0.40186  0.08832  0.42680  1.0000
  H   H197      1.0  0.17780  0.03483  0.34519  1.0000
  C   C234      1.0  0.25949  0.25358  0.50495  1.0000
  H   H198      1.0  0.36809  0.35670  0.50621  1.0000
  C   C235      1.0  0.42826  0.10734  0.49630  1.0000
  C   C236      1.0  0.23408  0.99732  0.44996  1.0000
  P   P9        1.0  0.17744  0.22763  0.53694  1.0000
  C   C237      1.0  0.17622  0.05073  0.37618  1.0000
  H   H199      1.0  0.25380  0.06758  0.43153  1.0000
  H   H200      1.0  0.14704  0.39396  0.31329  1.0000
  C   C238      1.0  0.05989  0.13425  0.51251  1.0000
  C   C239      1.0  0.22076  0.21837  0.52740  1.0000
  C   C240      1.0  0.04503  0.00378  0.44576  1.0000
  C   C241      1.0  0.30321  0.02224  0.50543  1.0000
  C   C242      1.0  0.07484  0.31817  0.36816  1.0000
  H   H201      1.0  0.22931  0.38964  0.52512  1.0000
  C   C243      1.0  0.20639  0.31914  0.53010  1.0000
  H   H202      1.0  0.20773  0.98753  0.42754  1.0000
  H   H203      1.0  0.22194  0.15195  0.41257  1.0000
  C   C244      1.0  0.05510  0.00359  0.49636  1.0000
  C   C245      1.0  0.21719  0.37068  0.45155  1.0000
  C   C246      1.0  0.29469  0.05474  0.47946  1.0000
  C   C247      1.0  0.04578  0.34045  0.43201  1.0000
  C   C248      1.0  0.10716  0.13968  0.44582  1.0000
  C   C249      1.0  0.14436  0.04564  0.45836  1.0000
  C   C250      1.0  0.41530  0.25477  0.32243  1.0000
  C   C251      1.0  0.03389  0.46638  0.37045  1.0000
  C   C252      1.0  0.19011  0.29188  0.45084  1.0000
  H   H204      1.0  0.16983  0.98588  0.52059  1.0000
  C   C253      1.0  0.10006  0.32243  0.45211  1.0000
  C   C254      1.0  0.17138  0.09145  0.45587  1.0000
  H   H205      1.0  0.04137  0.09402  0.45435  1.0000
  H   H206      1.0  0.17131  0.18713  0.44739  1.0000
  C   C255      1.0  0.49487  0.18812  0.38988  1.0000
  C   C256      1.0  0.46448  0.05384  0.48787  1.0000
  C   C257      1.0  0.48017  0.21084  0.41455  1.0000
  S   S34       1.0  0.40364  0.13918  0.49922  1.0000
  H   H207      1.0  0.16964  0.10768  0.48614  1.0000
  C   C258      1.0  0.50508  0.39440  0.48610  1.0000
  C   C259      1.0  0.13369  0.18641  0.51010  1.0000
  C   C260      1.0  0.38437  0.25811  0.29551  1.0000
  C   C261      1.0  0.45089  0.26070  0.29616  1.0000
  Fe  Fe16      1.0  0.52091  0.00639  0.54222  1.0000
  H   H208      1.0  0.36572  0.88908  0.61985  1.0000
  C   C262      1.0  0.17743  0.51503  0.73631  1.0000
  C   C263      1.0  0.24257  0.89070  0.58067  1.0000
  H   H209      1.0  0.50192  0.72932  0.60706  1.0000
  C   C264      1.0  0.33206  0.69948  0.60769  1.0000
  H   H210      1.0  0.28617  0.51074  0.76674  1.0000
  C   C265      1.0  0.17060  0.83113  0.59235  1.0000
  C   C266      1.0  0.45156  0.65499  0.55848  1.0000
  H   H211      1.0  0.38064  0.93696  0.75897  1.0000
  H   H212      1.0  0.18259  0.96946  0.74608  1.0000
  H   H213      1.0  0.40904  0.81313  0.75995  1.0000
  C   C267      1.0  0.41734  0.88768  0.65499  1.0000
  C   C268      1.0  0.29226  0.96354  0.78124  1.0000
  Fe  Fe17      1.0  0.05878  0.93985  0.74695  1.0000
  C   C269      1.0  0.45159  0.73891  0.78733  1.0000
  H   H214      1.0  0.10376  0.80804  0.78016  1.0000
  H   H215      1.0  0.42157  0.73679  0.79141  1.0000
  C   C270      1.0  0.10606  0.54841  0.75460  1.0000
  H   H216      1.0  0.27026  0.68977  0.60406  1.0000
  C   C271      1.0  0.25579  0.51801  0.64724  1.0000
  H   H217      1.0  0.38519  0.69931  0.69948  1.0000
  H   H218      1.0  0.14434  0.80104  0.66998  1.0000
  H   H219      1.0  0.22400  0.76379  0.62090  1.0000
  H   H220      1.0  0.50780  0.79294  0.64343  1.0000
  C   C272      1.0  0.39964  0.82992  0.72955  1.0000
  H   H221      1.0  0.27235  0.90032  0.65067  1.0000
  C   C273      1.0  0.35737  0.81523  0.72520  1.0000
  S   S35       1.0  0.40761  0.63121  0.70293  1.0000
  C   C274      1.0  0.35633  0.94463  0.76610  1.0000
  H   H222      1.0  0.30518  0.86051  0.55533  1.0000
  C   C275      1.0  0.23401  0.57639  0.76606  1.0000
  C   C276      1.0  0.31933  0.92296  0.74370  1.0000
  C   C277      1.0  0.29752  0.61049  0.59382  1.0000
  C   C278      1.0  0.47972  0.64149  0.54592  1.0000
  C   C279      1.0  0.16065  0.73173  0.60237  1.0000
  H   H223      1.0  0.23997  0.61160  0.59186  1.0000
  C   C280      1.0  0.33544  0.48835  0.54853  1.0000
  S   S36       1.0  0.42530  0.48540  0.58821  1.0000
  C   C281      1.0  0.48491  0.95807  0.78456  1.0000
  S   S37       1.0  0.15078  0.61917  0.67593  1.0000
  C   C282      1.0  0.52805  0.48222  0.55109  1.0000
  C   C283      1.0  0.06423  0.70056  0.63664  1.0000
  S   S38       1.0  0.09964  0.91081  0.77156  1.0000
  H   H224      1.0  0.14230  0.81057  0.57654  1.0000
  C   C284      1.0  0.06299  0.87791  0.54963  1.0000
  C   C285      1.0  0.34369  0.68079  0.76611  1.0000
  S   S39       1.0  0.07514  0.94873  0.66393  1.0000
  H   H225      1.0  0.15973  0.50094  0.70564  1.0000
  H   H226      1.0  0.11329  0.54193  0.62986  1.0000
  H   H227      1.0  0.43394  0.64140  0.59552  1.0000
  S   S40       1.0  0.18321  0.72283  0.73674  1.0000
  C   C286      1.0  0.37561  0.63780  0.74554  1.0000
  C   C287      1.0  0.10445  0.53117  0.67028  1.0000
  H   H228      1.0  0.52936  0.71338  0.69483  1.0000
  H   H229      1.0  0.14962  0.73513  0.63773  1.0000
  C   C288      1.0  0.37517  0.87292  0.65068  1.0000
  H   H230      1.0  0.06975  0.67282  0.76395  1.0000
  H   H231      1.0  0.25943  0.61033  0.75862  1.0000
  C   C289      1.0  0.20877  0.85043  0.66557  1.0000
  Fe  Fe18      1.0  0.11279  0.91561  0.68823  1.0000
  C   C290      1.0  0.52835  0.76237  0.59463  1.0000
  S   S41       1.0  0.29289  0.82046  0.67934  1.0000
  S   S42       1.0  0.36033  0.50885  0.68082  1.0000
  H   H232      1.0  0.51230  0.52384  0.58724  1.0000
  C   C291      1.0  0.09938  0.87542  0.55213  1.0000
  S   S43       1.0  0.17611  0.94183  0.64888  1.0000
  H   H233      1.0  0.44032  0.91553  0.62763  1.0000
  C   C292      1.0  0.33123  0.96128  0.57544  1.0000
  H   H234      1.0  0.11547  0.57255  0.77930  1.0000
  C   C293      1.0  0.28985  0.67485  0.60188  1.0000
  C   C294      1.0  0.24400  0.88271  0.63363  1.0000
  Fe  Fe19      1.0  0.40472  0.56402  0.71898  1.0000
  H   H235      1.0  0.12506  0.61079  0.57837  1.0000
  Fe  Fe20      1.0  0.18712  0.66135  0.73223  1.0000
  C   C295      1.0  0.17177  0.82547  0.64504  1.0000
  C   C296      1.0  0.13351  0.71224  0.56606  1.0000
  C   C297      1.0  0.07426  0.68251  0.68195  1.0000
  Fe  Fe21      1.0  0.52017  0.94326  0.63711  1.0000
  S   S44       1.0  0.25651  0.69679  0.72322  1.0000
  C   C298      1.0  0.36944  0.67477  0.73351  1.0000
  H   H236      1.0  0.07212  0.61232  0.63924  1.0000
  Fe  Fe22      1.0  0.44145  0.50774  0.76968  1.0000
  C   C299      1.0  0.11777  0.56268  0.70230  1.0000
  C   C300      1.0  0.05320  0.60263  0.60819  1.0000
  H   H237      1.0  0.38936  0.69800  0.61350  1.0000
  H   H238      1.0  0.48351  0.61716  0.57299  1.0000
  S   S45       1.0  0.45960  0.55729  0.69655  1.0000
  C   C301      1.0  0.33950  0.63488  0.60203  1.0000
  H   H239      1.0  0.18848  0.53397  0.60026  1.0000
  H   H240      1.0  0.33882  0.70920  0.75621  1.0000
  H   H241      1.0  0.35872  0.61925  0.60548  1.0000
  H   H242      1.0  0.34522  0.73351  0.61410  1.0000
  C   C302      1.0  0.52356  0.78014  0.75326  1.0000
  H   H243      1.0  0.09300  0.66655  0.68127  1.0000
  C   C303      1.0  0.53011  0.74584  0.77908  1.0000
  P   P10       1.0  0.27484  0.55306  0.58525  1.0000
  S   S46       1.0  0.48242  0.88475  0.69963  1.0000
  C   C304      1.0  0.19445  0.53167  0.56148  1.0000
  H   H244      1.0  0.47971  0.80362  0.73881  1.0000
  C   C305      1.0  0.20327  0.74866  0.59267  1.0000
  H   H245      1.0  0.21691  0.57934  0.68939  1.0000
  S   S47       1.0  0.06082  0.84671  0.68600  1.0000
  H   H246      1.0  0.21025  0.84460  0.70633  1.0000
  C   C306      1.0  0.48455  0.77685  0.75804  1.0000
  C   C307      1.0  0.08330  0.50261  0.77524  1.0000
  H   H247      1.0  0.33427  0.78717  0.75226  1.0000
  C   C308      1.0  0.27274  0.63060  0.59484  1.0000
  C   C309      1.0  0.21012  0.55891  0.72692  1.0000
  C   C310      1.0  0.42963  0.86627  0.69447  1.0000
  C   C311      1.0  0.28740  0.93256  0.75107  1.0000
  Fe  Fe23      1.0  0.25250  0.75698  0.73380  1.0000
  S   S48       1.0  0.51645  0.93905  0.55478  1.0000
  C   C312      1.0  0.16745  0.48911  0.78521  1.0000
  C   C313      1.0  0.53175  0.79816  0.61546  1.0000
  C   C314      1.0  0.35689  0.67952  0.60741  1.0000
  C   C315      1.0  0.06142  0.68627  0.72921  1.0000
  C   C316      1.0  0.26694  0.50151  0.73564  1.0000
  C   C317      1.0  0.36915  0.96317  0.56429  1.0000
  C   C318      1.0  0.34519  0.83700  0.68585  1.0000
  C   C319      1.0  0.30707  0.49799  0.57003  1.0000
  C   C320      1.0  0.31294  0.54157  0.55968  1.0000
  C   C321      1.0  0.20601  0.86285  0.56023  1.0000
  H   H248      1.0  0.09780  0.84331  0.56283  1.0000
  H   H249      1.0  0.31571  0.89907  0.72008  1.0000
  C   C322      1.0  0.05111  0.63468  0.57068  1.0000
  H   H250      1.0  0.25893  0.91632  0.73325  1.0000
  H   H251      1.0  0.20031  0.64446  0.57233  1.0000
  P   P11       1.0  0.07869  0.69370  0.57505  1.0000
  C   C323      1.0  0.27954  0.53035  0.68850  1.0000
  Fe  Fe24      1.0  0.04485  0.84439  0.76759  1.0000
  H   H252      1.0  0.30846  0.56158  0.68422  1.0000
  Fe  Fe25      1.0  0.41392  0.49847  0.66418  1.0000
  C   C324      1.0  0.08162  0.48540  0.69089  1.0000
  C   C325      1.0  0.04225  0.72374  0.63996  1.0000
  H   H253      1.0  0.26759  0.97112  0.78667  1.0000
  C   C326      1.0  0.03781  0.70733  0.73184  1.0000
  H   H254      1.0  0.48477  0.92646  0.78962  1.0000
  C   C327      1.0  0.14122  0.61353  0.54333  1.0000
  H   H255      1.0  0.03527  0.73978  0.60640  1.0000
  C   C328      1.0  0.21924  0.74689  0.54638  1.0000
  C   C329      1.0  0.23364  0.53971  0.54356  1.0000
  H   H256      1.0  0.13185  0.51225  0.54438  1.0000
  H   H257      1.0  0.16603  0.91293  0.54461  1.0000
  C   C330      1.0  0.35711  0.60781  0.79152  1.0000
  H   H258      1.0  0.33302  0.94537  0.89884  1.0000
  C   C331      1.0  0.10687  0.72313  0.86070  1.0000
  C   C332      1.0  0.48804  0.91417  0.96230  1.0000
  H   H259      1.0  0.32791  0.49497  0.96814  1.0000
  H   H260      1.0  0.46805  0.90444  0.93209  1.0000
  H   H261      1.0  0.24336  0.56441  0.84500  1.0000
  C   C333      1.0  0.35455  0.93434  0.97096  1.0000
  C   C334      1.0  0.48106  0.71921  0.93351  1.0000
  C   C335      1.0  0.32555  0.65102  0.81218  1.0000
  C   C336      1.0  0.41181  0.81157  0.96662  1.0000
  C   C337      1.0  0.40013  0.97650  0.89320  1.0000
  H   H262      1.0  0.42812  0.49230  0.01366  1.0000
  H   H263      1.0  0.11127  0.85183  0.86295  1.0000
  S   S49       1.0  0.29237  0.65763  0.85246  1.0000
  H   H264      1.0  0.07599  0.49161  0.81599  1.0000
  Fe  Fe26      1.0  0.18449  0.70527  0.82071  1.0000
  C   C338      1.0  0.50535  0.76313  0.90719  1.0000
  C   C339      1.0  0.10362  0.85385  0.90121  1.0000
  H   H265      1.0  0.27082  0.96488  0.97554  1.0000
  H   H266      1.0  0.53309  0.97625  0.91500  1.0000
  C   C340      1.0  0.38889  0.94247  0.99814  1.0000
  C   C341      1.0  0.05528  0.76069  0.83841  1.0000
  C   C342      1.0  0.49485  0.70286  0.97636  1.0000
  H   H267      1.0  0.42714  0.75822  0.98069  1.0000
  H   H268      1.0  0.45186  0.50609  0.92286  1.0000
  C   C343      1.0  0.09035  0.81663  0.94023  1.0000
  H   H269      1.0  0.50251  0.81889  0.02139  1.0000
  C   C344      1.0  0.47747  0.88680  0.01075  1.0000
  H   H270      1.0  0.36223  0.76000  0.84884  1.0000
  C   C345      1.0  0.06558  0.95647  0.98053  1.0000
  H   H271      1.0  0.08855  0.78623  0.93246  1.0000
  C   C346      1.0  0.27075  0.49504  0.98268  1.0000
  H   H272      1.0  0.31843  0.59108  0.96041  1.0000
  S   S50       1.0  0.18400  0.64123  0.81660  1.0000
  C   C347      1.0  0.37937  0.61310  0.98600  1.0000
  H   H273      1.0  0.36189  0.57948  0.80143  1.0000
  H   H274      1.0  0.17422  0.55856  0.87748  1.0000
  C   C348      1.0  0.45983  0.60376  0.98352  1.0000
  C   C349      1.0  0.06053  0.58714  0.94673  1.0000
  S   S51       1.0  0.39029  0.51891  0.79497  1.0000
  P   P12       1.0  0.43078  0.83287  0.02423  1.0000
  C   C350      1.0  0.22527  0.48063  0.91459  1.0000
  H   H275      1.0  0.45121  0.69810  0.92083  1.0000
  C   C351      1.0  0.45415  0.53341  0.93960  1.0000
  S   S52       1.0  0.13821  0.69953  0.87981  1.0000
  Fe  Fe27      1.0  0.25336  0.68216  0.80838  1.0000
  H   H276      1.0  0.14222  0.58590  0.93244  1.0000
  C   C352      1.0  0.04228  0.72286  0.87663  1.0000
  H   H277      1.0  0.08633  0.61801  0.95378  1.0000
  C   C353      1.0  0.13853  0.55275  0.94383  1.0000
  C   C354      1.0  0.42873  0.96640  0.97287  1.0000
  C   C355      1.0  0.40964  0.64152  0.01429  1.0000
  H   H278      1.0  0.21225  0.49281  0.98788  1.0000
  H   H279      1.0  0.32366  0.91547  0.99070  1.0000
  S   S53       1.0  0.48180  0.50225  0.82870  1.0000
  S   S54       1.0  0.25383  0.74506  0.81863  1.0000
  C   C356      1.0  0.45711  0.70333  0.81020  1.0000
  H   H280      1.0  0.39511  0.72568  0.90652  1.0000
  C   C357      1.0  0.08007  0.81889  0.98942  1.0000
  C   C358      1.0  0.39551  0.75570  0.91353  1.0000
  C   C359      1.0  0.19126  0.50656  0.82489  1.0000
  C   C360      1.0  0.11944  0.75999  0.82103  1.0000
  H   H281      1.0  0.48060  0.58188  0.87027  1.0000
  C   C361      1.0  0.37685  0.77500  0.88098  1.0000
  C   C362      1.0  0.47324  0.61147  0.93201  1.0000
  C   C363      1.0  0.44078  0.52559  0.99087  1.0000
  C   C364      1.0  0.08367  0.85856  0.99978  1.0000
  C   C365      1.0  0.12847  0.94817  0.04063  1.0000
  H   H282      1.0  0.33991  0.79000  0.02239  1.0000
  H   H283      1.0  0.38455  0.93078  0.03887  1.0000
  C   C366      1.0  0.11228  0.48383  0.00521  1.0000
  H   H284      1.0  0.10231  0.53842  0.01436  1.0000
  C   C367      1.0  0.11612  0.52607  0.98995  1.0000
  H   H285      1.0  0.39136  0.85963  0.94104  1.0000
  H   H286      1.0  0.16924  0.92293  0.02248  1.0000
  H   H287      1.0  0.49971  0.67853  0.82309  1.0000
  H   H288      1.0  0.48589  0.64443  0.90899  1.0000
  H   H289      1.0  0.11947  0.92250  0.88095  1.0000
  H   H290      1.0  0.36133  0.82755  0.86536  1.0000
  H   H291      1.0  0.08520  0.59550  0.87045  1.0000
  H   H292      1.0  0.31884  0.59176  0.86094  1.0000
  H   H293      1.0  0.07027  0.79021  0.01979  1.0000
  C   C368      1.0  0.29953  0.49132  0.95294  1.0000
  C   C369      1.0  0.34149  0.61262  0.98266  1.0000
  C   C370      1.0  0.49619  0.70667  0.80592  1.0000
  C   C371      1.0  0.10799  0.89390  0.91161  1.0000
  C   C372      1.0  0.09376  0.77908  0.81016  1.0000
  H   H294      1.0  0.05810  0.67578  0.91847  1.0000
  C   C373      1.0  0.15688  0.53713  0.91274  1.0000
  C   C374      1.0  0.40138  0.66976  0.03830  1.0000
  C   C375      1.0  0.36143  0.97583  0.79665  1.0000
  H   H295      1.0  0.49432  0.77554  0.87436  1.0000
  C   C376      1.0  0.47033  0.57627  0.91009  1.0000
  C   C377      1.0  0.39337  0.83107  0.93329  1.0000
  C   C378      1.0  0.22491  0.55024  0.81477  1.0000
  H   H296      1.0  0.03808  0.70607  0.00471  1.0000
  C   C379      1.0  0.06817  0.70454  0.88817  1.0000
  H   H297      1.0  0.43096  0.67299  0.83088  1.0000
  C   C380      1.0  0.45155  0.96025  0.80569  1.0000
  C   C381      1.0  0.41331  0.77411  0.95589  1.0000
  C   C382      1.0  0.15325  0.49474  0.92776  1.0000
  C   C383      1.0  0.37616  0.81294  0.89055  1.0000
  C   C384      1.0  0.05982  0.57432  0.89970  1.0000
  C   C385      1.0  0.33318  0.63990  0.00801  1.0000
  C   C386      1.0  0.09900  0.89690  0.96135  1.0000
  P   P13       1.0  0.11107  0.95003  0.97761  1.0000
  C   C387      1.0  0.33289  0.61496  0.82532  1.0000
  H   H298      1.0  0.42612  0.93025  0.82790  1.0000
  H   H299      1.0  0.38482  0.59150  0.96602  1.0000
  C   C388      1.0  0.23374  0.48959  0.96383  1.0000
  H   H300      1.0  0.07635  0.85980  0.03837  1.0000
  H   H301      1.0  0.27720  0.50238  0.02044  1.0000
  H   H302      1.0  0.09774  0.69349  0.99910  1.0000
  P   P14       1.0  0.46102  0.64750  0.01268  1.0000
  C   C389      1.0  0.44357  0.56058  0.01278  1.0000
  H   H303      1.0  0.30355  0.63896  0.00582  1.0000
  C   C390      1.0  0.04869  0.69610  0.03951  1.0000
  C   C391      1.0  0.36008  0.95143  0.91873  1.0000
  H   H304      1.0  0.45555  0.97332  0.99383  1.0000
  C   C392      1.0  0.36304  0.66832  0.03605  1.0000
  C   C393      1.0  0.08258  0.68892  0.03606  1.0000
  H   H305      1.0  0.14936  0.77446  0.79971  1.0000
  C   C394      1.0  0.52513  0.95492  0.95223  1.0000
  C   C395      1.0  0.29154  0.48277  0.90379  1.0000
  H   H306      1.0  0.31368  0.47962  0.88058  1.0000
  C   C396      1.0  0.53331  0.73137  0.99258  1.0000
  C   C397      1.0  0.40387  0.82529  0.28350  1.0000
  H   H307      1.0  0.52785  0.77314  0.22572  1.0000
  C   C398      1.0  0.03704  0.69518  0.26467  1.0000
  H   H308      1.0  0.37198  0.96545  0.22023  1.0000
  Fe  Fe28      1.0  0.21293  0.85241  0.21789  1.0000
  H   H309      1.0  0.43036  0.48519  0.14750  1.0000
  C   C399      1.0  0.41685  0.53374  0.24084  1.0000
  C   C400      1.0  0.31836  0.81441  0.07723  1.0000
  C   C401      1.0  0.03752  0.77572  0.13066  1.0000
  C   C402      1.0  0.13018  0.50090  0.26809  1.0000
  C   C403      1.0  0.35777  0.96202  0.18494  1.0000
  H   H310      1.0  0.38830  0.76472  0.11736  1.0000
  C   C404      1.0  0.43517  0.49866  0.18214  1.0000
  H   H311      1.0  0.30226  0.77485  0.20433  1.0000
  C   C405      1.0  0.04988  0.81801  0.14186  1.0000
  H   H312      1.0  0.37790  0.88480  0.15411  1.0000
  H   H313      1.0  0.36282  0.50028  0.07920  1.0000
  C   C406      1.0  0.20238  0.64268  0.25565  1.0000
  H   H314      1.0  0.26022  0.79062  0.26135  1.0000
  H   H315      1.0  0.45450  0.62679  0.20047  1.0000
  H   H316      1.0  0.35643  0.68923  0.05599  1.0000
  H   H317      1.0  0.47731  0.72269  0.15780  1.0000
  H   H318      1.0  0.48421  0.48447  0.20141  1.0000
  C   C407      1.0  0.34915  0.81200  0.04979  1.0000
  C   C408      1.0  0.49399  0.77106  0.08839  1.0000
  S   S55       1.0  0.30750  0.52268  0.26772  1.0000
  C   C409      1.0  0.45736  0.63657  0.11921  1.0000
  H   H319      1.0  0.51922  0.90173  0.23234  1.0000
  C   C410      1.0  0.46799  0.74294  0.13188  1.0000
  H   H320      1.0  0.49745  0.88074  0.08657  1.0000
  H   H321      1.0  0.51914  0.62208  0.20565  1.0000
  H   H322      1.0  0.08829  0.65917  0.16214  1.0000
  H   H323      1.0  0.43280  0.88108  0.10605  1.0000
  C   C411      1.0  0.31882  0.92521  0.18345  1.0000
  C   C412      1.0  0.50454  0.90115  0.04888  1.0000
  H   H324      1.0  0.38617  0.51484  0.17354  1.0000
  C   C413      1.0  0.07742  0.66976  0.12786  1.0000
  C   C414      1.0  0.42989  0.74076  0.14160  1.0000
  C   C415      1.0  0.15608  0.49995  0.17021  1.0000
  C   C416      1.0  0.47426  0.96524  0.17209  1.0000
  H   H325      1.0  0.26517  0.95436  0.21551  1.0000
  C   C417      1.0  0.31397  0.50678  0.11340  1.0000
  C   C418      1.0  0.12343  0.95431  0.12922  1.0000
  S   S56       1.0  0.09430  0.51078  0.12616  1.0000
  H   H326      1.0  0.12290  0.66973  0.07758  1.0000
  H   H327      1.0  0.07878  0.93514  0.27562  1.0000
  H   H328      1.0  0.45164  0.72586  0.24469  1.0000
  C   C419      1.0  0.44406  0.79573  0.06503  1.0000
  C   C420      1.0  0.10992  0.50794  0.22644  1.0000
  C   C421      1.0  0.29919  0.92148  0.13871  1.0000
  C   C422      1.0  0.09688  0.67567  0.08023  1.0000
  C   C423      1.0  0.15131  0.93869  0.13981  1.0000
  C   C424      1.0  0.46699  0.83632  0.24180  1.0000
  H   H329      1.0  0.07761  0.83423  0.16120  1.0000
  H   H330      1.0  0.39806  0.54762  0.25166  1.0000
  H   H331      1.0  0.05617  0.76013  0.14166  1.0000
  H   H332      1.0  0.25902  0.50346  0.14569  1.0000
  C   C425      1.0  0.11176  0.95886  0.07995  1.0000
  H   H333      1.0  0.09021  0.97136  0.07299  1.0000
  H   H334      1.0  0.42464  0.69294  0.05868  1.0000
  H   H335      1.0  0.40932  0.77408  0.25429  1.0000
  H   H336      1.0  0.08557  0.51571  0.23193  1.0000
  C   C426      1.0  0.39098  0.83692  0.05871  1.0000
  H   H337      1.0  0.11147  0.96369  0.15924  1.0000
  S   S57       1.0  0.24702  0.88120  0.13920  1.0000
  C   C427      1.0  0.46575  0.49855  0.21255  1.0000
  H   H338      1.0  0.50893  0.48709  0.08528  1.0000
  S   S58       1.0  0.37250  0.62919  0.22749  1.0000
  H   H339      1.0  0.42855  0.63722  0.11860  1.0000
  C   C428      1.0  0.27151  0.48580  0.12861  1.0000
  H   H340      1.0  0.22417  0.65508  0.22211  1.0000
  C   C429      1.0  0.32887  0.84097  0.11439  1.0000
  C   C430      1.0  0.42400  0.87003  0.28919  1.0000
  C   C431      1.0  0.37017  0.86490  0.12456  1.0000
  H   H341      1.0  0.18534  0.69390  0.23792  1.0000
  H   H342      1.0  0.28613  0.79504  0.07034  1.0000
  Fe  Fe29      1.0  0.32679  0.57179  0.19407  1.0000
  C   C432      1.0  0.04345  0.67673  0.13139  1.0000
  S   S59       1.0  0.16007  0.86265  0.23984  1.0000
  C   C433      1.0  0.12237  0.50679  0.17756  1.0000
  C   C434      1.0  0.47929  0.64046  0.07426  1.0000
  C   C435      1.0  0.47177  0.51562  0.25764  1.0000
  H   H343      1.0  0.16033  0.93572  0.17792  1.0000
  C   C436      1.0  0.46626  0.89823  0.27214  1.0000
  S   S60       1.0  0.17627  0.77788  0.24186  1.0000
  S   S61       1.0  0.33249  0.71283  0.21941  1.0000
  S   S62       1.0  0.34794  0.56087  0.12249  1.0000
  H   H344      1.0  0.30478  0.84219  0.13604  1.0000
  Fe  Fe30      1.0  0.32026  0.64219  0.24079  1.0000
  C   C437      1.0  0.40117  0.86289  0.09693  1.0000
  H   H345      1.0  0.06491  0.61460  0.27134  1.0000
  C   C438      1.0  0.16455  0.49544  0.26052  1.0000
  H   H346      1.0  0.18931  0.91511  0.10995  1.0000
  H   H347      1.0  0.21803  0.96399  0.27137  1.0000
  C   C439      1.0  0.41029  0.51555  0.19671  1.0000
  C   C440      1.0  0.47091  0.73849  0.27478  1.0000
  H   H348      1.0  0.52370  0.77302  0.08114  1.0000
  C   C441      1.0  0.06265  0.67605  0.26420  1.0000
  H   H349      1.0  0.16591  0.49907  0.13249  1.0000
  H   H350      1.0  0.44297  0.93933  0.18611  1.0000
  C   C442      1.0  0.44814  0.53479  0.27055  1.0000
  C   C443      1.0  0.42531  0.80848  0.25971  1.0000
  C   C444      1.0  0.41789  0.76696  0.10845  1.0000
  C   C445      1.0  0.32047  0.95223  0.09400  1.0000
  H   H351      1.0  0.40936  0.71896  0.17496  1.0000
  C   C446      1.0  0.17747  0.49480  0.21165  1.0000
  H   H352      1.0  0.30577  0.94865  0.05903  1.0000
  S   S63       1.0  0.05760  0.75289  0.25920  1.0000
  H   H353      1.0  0.30363  0.90023  0.21721  1.0000
  S   S64       1.0  0.27585  0.58797  0.20159  1.0000
  H   H354      1.0  0.20408  0.49055  0.20579  1.0000
  C   C447      1.0  0.29364  0.75761  0.24346  1.0000
  C   C448      1.0  0.16781  0.92754  0.10129  1.0000
  H   H355      1.0  0.43949  0.64055  0.27496  1.0000
  C   C449      1.0  0.50813  0.62727  0.16902  1.0000
  C   C450      1.0  0.26969  0.76633  0.27565  1.0000
  C   C451      1.0  0.47198  0.63040  0.16619  1.0000
  Fe  Fe31      1.0  0.25961  0.54294  0.27817  1.0000
  C   C452      1.0  0.30504  0.72533  0.26135  1.0000
  C   C453      1.0  0.04512  0.62948  0.27026  1.0000
  H   H356      1.0  0.48341  0.82380  0.22189  1.0000
  H   H357      1.0  0.09588  0.69706  0.25967  1.0000
  C   C454      1.0  0.18044  0.66446  0.26455  1.0000
  C   C455      1.0  0.48741  0.88081  0.24818  1.0000
  Fe  Fe32      1.0  0.12548  0.78905  0.26920  1.0000
  C   C456      1.0  0.51544  0.63679  0.07736  1.0000
  C   C457      1.0  0.51380  0.76490  0.26423  1.0000
  C   C458      1.0  0.52984  0.63040  0.12454  1.0000
  H   H358      1.0  0.51540  0.68337  0.25369  1.0000
  P   P15       1.0  0.49176  0.95763  0.27321  1.0000
  C   C459      1.0  0.50252  0.66254  0.29070  1.0000
  H   H359      1.0  0.21363  0.58834  0.28325  1.0000
  C   C460      1.0  0.19665  0.60519  0.29035  1.0000
  H   H360      1.0  0.14253  0.92954  0.28186  1.0000
  C   C461      1.0  0.48195  0.79709  0.05480  1.0000
  C   C462      1.0  0.33007  0.48427  0.09074  1.0000
  H   H361      1.0  0.43287  0.55387  0.05261  1.0000
  C   C463      1.0  0.15653  0.93230  0.05182  1.0000
  H   H362      1.0  0.46071  0.96776  0.09372  1.0000
  C   C464      1.0  0.25466  0.97786  0.20157  1.0000
  H   H363      1.0  0.03566  0.87144  0.13828  1.0000
  H   H364      1.0  0.53271  0.63910  0.04322  1.0000
  H   H365      1.0  0.48948  0.89249  0.37662  1.0000
  H   H366      1.0  0.13140  0.68188  0.40573  1.0000
  H   H367      1.0  0.07835  0.51593  0.48992  1.0000
  C   C465      1.0  0.36931  0.52197  0.51579  1.0000
  H   H368      1.0  0.39150  0.51473  0.49961  1.0000
  H   H369      1.0  0.06985  0.53310  0.32755  1.0000
  H   H370      1.0  0.12056  0.50201  0.30569  1.0000
  C   C466      1.0  0.48734  0.80286  0.48532  1.0000
  C   C467      1.0  0.15283  0.64887  0.30824  1.0000
  Fe  Fe33      1.0  0.20050  0.79056  0.31775  1.0000
  C   C468      1.0  0.50309  0.84696  0.49227  1.0000
  C   C469      1.0  0.46858  0.60889  0.38661  1.0000
  S   S65       1.0  0.38852  0.57732  0.36473  1.0000
  H   H371      1.0  0.32087  0.60323  0.41890  1.0000
  C   C470      1.0  0.16885  0.58923  0.33389  1.0000
  C   C471      1.0  0.45458  0.50521  0.43435  1.0000
  C   C472      1.0  0.23999  0.53563  0.49330  1.0000
  H   H372      1.0  0.26162  0.69492  0.38335  1.0000
  C   C473      1.0  0.50416  0.87939  0.45294  1.0000
  C   C474      1.0  0.20779  0.52375  0.46158  1.0000
  H   H373      1.0  0.37122  0.80382  0.29624  1.0000
  C   C475      1.0  0.52853  0.54840  0.43823  1.0000
  H   H374      1.0  0.20507  0.72750  0.47338  1.0000
  C   C476      1.0  0.48872  0.86757  0.40702  1.0000
  S   S66       1.0  0.29977  0.59855  0.31802  1.0000
  H   H375      1.0  0.38952  0.75950  0.44746  1.0000
  Fe  Fe34      1.0  0.34938  0.58182  0.30225  1.0000
  H   H376      1.0  0.40582  0.88238  0.30536  1.0000
  S   S67       1.0  0.18163  0.91121  0.36892  1.0000
  C   C477      1.0  0.11000  0.90445  0.40754  1.0000
  C   C478      1.0  0.47301  0.82366  0.39992  1.0000
  S   S68       1.0  0.22471  0.75062  0.36552  1.0000
  C   C479      1.0  0.03781  0.59302  0.39413  1.0000
  H   H377      1.0  0.23893  0.65255  0.49158  1.0000
  C   C480      1.0  0.52871  0.66029  0.32695  1.0000
  H   H378      1.0  0.04158  0.79990  0.42009  1.0000
  H   H379      1.0  0.11449  0.82282  0.43516  1.0000
  C   C481      1.0  0.10333  0.95905  0.52732  1.0000
  C   C482      1.0  0.06490  0.91946  0.53738  1.0000
  H   H380      1.0  0.44713  0.92887  0.37558  1.0000
  C   C483      1.0  0.50219  0.65855  0.49810  1.0000
  H   H381      1.0  0.13667  0.66673  0.31428  1.0000
  C   C484      1.0  0.06133  0.91676  0.35616  1.0000
  C   C485      1.0  0.27053  0.71237  0.34442  1.0000
  C   C486      1.0  0.31226  0.84667  0.48149  1.0000
  C   C487      1.0  0.45943  0.63805  0.30253  1.0000
  C   C488      1.0  0.09893  0.76650  0.49535  1.0000
  C   C489      1.0  0.50159  0.52028  0.36148  1.0000
  H   H382      1.0  0.13118  0.77793  0.50098  1.0000
  C   C490      1.0  0.13528  0.91306  0.36364  1.0000
  H   H383      1.0  0.30353  0.90177  0.36908  1.0000
  C   C491      1.0  0.52053  0.77013  0.35311  1.0000
  H   H384      1.0  0.20472  0.86519  0.51960  1.0000
  C   C492      1.0  0.11963  0.60045  0.50121  1.0000
  C   C493      1.0  0.14680  0.61105  0.34333  1.0000
  H   H385      1.0  0.20108  0.62789  0.41675  1.0000
  C   C494      1.0  0.45266  0.72799  0.32432  1.0000
  H   H386      1.0  0.31332  0.71617  0.45168  1.0000
  C   C495      1.0  0.43886  0.95164  0.35288  1.0000
  C   C496      1.0  0.51167  0.63328  0.37489  1.0000
  C   C497      1.0  0.29840  0.90581  0.49531  1.0000
  C   C498      1.0  0.16215  0.51923  0.52987  1.0000
  S   S69       1.0  0.19433  0.49515  0.31102  1.0000
  H   H387      1.0  0.45563  0.58830  0.42381  1.0000
  P   P16       1.0  0.45443  0.73545  0.42708  1.0000
  C   C499      1.0  0.25742  0.74300  0.32589  1.0000
  H   H388      1.0  0.39670  0.64643  0.41324  1.0000
  H   H389      1.0  0.51732  0.91377  0.45785  1.0000
  H   H390      1.0  0.31496  0.83845  0.40357  1.0000
  H   H391      1.0  0.30402  0.67956  0.32647  1.0000
  H   H392      1.0  0.16473  0.55992  0.36016  1.0000
  H   H393      1.0  0.12978  0.69653  0.49083  1.0000
  C   C500      1.0  0.07870  0.53079  0.40782  1.0000
  C   C501      1.0  0.19267  0.72850  0.50957  1.0000
  C   C502      1.0  0.07391  0.68293  0.40203  1.0000
  P   P17       1.0  0.50933  0.51233  0.29832  1.0000
  H   H394      1.0  0.14381  0.50510  0.45551  1.0000
  H   H395      1.0  0.42331  0.49041  0.45154  1.0000
  S   S70       1.0  0.14671  0.79541  0.34696  1.0000
  C   C503      1.0  0.16883  0.51526  0.47996  1.0000
  C   C504      1.0  0.14997  0.71075  0.51962  1.0000
  C   C505      1.0  0.46122  0.50010  0.38518  1.0000
  C   C506      1.0  0.29420  0.70340  0.31213  1.0000
  H   H396      1.0  0.51513  0.85633  0.52784  1.0000
  Fe  Fe35      1.0  0.18428  0.86841  0.31637  1.0000
  C   C507      1.0  0.48812  0.52996  0.46066  1.0000
  C   C508      1.0  0.37876  0.66194  0.42166  1.0000
  C   C509      1.0  0.20557  0.63720  0.49426  1.0000
  C   C510      1.0  0.29854  0.91756  0.44248  1.0000
  C   C511      1.0  0.12335  0.92310  0.31596  1.0000
  H   H397      1.0  0.08649  0.58731  0.50422  1.0000
  C   C512      1.0  0.30530  0.87015  0.51460  1.0000
  C   C513      1.0  0.07262  0.90530  0.40376  1.0000
  C   C514      1.0  0.47260  0.79109  0.43886  1.0000
  C   C515      1.0  0.27648  0.97657  0.50519  1.0000
  C   C516      1.0  0.06201  0.51212  0.36502  1.0000
  H   H398      1.0  0.35151  0.60841  0.51706  1.0000
  C   C517      1.0  0.31107  0.85766  0.42912  1.0000
  H   H399      1.0  0.51270  0.69996  0.42503  1.0000
  P   P18       1.0  0.11193  0.59064  0.40064  1.0000
  C   C518      1.0  0.37498  0.56516  0.50456  1.0000
  C   C519      1.0  0.18407  0.63232  0.53987  1.0000
  C   C520      1.0  0.08696  0.92594  0.31233  1.0000
  H   H400      1.0  0.52354  0.64749  0.48817  1.0000
  C   C521      1.0  0.08048  0.61730  0.39830  1.0000
  C   C522      1.0  0.30441  0.89322  0.40967  1.0000
  C   C523      1.0  0.09839  0.66243  0.40268  1.0000
  H   H401      1.0  0.08747  0.71745  0.40588  1.0000
  H   H402      1.0  0.31805  0.81957  0.49652  1.0000
  C   C524      1.0  0.49608  0.68860  0.46243  1.0000
  C   C525      1.0  0.33567  0.63746  0.42470  1.0000
  C   C526      1.0  0.13976  0.95610  0.52853  1.0000
  H   H403      1.0  0.41930  0.70821  0.33080  1.0000
  H   H404      1.0  0.05291  0.89806  0.43778  1.0000
  C   C527      1.0  0.39874  0.70609  0.42944  1.0000
  H   H405      1.0  0.11902  0.89652  0.44439  1.0000
  H   H406      1.0  0.45351  0.55035  0.30357  1.0000
  C   C528      1.0  0.44233  0.61078  0.35014  1.0000
  H   H407      1.0  0.21275  0.52022  0.42293  1.0000
  C   C529      1.0  0.06669  0.50287  0.45605  1.0000
  C   C530      1.0  0.31202  0.65684  0.43553  1.0000
  H   H408      1.0  0.43471  0.48053  0.36561  1.0000
  C   C531      1.0  0.37495  0.72556  0.44081  1.0000
  C   C532      1.0  0.08963  0.79247  0.45783  1.0000
  H   H409      1.0  0.46159  0.81522  0.36377  1.0000
  C   C533      1.0  0.44536  0.68499  0.52295  1.0000
  H   H410      1.0  0.22206  0.93042  0.47284  1.0000
  C   C534      1.0  0.18398  0.62340  0.45194  1.0000
  C   C535      1.0  0.33164  0.70092  0.44369  1.0000
  H   H411      1.0  0.27860  0.63772  0.43675  1.0000
  C   C536      1.0  0.14075  0.60516  0.45517  1.0000
  C   C537      1.0  0.47740  0.74356  0.36402  1.0000
  C   C538      1.0  0.41064  0.96131  0.37482  1.0000
  H   H412      1.0  0.48265  0.53463  0.49841  1.0000
  H   H413      1.0  0.26947  0.54066  0.47863  1.0000
  H   H414      1.0  0.29356  0.94499  0.42632  1.0000
  H   H415      1.0  0.40123  0.59093  0.47891  1.0000
  C   C539      1.0  0.46742  0.70191  0.47453  1.0000
  H   H416      1.0  0.25217  0.75988  0.53909  1.0000
  H   H417      1.0  0.03610  0.92011  0.53598  1.0000
  C   C540      1.0  0.34678  0.57490  0.52623  1.0000
  P   P19       1.0  0.28751  0.93422  0.53894  1.0000
  C   C541      1.0  0.06703  0.72679  0.52466  1.0000
  H   H418      1.0  0.42255  0.69413  0.53271  1.0000
  H   H419      1.0  0.48710  0.77837  0.51591  1.0000
  C   C542      1.0  0.45609  0.97115  0.30224  1.0000
  H   H420      1.0  0.39832  0.94703  0.41429  1.0000
  H   H421      1.0  0.37349  0.94873  0.53353  1.0000
  H   H422      1.0  0.53173  0.63109  0.40296  1.0000
  C   C543      1.0  0.04851  0.77943  0.44922  1.0000
  C   C544      1.0  0.13772  0.91451  0.54138  1.0000
  C   C545      1.0  0.24215  0.96465  0.47646  1.0000
  S   S71       1.0  0.24020  0.86444  0.29269  1.0000
  C   C546      1.0  0.93551  0.18040  0.73187  1.0000
  H   H423      1.0  0.63777  0.02218  0.71765  1.0000
  C   C547      1.0  0.62991  0.28122  0.73251  1.0000
  H   H424      1.0  0.54382  0.99466  0.73921  1.0000
  Fe  Fe36      1.0  0.83555  0.04361  0.69134  1.0000
  H   H425      1.0  0.74549  0.02181  0.58209  1.0000
  C   C548      1.0  0.59090  0.17868  0.63321  1.0000
  H   H426      1.0  0.98241  0.43018  0.74954  1.0000
  H   H427      1.0  0.78909  0.45811  0.70824  1.0000
  C   C549      1.0  0.66562  0.14172  0.61766  1.0000
  C   C550      1.0  0.61417  0.22307  0.60837  1.0000
  H   H428      1.0  0.66954  0.99013  0.57755  1.0000
  H   H429      1.0  0.55461  0.11033  0.62419  1.0000
  C   C551      1.0  0.72931  0.13595  0.72806  1.0000
  C   C552      1.0  0.85703  0.25643  0.66933  1.0000
  H   H430      1.0  0.60879  0.43684  0.59338  1.0000
  H   H431      1.0  0.73165  0.47468  0.69404  1.0000
  S   S72       1.0  0.99507  0.31409  0.70659  1.0000
  C   C553      1.0  0.88849  0.24575  0.66284  1.0000
  C   C554      1.0  0.54514  0.39455  0.58174  1.0000
  C   C555      1.0  0.92612  0.41118  0.58886  1.0000
  H   H432      1.0  0.67181  0.18462  0.67048  1.0000
  H   H433      1.0  0.77823  0.18609  0.67371  1.0000
  Fe  Fe37      1.0  0.90972  0.04783  0.63612  1.0000
  C   C556      1.0  0.96577  0.44222  0.76988  1.0000
  H   H434      1.0  0.93886  0.45747  0.70347  1.0000
  C   C557      1.0  0.55496  0.44053  0.78240  1.0000
  C   C558      1.0  0.84970  0.34003  0.71475  1.0000
  S   S73       1.0  0.99097  0.33357  0.55744  1.0000
  S   S74       1.0  0.82067  0.07351  0.75025  1.0000
  S   S75       1.0  0.86947  0.99350  0.59427  1.0000
  S   S76       1.0  0.62708  0.09376  0.65791  1.0000
  C   C559      1.0  0.76755  0.17472  0.71370  1.0000
  S   S77       1.0  0.79351  0.43599  0.59177  1.0000
  H   H435      1.0  0.54371  0.06665  0.72577  1.0000
  H   H436      1.0  0.60350  0.39755  0.68083  1.0000
  H   H437      1.0  0.78991  0.38555  0.73973  1.0000
  C   C560      1.0  0.90106  0.24387  0.61448  1.0000
  H   H438      1.0  0.00329  0.39093  0.62917  1.0000
  C   C561      1.0  0.58610  0.29484  0.65268  1.0000
  H   H439      1.0  0.57574  0.30291  0.79037  1.0000
  H   H440      1.0  0.53578  0.33304  0.72023  1.0000
  C   C562      1.0  0.72459  0.22017  0.55300  1.0000
  C   C563      1.0  0.97862  0.38961  0.60690  1.0000
  H   H441      1.0  0.86020  0.40753  0.70337  1.0000
  H   H442      1.0  0.96777  0.99596  0.64722  1.0000
  Fe  Fe38      1.0  0.58817  0.03959  0.61508  1.0000
  H   H443      1.0  0.81368  0.27293  0.63092  1.0000
  C   C564      1.0  0.85136  0.26392  0.57824  1.0000
  H   H444      1.0  0.92564  0.23598  0.60969  1.0000
  S   S78       1.0  0.70455  0.35114  0.69442  1.0000
  C   C565      1.0  0.67944  0.13965  0.56995  1.0000
  C   C566      1.0  0.71379  0.12083  0.77915  1.0000
  Fe  Fe39      1.0  0.83568  0.40857  0.58004  1.0000
  C   C567      1.0  0.00889  0.99627  0.70434  1.0000
  C   C568      1.0  0.90833  0.30054  0.78050  1.0000
  S   S79       1.0  0.78852  0.33943  0.61757  1.0000
  C   C569      1.0  0.95883  0.41351  0.61665  1.0000
  C   C570      1.0  0.53837  0.35076  0.68200  1.0000
  C   C571      1.0  0.00094  0.06033  0.66897  1.0000
  Fe  Fe40      1.0  0.83156  0.02815  0.58280  1.0000
  H   H445      1.0  0.64566  0.35048  0.61938  1.0000
  H   H446      1.0  0.71288  0.42699  0.55783  1.0000
  Fe  Fe41      1.0  0.02622  0.27317  0.72725  1.0000
  C   C572      1.0  0.69250  0.47038  0.57978  1.0000
  C   C573      1.0  0.88251  0.25290  0.57221  1.0000
  S   S80       1.0  0.72066  0.35089  0.54777  1.0000
  H   H447      1.0  0.68376  0.09158  0.79001  1.0000
  H   H448      1.0  0.95525  0.20800  0.70183  1.0000
  H   H449      1.0  0.56909  0.30055  0.62230  1.0000
  C   C574      1.0  0.79061  0.19857  0.75061  1.0000
  H   H450      1.0  0.83696  0.27108  0.54555  1.0000
  C   C575      1.0  0.71107  0.22211  0.60090  1.0000
  H   H451      1.0  0.75831  0.24831  0.76676  1.0000
  Fe  Fe42      1.0  0.74451  0.36588  0.62289  1.0000
  C   C576      1.0  0.68997  0.01476  0.74093  1.0000
  H   H452      1.0  0.99310  0.18405  0.56383  1.0000
  S   S81       1.0  0.78925  0.98921  0.65414  1.0000
  S   S82       1.0  0.87347  0.01024  0.71146  1.0000
  S   S83       1.0  0.00095  0.21271  0.78960  1.0000
  H   H453      1.0  0.87955  0.35011  0.69554  1.0000
  C   C577      1.0  0.62938  0.32307  0.65110  1.0000
  S   S84       1.0  0.97941  0.08555  0.62591  1.0000
  H   H454      1.0  0.02982  0.98730  0.57507  1.0000
  C   C578      1.0  0.96665  0.36432  0.56833  1.0000
  H   H455      1.0  0.72246  0.25385  0.61269  1.0000
  C   C579      1.0  0.68225  0.18286  0.63354  1.0000
  H   H456      1.0  0.73906  0.30574  0.76964  1.0000
  P   P20       1.0  0.83677  0.25247  0.73240  1.0000
  H   H457      1.0  0.91119  0.33068  0.75804  1.0000
  S   S85       1.0  0.87472  0.08521  0.61910  1.0000
  C   C580      1.0  0.58722  0.25289  0.73364  1.0000
  C   C581      1.0  0.82169  0.29473  0.73387  1.0000
  C   C582      1.0  0.91974  0.47311  0.76975  1.0000
  H   H458      1.0  0.77378  0.12064  0.55240  1.0000
  H   H459      1.0  0.66766  0.10784  0.55813  1.0000
  C   C583      1.0  0.57638  0.38673  0.65979  1.0000
  H   H460      1.0  0.70542  0.02555  0.70273  1.0000
  Fe  Fe43      1.0  0.02335  0.32827  0.62690  1.0000
  H   H461      1.0  0.62995  0.24899  0.63039  1.0000
  H   H462      1.0  0.73808  0.00535  0.77431  1.0000
  C   C584      1.0  0.99008  0.01553  0.67144  1.0000
  H   H463      1.0  0.57111  0.22594  0.76583  1.0000
  C   C585      1.0  0.57626  0.15540  0.55178  1.0000
  C   C586      1.0  0.86947  0.11413  0.76230  1.0000
  C   C587      1.0  0.65118  0.31637  0.69141  1.0000
  C   C588      1.0  0.83874  0.26582  0.62663  1.0000
  C   C589      1.0  0.95062  0.17460  0.77869  1.0000
  C   C590      1.0  0.94121  0.45751  0.74383  1.0000
  H   H464      1.0  0.71133  0.11808  0.69939  1.0000
  C   C591      1.0  0.61746  0.23397  0.55532  1.0000
  C   C592      1.0  0.57953  0.40872  0.61008  1.0000
  C   C593      1.0  0.56497  0.26002  0.69445  1.0000
  C   C594      1.0  0.79910  0.36047  0.73902  1.0000
  C   C595      1.0  0.57191  0.14485  0.60490  1.0000
  H   H465      1.0  0.58830  0.17047  0.67437  1.0000
  H   H466      1.0  0.88365  0.15367  0.68688  1.0000
  C   C596      1.0  0.91441  0.38632  0.54985  1.0000
  C   C597      1.0  0.87558  0.25817  0.77626  1.0000
  S   S86       1.0  0.90063  0.43972  0.60385  1.0000
  C   C598      1.0  0.89504  0.14981  0.72349  1.0000
  C   C599      1.0  0.73197  0.01179  0.54751  1.0000
  C   C600      1.0  0.83873  0.37277  0.71859  1.0000
  H   H467      1.0  0.90301  0.23827  0.69508  1.0000
  H   H468      1.0  0.96846  0.43310  0.64634  1.0000
  C   C601      1.0  0.68903  0.99409  0.54485  1.0000
  C   C602      1.0  0.71450  0.45909  0.54814  1.0000
  H   H469      1.0  0.67482  0.44720  0.61418  1.0000
  C   C603      1.0  0.78161  0.28275  0.75373  1.0000
  C   C604      1.0  0.65189  0.01284  0.74933  1.0000
  C   C605      1.0  0.77039  0.31543  0.75584  1.0000
  H   H470      1.0  0.64649  0.27569  0.76359  1.0000
  H   H471      1.0  0.59496  0.38234  0.77941  1.0000
  C   C606      1.0  0.03049  0.08581  0.69970  1.0000
  C   C607      1.0  0.70859  0.00343  0.78181  1.0000
  C   C608      1.0  0.57867  0.47747  0.74344  1.0000
  C   C609      1.0  0.96912  0.37052  0.02187  1.0000
  H   H472      1.0  0.77507  0.33794  0.86488  1.0000
  C   C610      1.0  0.87530  0.21992  0.80353  1.0000
  C   C611      1.0  0.99210  0.03760  0.84564  1.0000
  H   H473      1.0  0.91707  0.36603  0.89599  1.0000
  H   H474      1.0  0.58959  0.14833  0.79829  1.0000
  C   C612      1.0  0.81036  0.25022  0.90571  1.0000
  C   C613      1.0  0.94846  0.33031  0.00408  1.0000
  C   C614      1.0  0.70678  0.32926  0.96067  1.0000
  P   P21       1.0  0.70424  0.25701  0.92497  1.0000
  C   C615      1.0  0.63091  0.37332  0.02414  1.0000
  C   C616      1.0  0.77500  0.18247  0.80198  1.0000
  H   H475      1.0  0.58110  0.99942  0.98230  1.0000
  H   H476      1.0  0.58507  0.34888  0.97161  1.0000
  C   C617      1.0  0.65186  0.99005  0.83987  1.0000
  C   C618      1.0  0.96908  0.44260  0.82195  1.0000
  S   S87       1.0  0.64571  0.42963  0.00229  1.0000
  C   C619      1.0  0.55182  0.46061  0.97732  1.0000
  S   S88       1.0  0.82631  0.25541  0.03945  1.0000
  C   C620      1.0  0.02306  0.21799  0.02534  1.0000
  H   H477      1.0  0.65117  0.42459  0.82803  1.0000
  C   C621      1.0  0.78439  0.31306  0.87653  1.0000
  C   C622      1.0  0.56411  0.37506  0.85195  1.0000
  C   C623      1.0  0.62797  0.21643  0.88507  1.0000
  H   H478      1.0  0.65744  0.10143  0.01763  1.0000
  C   C624      1.0  0.58721  0.29478  0.02108  1.0000
  H   H479      1.0  0.95843  0.18411  0.01207  1.0000
  C   C625      1.0  0.59979  0.18985  0.85403  1.0000
  H   H480      1.0  0.56867  0.47244  0.00959  1.0000
  H   H481      1.0  0.60420  0.00099  0.80549  1.0000
  C   C626      1.0  0.61155  0.16898  0.82223  1.0000
  H   H482      1.0  0.66038  0.15800  0.79712  1.0000
  H   H483      1.0  0.84169  0.04067  0.96648  1.0000
  H   H484      1.0  0.94558  0.29986  0.02640  1.0000
  C   C627      1.0  0.78590  0.01078  0.92860  1.0000
  C   C628      1.0  0.82500  0.32361  0.86255  1.0000
  C   C629      1.0  0.75633  0.27069  0.90479  1.0000
  H   H485      1.0  0.84641  0.35608  0.84013  1.0000
  H   H486      1.0  0.98645  0.43965  0.00958  1.0000
  H   H487      1.0  0.91341  0.29755  0.94527  1.0000
  C   C630      1.0  0.90838  0.98525  0.83243  1.0000
  C   C631      1.0  0.53883  0.34435  0.89491  1.0000
  C   C632      1.0  0.69131  0.36555  0.86744  1.0000
  C   C633      1.0  0.69264  0.22907  0.99086  1.0000
  H   H488      1.0  0.79573  0.44288  0.97793  1.0000
  C   C634      1.0  0.94706  0.45761  0.84850  1.0000
  C   C635      1.0  0.56597  0.31455  0.81992  1.0000
  C   C636      1.0  0.76957  0.23921  0.91901  1.0000
  C   C637      1.0  0.66795  0.22153  0.88544  1.0000
  H   H489      1.0  0.58184  0.06184  0.86490  1.0000
  C   C638      1.0  0.82139  0.04667  0.94125  1.0000
  C   C639      1.0  0.99002  0.19664  0.99650  1.0000
  C   C640      1.0  0.67948  0.20019  0.85355  1.0000
  H   H490      1.0  0.86929  0.30022  0.86712  1.0000
  H   H491      1.0  0.69420  0.41673  0.90616  1.0000
  H   H492      1.0  0.74867  0.06945  0.85239  1.0000
  C   C641      1.0  0.63294  0.00074  0.79883  1.0000
  C   C642      1.0  0.92277  0.47340  0.82176  1.0000
  P   P22       1.0  0.57554  0.43254  0.84192  1.0000
  H   H493      1.0  0.68490  0.37915  0.83137  1.0000
  C   C643      1.0  0.83048  0.09049  0.92202  1.0000
  S   S89       1.0  0.70153  0.07518  0.94974  1.0000
  C   C644      1.0  0.65143  0.17433  0.82179  1.0000
  C   C645      1.0  0.54160  0.28438  0.86341  1.0000
  C   C646      1.0  0.59986  0.33989  0.00226  1.0000
  H   H494      1.0  0.78311  0.98613  0.81929  1.0000
  C   C647      1.0  0.80428  0.09843  0.88972  1.0000
  H   H495      1.0  0.56253  0.26896  0.00479  1.0000
  H   H496      1.0  0.96140  0.26917  0.86606  1.0000
  H   H497      1.0  0.90962  0.04764  0.80590  1.0000
  C   C648      1.0  0.86465  0.41050  0.94624  1.0000
  H   H498      1.0  0.59095  0.10220  0.00969  1.0000
  H   H499      1.0  0.96441  0.33726  0.81552  1.0000
  H   H500      1.0  0.71199  0.31538  0.99736  1.0000
  C   C649      1.0  0.65704  0.08092  0.94583  1.0000
  H   H501      1.0  0.71596  0.99158  0.98783  1.0000
  C   C650      1.0  0.82663  0.40738  0.95915  1.0000
  H   H502      1.0  0.81111  0.13230  0.87508  1.0000
  Fe  Fe44      1.0  0.74173  0.09869  0.01301  1.0000
  C   C651      1.0  0.70094  0.30755  0.91913  1.0000
  C   C652      1.0  0.97345  0.99094  0.85685  1.0000
  S   S90       1.0  0.80854  0.15069  0.99533  1.0000
  H   H503      1.0  0.64780  0.06090  0.87297  1.0000
  C   C653      1.0  0.93028  0.32904  0.95829  1.0000
  H   H504      1.0  0.74859  0.20639  0.94119  1.0000
  H   H505      1.0  0.72455  0.13227  0.85564  1.0000
  H   H506      1.0  0.90485  0.19437  0.85787  1.0000
  C   C654      1.0  0.69361  0.32623  0.87228  1.0000
  C   C655      1.0  0.82507  0.44525  0.96725  1.0000
  C   C656      1.0  0.95223  0.40826  0.94860  1.0000
  C   C657      1.0  0.58210  0.08216  0.93681  1.0000
  C   C658      1.0  0.83791  0.29219  0.87732  1.0000
  C   C659      1.0  0.96911  0.05808  0.82728  1.0000
  H   H507      1.0  0.85252  0.18682  0.79813  1.0000
  H   H508      1.0  0.02477  0.05786  0.84963  1.0000
  C   C660      1.0  0.70537  0.36910  0.95531  1.0000
  C   C661      1.0  0.99754  0.19104  0.94776  1.0000
  H   H509      1.0  0.63747  0.98280  0.87796  1.0000
  P   P23       1.0  0.94945  0.45659  0.91626  1.0000
  C   C662      1.0  0.64130  0.09336  0.98410  1.0000
  C   C663      1.0  0.57163  0.45604  0.93595  1.0000
  C   C664      1.0  0.57698  0.35963  0.81399  1.0000
  H   H510      1.0  0.68943  0.31036  0.83947  1.0000
  H   H511      1.0  0.98882  0.43120  0.84126  1.0000
  H   H512      1.0  0.61856  0.23298  0.90890  1.0000
  H   H513      1.0  0.70995  0.20340  0.85287  1.0000
  H   H514      1.0  0.98377  0.09423  0.81709  1.0000
  H   H515      1.0  0.85788  0.11822  0.93219  1.0000
  H   H516      1.0  0.79845  0.37544  0.96309  1.0000
  C   C665      1.0  0.97109  0.40935  0.99427  1.0000
  C   C666      1.0  0.90149  0.45175  0.94049  1.0000
  C   C667      1.0  0.73670  0.14391  0.81609  1.0000
  C   C668      1.0  0.66034  0.45877  0.82973  1.0000
  C   C669      1.0  0.55023  0.44115  0.89364  1.0000
  C   C670      1.0  0.60372  0.09390  0.97957  1.0000
  H   H517      1.0  0.56866  0.18520  0.85474  1.0000
  H   H518      1.0  0.82072  0.22624  0.91772  1.0000
  C   C671      1.0  0.92525  0.13843  0.81722  1.0000
  C   C672      1.0  0.88451  0.10846  0.80912  1.0000
  H   H519      1.0  0.97187  0.17462  0.92538  1.0000
  C   C673      1.0  0.92724  0.03184  0.82099  1.0000
  H   H520      1.0  0.79183  0.20050  0.83095  1.0000
  H   H521      1.0  0.86532  0.07975  0.83823  1.0000
  C   C674      1.0  0.93721  0.26625  0.84173  1.0000
  H   H522      1.0  0.70983  0.38579  0.98737  1.0000
  C   C675      1.0  0.63571  0.07022  0.90268  1.0000
  C   C676      1.0  0.93227  0.36785  0.93059  1.0000
  H   H523      1.0  0.62641  0.18925  0.98746  1.0000
  C   C677      1.0  0.72453  0.24029  0.02335  1.0000
  C   C678      1.0  0.93878  0.30451  0.81337  1.0000
  C   C679      1.0  0.65192  0.19761  0.01090  1.0000
  C   C680      1.0  0.59836  0.07074  0.89817  1.0000
  C   C681      1.0  0.90538  0.22404  0.83695  1.0000
  C   C682      1.0  0.69692  0.38684  0.90911  1.0000
  C   C683      1.0  0.76881  0.06261  0.87688  1.0000
  C   C684      1.0  0.75915  0.01854  0.89669  1.0000
  H   H524      1.0  0.75609  0.26524  0.00930  1.0000
  S   S91       1.0  0.53357  0.18261  0.96568  1.0000
  H   H525      1.0  0.60363  0.46399  0.93718  1.0000
  H   H526      1.0  0.86502  0.38070  0.94029  1.0000
  H   H527      1.0  0.93705  0.13356  0.85323  1.0000
  C   C685      1.0  0.63059  0.47181  0.83688  1.0000
  C   C686      1.0  0.68929  0.98990  0.83155  1.0000
  S   S92       1.0  0.87759  0.10101  0.04010  1.0000
  H   H528      1.0  0.73281  0.38964  0.11318  1.0000
  H   H529      1.0  0.01659  0.22210  0.06303  1.0000
  Fe  Fe45      1.0  0.53821  0.18048  0.04919  1.0000
  H   H530      1.0  0.85248  0.97965  0.11361  1.0000
  C   C687      1.0  0.88581  0.35046  0.12332  1.0000
  H   H531      1.0  0.68953  0.11478  0.23262  1.0000
  S   S93       1.0  0.00262  0.46281  0.23251  1.0000
  C   C688      1.0  0.58280  0.30104  0.21147  1.0000
  C   C689      1.0  0.95825  0.08289  0.12746  1.0000
  C   C690      1.0  0.90342  0.09529  0.09320  1.0000
  H   H532      1.0  0.56749  0.03393  0.21211  1.0000
  C   C691      1.0  0.88556  0.32580  0.17021  1.0000
  Fe  Fe46      1.0  0.62892  0.46729  0.17016  1.0000
  H   H533      1.0  0.75949  0.12484  0.24511  1.0000
  H   H534      1.0  0.77038  0.37789  0.04635  1.0000
  H   H535      1.0  0.64853  0.32724  0.20866  1.0000
  H   H536      1.0  0.80627  0.00703  0.13971  1.0000
  S   S94       1.0  0.92264  0.47244  0.20069  1.0000
  C   C692      1.0  0.67447  0.99732  0.18840  1.0000
  C   C693      1.0  0.73899  0.22432  0.24552  1.0000
  H   H537      1.0  0.83475  0.22176  0.14241  1.0000
  C   C694      1.0  0.02899  0.18459  0.26187  1.0000
  H   H538      1.0  0.55094  0.36345  0.15713  1.0000
  H   H539      1.0  0.66927  0.17021  0.13302  1.0000
  C   C695      1.0  0.64366  0.17643  0.06202  1.0000
  H   H540      1.0  0.87225  0.44442  0.11956  1.0000
  S   S95       1.0  0.59159  0.22771  0.08624  1.0000
  H   H541      1.0  0.79288  0.00623  0.22947  1.0000
  C   C696      1.0  0.71419  0.14672  0.23890  1.0000
  C   C697      1.0  0.86919  0.32876  0.08252  1.0000
  C   C698      1.0  0.89830  0.19604  0.26443  1.0000
  Fe  Fe47      1.0  0.66469  0.46442  0.06893  1.0000
  Fe  Fe48      1.0  0.94562  0.42478  0.19499  1.0000
  H   H542      1.0  0.86822  0.26085  0.21258  1.0000
  C   C699      1.0  0.93807  0.09009  0.08578  1.0000
  H   H543      1.0  0.86970  0.34797  0.04613  1.0000
  C   C700      1.0  0.76379  0.35814  0.08399  1.0000
  C   C701      1.0  0.54411  0.01812  0.18693  1.0000
  C   C702      1.0  0.59348  0.35377  0.28425  1.0000
  H   H544      1.0  0.92056  0.15945  0.22887  1.0000
  C   C703      1.0  0.63515  0.98796  0.17422  1.0000
  H   H545      1.0  0.89776  0.38597  0.11882  1.0000
  H   H546      1.0  0.78103  0.27883  0.15336  1.0000
  C   C704      1.0  0.62209  0.32650  0.22683  1.0000
  H   H547      1.0  0.80405  0.26162  0.25722  1.0000
  S   S96       1.0  0.96722  0.06935  0.22964  1.0000
  C   C705      1.0  0.65041  0.36175  0.06366  1.0000
  C   C706      1.0  0.65026  0.23480  0.21550  1.0000
  C   C707      1.0  0.85047  0.28217  0.08939  1.0000
  C   C708      1.0  0.67579  0.25179  0.25415  1.0000
  C   C709      1.0  0.54817  0.30087  0.23309  1.0000
  S   S97       1.0  0.65086  0.42316  0.14674  1.0000
  H   H548      1.0  0.95168  0.29363  0.22663  1.0000
  H   H549      1.0  0.89779  0.08396  0.22222  1.0000
  H   H550      1.0  0.65340  0.30805  0.11286  1.0000
  C   C710      1.0  0.77766  0.32723  0.09562  1.0000
  C   C711      1.0  0.70679  0.18244  0.23884  1.0000
  S   S98       1.0  0.73061  0.13168  0.07152  1.0000
  H   H551      1.0  0.67570  0.38761  0.07887  1.0000
  H   H552      1.0  0.55772  0.40243  0.06991  1.0000
  H   H553      1.0  0.94899  0.09103  0.04782  1.0000
  C   C712      1.0  0.91411  0.16696  0.26448  1.0000
  C   C713      1.0  0.86810  0.27959  0.17650  1.0000
  S   S99       1.0  0.81591  0.14116  0.11825  1.0000
  S   S100      1.0  0.97645  0.45744  0.11580  1.0000
  H   H554      1.0  0.79463  0.32262  0.06639  1.0000
  H   H555      1.0  0.98703  0.37149  0.17931  1.0000
  C   C714      1.0  0.88980  0.09464  0.14230  1.0000
  C   C715      1.0  0.73287  0.33860  0.17018  1.0000
  H   H556      1.0  0.62654  0.01382  0.16973  1.0000
  C   C716      1.0  0.53634  0.36686  0.08006  1.0000
  Fe  Fe49      1.0  0.82188  0.10822  0.05597  1.0000
  C   C717      1.0  0.85691  0.46393  0.12120  1.0000
  C   C718      1.0  0.62756  0.35293  0.26313  1.0000
  C   C719      1.0  0.74187  0.36419  0.12139  1.0000
  C   C720      1.0  0.94376  0.08063  0.17672  1.0000
  C   C721      1.0  0.74647  0.30727  0.18232  1.0000
  H   H557      1.0  0.77160  0.36742  0.25242  1.0000
  C   C722      1.0  0.82100  0.44661  0.15413  1.0000
  Fe  Fe50      1.0  0.98888  0.02093  0.21842  1.0000
  C   C723      1.0  0.00418  0.35900  0.20303  1.0000
  S   S101      1.0  0.75571  0.05304  0.06841  1.0000
  S   S102      1.0  0.75516  0.44876  0.19725  1.0000
  Fe  Fe51      1.0  0.71405  0.47380  0.16138  1.0000
  C   C724      1.0  0.98437  0.31497  0.22962  1.0000
  C   C725      1.0  0.77530  0.34852  0.28617  1.0000
  H   H558      1.0  0.58006  0.28296  0.18118  1.0000
  C   C726      1.0  0.78541  0.19323  0.25407  1.0000
  H   H559      1.0  0.89227  0.21044  0.22863  1.0000
  H   H560      1.0  0.80919  0.41413  0.17794  1.0000
  C   C727      1.0  0.81248  0.99305  0.21978  1.0000
  C   C728      1.0  0.81976  0.99344  0.16836  1.0000
  Fe  Fe52      1.0  0.74853  0.08931  0.12629  1.0000
  C   C729      1.0  0.80068  0.47130  0.15635  1.0000
  H   H561      1.0  0.58812  0.20295  0.19406  1.0000
  C   C730      1.0  0.76960  0.30223  0.14492  1.0000
  H   H562      1.0  0.71611  0.34410  0.19875  1.0000
  C   C731      1.0  0.55397  0.32817  0.26895  1.0000
  H   H563      1.0  0.98511  0.07930  0.12137  1.0000
  P   P24       1.0  0.73053  0.27152  0.24411  1.0000
  C   C732      1.0  0.84983  0.25761  0.13652  1.0000
  H   H564      1.0  0.74131  0.22631  0.09825  1.0000
  C   C733      1.0  0.77851  0.22948  0.25280  1.0000
  C   C734      1.0  0.60644  0.28336  0.06116  1.0000
  C   C735      1.0  0.67572  0.18694  0.09364  1.0000
  S   S103      1.0  0.56931  0.43126  0.22032  1.0000
  C   C736      1.0  0.75353  0.15221  0.24626  1.0000
  C   C737      1.0  0.63824  0.31684  0.08221  1.0000
  S   S104      1.0  0.90672  0.35104  0.22211  1.0000
  H   H565      1.0  0.61220  0.15241  0.07736  1.0000
  C   C738      1.0  0.60746  0.21661  0.22380  1.0000
  H   H566      1.0  0.67593  0.17682  0.23339  1.0000
  H   H567      1.0  0.55675  0.20368  0.27574  1.0000
  H   H568      1.0  0.86268  0.09782  0.14837  1.0000
  C   C739      1.0  0.90983  0.08703  0.18408  1.0000
  H   H569      1.0  0.65858  0.37458  0.27252  1.0000
  S   S105      1.0  0.70926  0.05051  0.19969  1.0000
  S   S106      1.0  0.00532  0.01144  0.14241  1.0000
  H   H570      1.0  0.66332  0.23493  0.17909  1.0000
  H   H571      1.0  0.81568  0.19704  0.25995  1.0000
  C   C740      1.0  0.71616  0.21888  0.07426  1.0000
  Fe  Fe53      1.0  0.79871  0.18072  0.05798  1.0000
  H   H572      1.0  0.98241  0.37133  0.05798  1.0000
  H   H573      1.0  0.58518  0.05960  0.11948  1.0000
  C   C741      1.0  0.55426  0.03306  0.13434  1.0000
  C   C742      1.0  0.00650  0.29899  0.26038  1.0000
  H   H574      1.0  0.02262  0.17181  0.22663  1.0000
  C   C743      1.0  0.58992  0.21698  0.26978  1.0000
  H   H575      1.0  0.99042  0.26485  0.28112  1.0000
  H   H576      1.0  0.63539  0.98678  0.29085  1.0000
  C   C744      1.0  0.53580  0.46215  0.14407  1.0000
  H   H577      1.0  0.95036  0.28388  0.34678  1.0000
  H   H578      1.0  0.68998  0.16600  0.37512  1.0000
  C   C745      1.0  0.89856  0.25953  0.40334  1.0000
  H   H579      1.0  0.93290  0.12415  0.31023  1.0000
  C   C746      1.0  0.66104  0.43945  0.42039  1.0000
  H   H580      1.0  0.73044  0.39337  0.38778  1.0000
  C   C747      1.0  0.59886  0.20008  0.52641  1.0000
  H   H581      1.0  0.55349  0.40172  0.35844  1.0000
  H   H582      1.0  0.00807  0.11976  0.30811  1.0000
  C   C748      1.0  0.75785  0.30186  0.29305  1.0000
  H   H583      1.0  0.63770  0.00427  0.37784  1.0000
  C   C749      1.0  0.79847  0.37173  0.32305  1.0000
  S   S107      1.0  0.81116  0.03913  0.50544  1.0000
  H   H584      1.0  0.81228  0.15996  0.36616  1.0000
  C   C750      1.0  0.95366  0.23489  0.47909  1.0000
  H   H585      1.0  0.86288  0.32508  0.44122  1.0000
  C   C751      1.0  0.78064  0.06536  0.31893  1.0000
  H   H586      1.0  0.59278  0.47836  0.41937  1.0000
  H   H587      1.0  0.93871  0.11748  0.53478  1.0000
  C   C752      1.0  0.90412  0.01120  0.33952  1.0000
  H   H588      1.0  0.00212  0.25916  0.52926  1.0000
  H   H589      1.0  0.89166  0.05132  0.46218  1.0000
  C   C753      1.0  0.83552  0.16644  0.44024  1.0000
  C   C754      1.0  0.02369  0.99058  0.53542  1.0000
  C   C755      1.0  0.00448  0.99167  0.43448  1.0000
  H   H590      1.0  0.02078  0.45236  0.33739  1.0000
  C   C756      1.0  0.73752  0.03919  0.32249  1.0000
  C   C757      1.0  0.80533  0.04512  0.32091  1.0000
  H   H591      1.0  0.74906  0.24277  0.34515  1.0000
  C   C758      1.0  0.89543  0.04068  0.42755  1.0000
  H   H592      1.0  0.74489  0.33893  0.44307  1.0000
  H   H593      1.0  0.99961  0.40375  0.42291  1.0000
  C   C759      1.0  0.62644  0.11364  0.38914  1.0000
  P   P25       1.0  0.55056  0.42444  0.51788  1.0000
  C   C760      1.0  0.61242  0.40355  0.49596  1.0000
  H   H594      1.0  0.56136  0.06744  0.41000  1.0000
  C   C761      1.0  0.59356  0.42950  0.47997  1.0000
  H   H595      1.0  0.54212  0.17083  0.38252  1.0000
  C   C762      1.0  0.92151  0.14758  0.31030  1.0000
  H   H596      1.0  0.59803  0.37644  0.30994  1.0000
  C   C763      1.0  0.53747  0.23227  0.46703  1.0000
  C   C764      1.0  0.89887  0.18814  0.35656  1.0000
  H   H597      1.0  0.67785  0.21923  0.41142  1.0000
  H   H598      1.0  0.68862  0.26212  0.47511  1.0000
  H   H599      1.0  0.83872  0.06599  0.31612  1.0000
  H   H600      1.0  0.75921  0.00983  0.42703  1.0000
  H   H601      1.0  0.95828  0.26802  0.46485  1.0000
  C   C765      1.0  0.80445  0.15129  0.40682  1.0000
  H   H602      1.0  0.71945  0.09326  0.49309  1.0000
  H   H603      1.0  0.02415  0.35058  0.44372  1.0000
  H   H604      1.0  0.91799  0.38174  0.37455  1.0000
  H   H605      1.0  0.68829  0.44470  0.39862  1.0000
  C   C766      1.0  0.97380  0.18788  0.53518  1.0000
  H   H606      1.0  0.65925  0.36984  0.36344  1.0000
  H   H607      1.0  0.60176  0.37985  0.53158  1.0000
  S   S108      1.0  0.76430  0.47274  0.46460  1.0000
  H   H608      1.0  0.57752  0.00403  0.41809  1.0000
  H   H609      1.0  0.63215  0.09028  0.37307  1.0000
  C   C767      1.0  0.78702  0.99837  0.32765  1.0000
  C   C768      1.0  0.61034  0.99632  0.35761  1.0000
  C   C769      1.0  0.87415  0.27175  0.42998  1.0000
  H   H610      1.0  0.87842  0.22939  0.30919  1.0000
  C   C770      1.0  0.93748  0.33605  0.35659  1.0000
  H   H611      1.0  0.63452  0.26883  0.53742  1.0000
  H   H612      1.0  0.54856  0.11968  0.44760  1.0000
  C   C771      1.0  0.64624  0.40884  0.46635  1.0000
  C   C772      1.0  0.78594  0.30203  0.37503  1.0000
  C   C773      1.0  0.80414  0.34854  0.36726  1.0000
  P   P26       1.0  0.88921  0.20256  0.41562  1.0000
  H   H613      1.0  0.84730  0.16679  0.51968  1.0000
  C   C774      1.0  0.76266  0.27874  0.33835  1.0000
  C   C775      1.0  0.68217  0.28500  0.44951  1.0000
  H   H614      1.0  0.55340  0.24932  0.49729  1.0000
  C   C776      1.0  0.64205  0.27083  0.43501  1.0000
  C   C777      1.0  0.86108  0.01882  0.40078  1.0000
  Fe  Fe54      1.0  0.77233  0.42013  0.51585  1.0000
  C   C778      1.0  0.53478  0.45007  0.32925  1.0000
  C   C779      1.0  0.78238  0.12940  0.51172  1.0000
  C   C780      1.0  0.02206  0.43897  0.41854  1.0000
  C   C781      1.0  0.93854  0.03340  0.36606  1.0000
  H   H615      1.0  0.67741  0.26817  0.32911  1.0000
  H   H616      1.0  0.71957  0.17714  0.50082  1.0000
  H   H617      1.0  0.96074  0.06472  0.43111  1.0000
  C   C782      1.0  0.66571  0.34585  0.38677  1.0000
  H   H618      1.0  0.60330  0.29261  0.39203  1.0000
  H   H619      1.0  0.96125  0.36072  0.32714  1.0000
  S   S109      1.0  0.81838  0.39793  0.50123  1.0000
  C   C783      1.0  0.60879  0.98581  0.30922  1.0000
  C   C784      1.0  0.65902  0.15641  0.39014  1.0000
  C   C785      1.0  0.94290  0.15026  0.51897  1.0000
  C   C786      1.0  0.91290  0.34784  0.38305  1.0000
  C   C787      1.0  0.82413  0.15537  0.49293  1.0000
  H   H620      1.0  0.84933  0.24751  0.45841  1.0000
  H   H621      1.0  0.56178  0.12851  0.53091  1.0000
  C   C788      1.0  0.57952  0.13083  0.43109  1.0000
  C   C789      1.0  0.75172  0.11405  0.47824  1.0000
  H   H622      1.0  0.60225  0.23871  0.34139  1.0000
  H   H623      1.0  0.82229  0.36656  0.39571  1.0000
  C   C790      1.0  0.91640  0.15463  0.48421  1.0000
  C   C791      1.0  0.73976  0.00549  0.45992  1.0000
  H   H624      1.0  0.89111  0.12478  0.47430  1.0000
  C   C792      1.0  0.58672  0.10085  0.40971  1.0000
  C   C793      1.0  0.88160  0.31583  0.42016  1.0000
  H   H625      1.0  0.66194  0.39026  0.47984  1.0000
  P   P27       1.0  0.60165  0.21354  0.45778  1.0000
  C   C794      1.0  0.60751  0.45878  0.43272  1.0000
  H   H626      1.0  0.83126  0.01322  0.41515  1.0000
  H   H627      1.0  0.96848  0.03893  0.35218  1.0000
  H   H628      1.0  0.71831  0.05483  0.31975  1.0000
  C   C795      1.0  0.61170  0.17456  0.43078  1.0000
  C   C796      1.0  0.61548  0.23636  0.30703  1.0000
  H   H629      1.0  0.92638  0.34471  0.50858  1.0000
  C   C797      1.0  0.55275  0.20984  0.44214  1.0000
  C   C798      1.0  0.65181  0.18667  0.41101  1.0000
  H   H630      1.0  0.73890  0.11254  0.40006  1.0000
  H   H631      1.0  0.90846  0.00003  0.30591  1.0000
  C   C799      1.0  0.76274  0.12488  0.42582  1.0000
  C   C800      1.0  0.63393  0.30187  0.40363  1.0000
  C   C801      1.0  0.92225  0.19711  0.46283  1.0000
  C   C802      1.0  0.91411  0.15818  0.35611  1.0000
  C   C803      1.0  0.71918  0.99276  0.32828  1.0000
  S   S110      1.0  0.76030  0.26911  0.51147  1.0000
  C   C804      1.0  0.75739  0.01761  0.50489  1.0000
  C   C805      1.0  0.57636  0.99628  0.38022  1.0000
  C   C806      1.0  0.86511  0.00410  0.35625  1.0000
  C   C807      1.0  0.89060  0.20659  0.31016  1.0000
  H   H632      1.0  0.81237  0.40783  0.31695  1.0000
  H   H633      1.0  0.92039  0.14271  0.39067  1.0000
  C   C808      1.0  0.93080  0.29229  0.36727  1.0000
  H   H634      1.0  0.79001  0.28394  0.40945  1.0000
  C   C809      1.0  0.70581  0.35920  0.40051  1.0000
  C   C810      1.0  0.65825  0.25344  0.29961  1.0000
  C   C811      1.0  0.71401  0.32862  0.43162  1.0000
  H   H635      1.0  0.79505  0.10136  0.31357  1.0000
  C   C812      1.0  0.97893  0.23011  0.51557  1.0000
  C   C813      1.0  0.93423  0.04812  0.41011  1.0000
  H   H636      1.0  0.02641  0.33589  0.35681  1.0000
  S   S111      1.0  0.59014  0.04367  0.53043  1.0000
  H   H637      1.0  0.02096  0.14811  0.38936  1.0000
  C   C814      1.0  0.64128  0.46391  0.40316  1.0000
  H   H638      1.0  0.89303  0.25229  0.53478  1.0000
  C   C815      1.0  0.02808  0.17112  0.35360  1.0000
  H   H639      1.0  0.88939  0.38464  0.52803  1.0000
  H   H640      1.0  0.99666  0.98973  0.39560  1.0000
  C   C816      1.0  0.54106  0.98645  0.35424  1.0000
  Fe  Fe55      1.0  0.76872  0.32989  0.53983  1.0000
  C   C817      1.0  0.69683  0.98606  0.45803  1.0000
  C   C818      1.0  0.02065  0.15510  0.30796  1.0000
  H   H641      1.0  0.02959  0.43580  0.49852  1.0000
  H   H642      1.0  0.02874  0.11897  0.53096  1.0000
  C   C819      1.0  0.93532  0.36372  0.53886  1.0000
  C   C820      1.0  0.70907  0.17883  0.53773  1.0000
  C   C821      1.0  0.97369  0.97958  0.47347  1.0000
  C   C822      1.0  0.98336  0.97923  0.52391  1.0000
  C   C823      1.0  0.67147  0.98084  0.50012  1.0000
  H   H643      1.0  0.56434  0.47824  0.33356  1.0000
  H   H644      1.0  0.99076  0.50783  0.56308  1.0000
  H   H645      1.0  0.60928  0.50336  0.74869  1.0000
  H   H646      1.0  0.90444  0.63059  0.69863  1.0000
  H   H647      1.0  0.59552  0.65978  0.62634  1.0000
  C   C824      1.0  0.97335  0.57571  0.69348  1.0000
  S   S112      1.0  0.58930  0.97502  0.63136  1.0000
  S   S113      1.0  0.67096  0.64500  0.78109  1.0000
  C   C825      1.0  0.75192  0.80815  0.67174  1.0000
  H   H648      1.0  0.66638  0.76995  0.55573  1.0000
  H   H649      1.0  0.98678  0.58894  0.76912  1.0000
  C   C826      1.0  0.89895  0.89867  0.70824  1.0000
  S   S114      1.0  0.76285  0.69987  0.67939  1.0000
  H   H650      1.0  0.53363  0.54329  0.73291  1.0000
  C   C827      1.0  0.79837  0.83706  0.57729  1.0000
  C   C828      1.0  0.93807  0.69375  0.59196  1.0000
  S   S115      1.0  0.72110  0.59204  0.70655  1.0000
  H   H651      1.0  0.70730  0.93453  0.73879  1.0000
  H   H652      1.0  0.90088  0.48520  0.74937  1.0000
  C   C829      1.0  0.95216  0.57972  0.65142  1.0000
  C   C830      1.0  0.57656  0.55866  0.55828  1.0000
  C   C831      1.0  0.89219  0.53519  0.55088  1.0000
  C   C832      1.0  0.90458  0.58055  0.54774  1.0000
  H   H653      1.0  0.62251  0.88111  0.55124  1.0000
  C   C833      1.0  0.69402  0.51176  0.56769  1.0000
  C   C834      1.0  0.76430  0.79389  0.58937  1.0000
  Fe  Fe56      1.0  0.78118  0.64925  0.66888  1.0000
  H   H654      1.0  0.99162  0.55916  0.69317  1.0000
  H   H655      1.0  0.73182  0.88138  0.62179  1.0000
  C   C835      1.0  0.55566  0.70788  0.69367  1.0000
  H   H656      1.0  0.87987  0.51205  0.58664  1.0000
  H   H657      1.0  0.58194  0.50918  0.66613  1.0000
  Fe  Fe57      1.0  0.83014  0.95859  0.66870  1.0000
  C   C836      1.0  0.59450  0.58764  0.75293  1.0000
  S   S116      1.0  0.84264  0.65814  0.68961  1.0000
  H   H658      1.0  0.64104  0.91068  0.78933  1.0000
  H   H659      1.0  0.97449  0.76570  0.57875  1.0000
  H   H660      1.0  0.56842  0.86878  0.61559  1.0000
  H   H661      1.0  0.91939  0.95002  0.75264  1.0000
  S   S117      1.0  0.67519  0.63739  0.63370  1.0000
  S   S118      1.0  0.76231  0.64559  0.58967  1.0000
  C   C837      1.0  0.78622  0.85114  0.65993  1.0000
  S   S119      1.0  0.79865  0.88600  0.70479  1.0000
  C   C838      1.0  0.90585  0.91445  0.75411  1.0000
  H   H662      1.0  0.78837  0.93917  0.55866  1.0000
  H   H663      1.0  0.95928  0.96844  0.55445  1.0000
  H   H664      1.0  0.90625  0.92173  0.67248  1.0000
  C   C839      1.0  0.92767  0.60024  0.65251  1.0000
  C   C840      1.0  0.77071  0.53962  0.64819  1.0000
  C   C841      1.0  0.68313  0.89984  0.74595  1.0000
  C   C842      1.0  0.53657  0.52195  0.56697  1.0000
  H   H665      1.0  0.74573  0.54701  0.64265  1.0000
  Fe  Fe58      1.0  0.58563  0.97637  0.54767  1.0000
  C   C843      1.0  0.92431  0.61601  0.69642  1.0000
  C   C844      1.0  0.00779  0.54307  0.56506  1.0000
  C   C845      1.0  0.89700  0.78692  0.61675  1.0000
  C   C846      1.0  0.61533  0.84130  0.78406  1.0000
  C   C847      1.0  0.56317  0.48106  0.69634  1.0000
  C   C848      1.0  0.03168  0.55717  0.60537  1.0000
  C   C849      1.0  0.75903  0.91652  0.54629  1.0000
  Fe  Fe59      1.0  0.70066  0.64237  0.70977  1.0000
  H   H666      1.0  0.58334  0.58893  0.57182  1.0000
  S   S120      1.0  0.75317  0.75527  0.54917  1.0000
  C   C850      1.0  0.64599  0.88630  0.77450  1.0000
  C   C851      1.0  0.76289  0.49903  0.67770  1.0000
  C   C852      1.0  0.68959  0.86844  0.72707  1.0000
  C   C853      1.0  0.81056  0.57065  0.62549  1.0000
  H   H667      1.0  0.73410  0.79673  0.70836  1.0000
  H   H668      1.0  0.54840  0.80952  0.72944  1.0000
  S   S121      1.0  0.00253  0.87286  0.75027  1.0000
  C   C854      1.0  0.62207  0.69126  0.68988  1.0000
  C   C855      1.0  0.59638  0.84774  0.56318  1.0000
  H   H669      1.0  0.87706  0.84109  0.67261  1.0000
  C   C856      1.0  0.94581  0.61232  0.73810  1.0000
  H   H670      1.0  0.71899  0.87896  0.70649  1.0000
  C   C857      1.0  0.94547  0.77865  0.67181  1.0000
  C   C858      1.0  0.83530  0.52077  0.66303  1.0000
  H   H671      1.0  0.03336  0.53275  0.63465  1.0000
  C   C859      1.0  0.87255  0.82307  0.75425  1.0000
  H   H672      1.0  0.95703  0.68968  0.62053  1.0000
  C   C860      1.0  0.02868  0.72652  0.68732  1.0000
  C   C861      1.0  0.68884  0.85519  0.56612  1.0000
  H   H673      1.0  0.60859  0.59825  0.71434  1.0000
  Fe  Fe60      1.0  0.73906  0.69216  0.60276  1.0000
  H   H674      1.0  0.94321  0.62492  0.77162  1.0000
  C   C862      1.0  0.86832  0.74148  0.63286  1.0000
  C   C863      1.0  0.97029  0.59209  0.73668  1.0000
  H   H675      1.0  0.00063  0.96172  0.70573  1.0000
  H   H676      1.0  0.01108  0.74368  0.68966  1.0000
  H   H677      1.0  0.85992  0.78775  0.75402  1.0000
  C   C864      1.0  0.55877  0.76923  0.55767  1.0000
  C   C865      1.0  0.90386  0.65646  0.57878  1.0000
  P   P28       1.0  0.89521  0.60050  0.60234  1.0000
  C   C866      1.0  0.87848  0.71457  0.66797  1.0000
  H   H678      1.0  0.66472  0.80039  0.71972  1.0000
  H   H679      1.0  0.83619  0.89857  0.60375  1.0000
  C   C867      1.0  0.94845  0.73705  0.56786  1.0000
  C   C868      1.0  0.62086  0.80964  0.76337  1.0000
  H   H680      1.0  0.88928  0.80760  0.58921  1.0000
  S   S122      1.0  0.66480  0.52374  0.60779  1.0000
  C   C869      1.0  0.59272  0.67740  0.65463  1.0000
  C   C870      1.0  0.55214  0.55657  0.76343  1.0000
  Fe  Fe61      1.0  0.02192  0.87971  0.66884  1.0000
  C   C871      1.0  0.61802  0.71272  0.72747  1.0000
  S   S123      1.0  0.97199  0.86182  0.61585  1.0000
  H   H681      1.0  0.66445  0.83013  0.59452  1.0000
  H   H682      1.0  0.81550  0.60206  0.60415  1.0000
  C   C872      1.0  0.80925  0.86574  0.61256  1.0000
  C   C873      1.0  0.72693  0.88410  0.58193  1.0000
  H   H683      1.0  0.83871  0.72713  0.61731  1.0000
  P   P29       1.0  0.58118  0.75122  0.77688  1.0000
  H   H684      1.0  0.03311  0.84780  0.55804  1.0000
  H   H685      1.0  0.66498  0.69986  0.54960  1.0000
  H   H686      1.0  0.64758  0.68445  0.68917  1.0000
  H   H687      1.0  0.95412  0.56586  0.61885  1.0000
  C   C874      1.0  0.93551  0.80552  0.63646  1.0000
  H   H688      1.0  0.92569  0.71211  0.71286  1.0000
  C   C875      1.0  0.56582  0.84081  0.59983  1.0000
  C   C876      1.0  0.74073  0.77976  0.63627  1.0000
  H   H689      1.0  0.71440  0.74644  0.64569  1.0000
  H   H690      1.0  0.64050  0.72180  0.75538  1.0000
  H   H691      1.0  0.85987  0.51271  0.66952  1.0000
  Fe  Fe62      1.0  0.70061  0.59130  0.62795  1.0000
  C   C877      1.0  0.91739  0.73300  0.68662  1.0000
  H   H692      1.0  0.97501  0.79292  0.68727  1.0000
  C   C878      1.0  0.84319  0.56123  0.63178  1.0000
  C   C879      1.0  0.88236  0.85309  0.70828  1.0000
  C   C880      1.0  0.58529  0.72213  0.72901  1.0000
  C   C881      1.0  0.65862  0.82361  0.73528  1.0000
  H   H693      1.0  0.93668  0.75426  0.78475  1.0000
  C   C882      1.0  0.55933  0.68541  0.65679  1.0000
  C   C883      1.0  0.79531  0.48981  0.68568  1.0000
  H   H694      1.0  0.02667  0.70896  0.76838  1.0000
  H   H695      1.0  0.80192  0.93483  0.78825  1.0000
  H   H696      1.0  0.87216  0.68263  0.78223  1.0000
  H   H697      1.0  0.53600  0.67375  0.63030  1.0000
  C   C884      1.0  0.61829  0.60526  0.79239  1.0000
  C   C885      1.0  0.72712  0.93341  0.86458  1.0000
  H   H698      1.0  0.81611  0.76881  0.96934  1.0000
  C   C886      1.0  0.02658  0.53444  0.89050  1.0000
  H   H699      1.0  0.76266  0.83790  0.99805  1.0000
  C   C887      1.0  0.86151  0.48628  0.96205  1.0000
  C   C888      1.0  0.77679  0.62639  0.94685  1.0000
  C   C889      1.0  0.83255  0.68561  0.03066  1.0000
  P   P30       1.0  0.80113  0.68676  0.93551  1.0000
  C   C890      1.0  0.84424  0.70826  0.88794  1.0000
  C   C891      1.0  0.00213  0.87759  0.88150  1.0000
  C   C892      1.0  0.84122  0.68506  0.84847  1.0000
  H   H700      1.0  0.58718  0.79681  0.97909  1.0000
  C   C893      1.0  0.82493  0.75019  0.99829  1.0000
  H   H701      1.0  0.73289  0.68935  0.98568  1.0000
  C   C894      1.0  0.53419  0.54150  0.81367  1.0000
  C   C895      1.0  0.87918  0.83871  0.80019  1.0000
  H   H702      1.0  0.80276  0.54400  0.95600  1.0000
  C   C896      1.0  0.78354  0.55963  0.95364  1.0000
  C   C897      1.0  0.80159  0.60591  0.94968  1.0000
  C   C898      1.0  0.76504  0.70471  0.91167  1.0000
  H   H703      1.0  0.57458  0.86801  0.97802  1.0000
  C   C899      1.0  0.74058  0.53340  0.95493  1.0000
  C   C900      1.0  0.95250  0.83609  0.95533  1.0000
  C   C901      1.0  0.91074  0.74139  0.81325  1.0000
  C   C902      1.0  0.99473  0.52040  0.97555  1.0000
  C   C903      1.0  0.70266  0.49018  0.82477  1.0000
  C   C904      1.0  0.86030  0.88305  0.90295  1.0000
  C   C905      1.0  0.77445  0.92147  0.81445  1.0000
  H   H704      1.0  0.59705  0.66910  0.97160  1.0000
  H   H705      1.0  0.99231  0.97625  0.87015  1.0000
  H   H706      1.0  0.61822  0.78684  0.86777  1.0000
  C   C906      1.0  0.97704  0.89498  0.86182  1.0000
  H   H707      1.0  0.88366  0.76695  0.91902  1.0000
  C   C907      1.0  0.82188  0.84859  0.89350  1.0000
  C   C908      1.0  0.55752  0.77528  0.96617  1.0000
  C   C909      1.0  0.74988  0.87533  0.83006  1.0000
  C   C910      1.0  0.57265  0.67906  0.84941  1.0000
  H   H708      1.0  0.54480  0.72027  0.02579  1.0000
  H   H709      1.0  0.94276  0.81290  0.99136  1.0000
  C   C911      1.0  0.71554  0.53466  0.82758  1.0000
  C   C912      1.0  0.59466  0.68484  0.93431  1.0000
  C   C913      1.0  0.76562  0.71937  0.85937  1.0000
  H   H710      1.0  0.96962  0.50014  0.00530  1.0000
  H   H711      1.0  0.75835  0.85312  0.81562  1.0000
  H   H712      1.0  0.02843  0.57010  0.02113  1.0000
  H   H713      1.0  0.99268  0.76381  0.00109  1.0000
  H   H714      1.0  0.82984  0.90019  0.01396  1.0000
  H   H715      1.0  0.81304  0.65455  0.84569  1.0000
  C   C914      1.0  0.61669  0.91080  0.02497  1.0000
  H   H716      1.0  0.75746  0.80556  0.92067  1.0000
  C   C915      1.0  0.70326  0.88690  0.88144  1.0000
  C   C916      1.0  0.87461  0.70123  0.81187  1.0000
  H   H717      1.0  0.74826  0.55912  0.82335  1.0000
  H   H718      1.0  0.01244  0.70813  0.89804  1.0000
  H   H719      1.0  0.92696  0.52234  0.94250  1.0000
  C   C917      1.0  0.70470  0.72609  0.87531  1.0000
  C   C918      1.0  0.86288  0.90150  0.94665  1.0000
  H   H720      1.0  0.62147  0.52720  0.84494  1.0000
  C   C919      1.0  0.61048  0.73101  0.92287  1.0000
  C   C920      1.0  0.88072  0.74837  0.88933  1.0000
  P   P31       1.0  0.71206  0.97172  0.88362  1.0000
  C   C921      1.0  0.93146  0.96436  0.84970  1.0000
  C   C922      1.0  0.93758  0.65019  0.02134  1.0000
  C   C923      1.0  0.99331  0.92602  0.01072  1.0000
  H   H721      1.0  0.54451  0.54554  0.89225  1.0000
  C   C924      1.0  0.60660  0.75122  0.87515  1.0000
  C   C925      1.0  0.97177  0.73052  0.99489  1.0000
  H   H722      1.0  0.83496  0.62585  0.94814  1.0000
  H   H723      1.0  0.96464  0.75432  0.91836  1.0000
  C   C926      1.0  0.68583  0.96357  0.98523  1.0000
  H   H724      1.0  0.72651  0.49752  0.95804  1.0000
  C   C927      1.0  0.02804  0.56014  0.98466  1.0000
  H   H725      1.0  0.61857  0.60367  0.87317  1.0000
  C   C928      1.0  0.60005  0.59068  0.84250  1.0000
  C   C929      1.0  0.64392  0.51654  0.83965  1.0000
  C   C930      1.0  0.92776  0.85427  0.93618  1.0000
  H   H726      1.0  0.00889  0.83373  0.94225  1.0000
  H   H727      1.0  0.90607  0.48598  0.84087  1.0000
  H   H728      1.0  0.68002  0.70821  0.95391  1.0000
  H   H729      1.0  0.89906  0.84459  0.95789  1.0000
  C   C931      1.0  0.57588  0.65896  0.89762  1.0000
  H   H730      1.0  0.77890  0.97699  0.94446  1.0000
  H   H731      1.0  0.69597  0.58236  0.83682  1.0000
  H   H732      1.0  0.56237  0.82498  0.90275  1.0000
  C   C932      1.0  0.82054  0.70877  0.99249  1.0000
  C   C933      1.0  0.93980  0.88372  0.88900  1.0000
  C   C934      1.0  0.78984  0.85053  0.97151  1.0000
  H   H733      1.0  0.86055  0.51543  0.96960  1.0000
  S   S124      1.0  0.02189  0.78307  0.82825  1.0000
  H   H734      1.0  0.90290  0.61168  0.96603  1.0000
  H   H735      1.0  0.87126  0.81516  0.83544  1.0000
  H   H736      1.0  0.78831  0.72143  0.83200  1.0000
  H   H737      1.0  0.82881  0.65327  0.02787  1.0000
  H   H738      1.0  0.68063  0.73282  0.86095  1.0000
  C   C935      1.0  0.55204  0.96837  0.99017  1.0000
  C   C936      1.0  0.78695  0.83222  0.92797  1.0000
  C   C937      1.0  0.99626  0.96767  0.99423  1.0000
  H   H739      1.0  0.71342  0.61407  0.94779  1.0000
  C   C938      1.0  0.73351  0.59957  0.94941  1.0000
  C   C939      1.0  0.54362  0.79108  0.92336  1.0000
  C   C940      1.0  0.70414  0.71190  0.92742  1.0000
  H   H740      1.0  0.94156  0.79649  0.85193  1.0000
  C   C941      1.0  0.71556  0.55324  0.95357  1.0000
  H   H741      1.0  0.58722  0.83131  0.80739  1.0000
  C   C942      1.0  0.71462  0.85805  0.86409  1.0000
  C   C943      1.0  0.63517  0.91168  0.93780  1.0000
  C   C944      1.0  0.67549  0.94660  0.93998  1.0000
  C   C945      1.0  0.58760  0.72541  0.83798  1.0000
  H   H742      1.0  0.98653  0.91719  0.82509  1.0000
  C   C946      1.0  0.82773  0.88545  0.98059  1.0000
  C   C947      1.0  0.96207  0.69295  0.03253  1.0000
  C   C948      1.0  0.55828  0.55787  0.85327  1.0000
  C   C949      1.0  0.60587  0.89408  0.98006  1.0000
  P   P32       1.0  0.90658  0.90401  0.86049  1.0000
  C   C950      1.0  0.73573  0.73034  0.84142  1.0000
  C   C951      1.0  0.68614  0.54779  0.83514  1.0000
  C   C952      1.0  0.99352  0.50731  0.92829  1.0000
  C   C953      1.0  0.89572  0.88446  0.80063  1.0000
  H   H743      1.0  0.62618  0.89918  0.90281  1.0000
  C   C954      1.0  0.73422  0.70135  0.94547  1.0000
  C   C955      1.0  0.98967  0.84776  0.92790  1.0000
  C   C956      1.0  0.65660  0.94549  0.02759  1.0000
  H   H744      1.0  0.81844  0.83445  0.85957  1.0000
  H   H745      1.0  0.69614  0.82226  0.87686  1.0000
  H   H746      1.0  0.62523  0.75096  0.95147  1.0000
  C   C957      1.0  0.95579  0.72526  0.94776  1.0000
  C   C958      1.0  0.93030  0.68255  0.93749  1.0000
  C   C959      1.0  0.91356  0.76518  0.85157  1.0000
  H   H747      1.0  0.67605  0.87263  0.90793  1.0000
  H   H748      1.0  0.68215  0.53254  0.95559  1.0000
  C   C960      1.0  0.92138  0.64496  0.97427  1.0000
  H   H749      1.0  0.91882  0.67873  0.90039  1.0000
  C   C961      1.0  0.76337  0.95040  0.83183  1.0000
  C   C962      1.0  0.02780  0.92042  0.00403  1.0000
  C   C963      1.0  0.89945  0.48979  0.94772  1.0000
  H   H750      1.0  0.56359  0.62315  0.90682  1.0000
  H   H751      1.0  0.89211  0.92840  0.95447  1.0000
  H   H752      1.0  0.02516  0.88819  0.01810  1.0000
  H   H753      1.0  0.02686  0.52513  0.85390  1.0000
  H   H754      1.0  0.96434  0.89823  0.02949  1.0000
  H   H755      1.0  0.73560  0.74027  0.80084  1.0000
  H   H756      1.0  0.55814  0.65822  0.82143  1.0000
  C   C964      1.0  0.54163  0.94172  0.03849  1.0000
  H   H757      1.0  0.03085  0.88655  0.86010  1.0000
  H   H758      1.0  0.72548  0.48012  0.81847  1.0000
  H   H759      1.0  0.96962  0.97203  0.00031  1.0000
  C   C965      1.0  0.84055  0.76782  0.04178  1.0000
  H   H760      1.0  0.87603  0.96548  0.82637  1.0000
  C   C966      1.0  0.94644  0.65671  0.14210  1.0000
  C   C967      1.0  0.90792  0.57917  0.18571  1.0000
  Fe  Fe63      1.0  0.69290  0.81178  0.18878  1.0000
  C   C968      1.0  0.99158  0.82087  0.25780  1.0000
  H   H761      1.0  0.59397  0.89735  0.05756  1.0000
  H   H762      1.0  0.60853  0.62926  0.05086  1.0000
  H   H763      1.0  0.94786  0.75752  0.07886  1.0000
  H   H764      1.0  0.57632  0.93771  0.15566  1.0000
  C   C969      1.0  0.95864  0.81790  0.23016  1.0000
  Fe  Fe64      1.0  0.63192  0.75303  0.12279  1.0000
  C   C970      1.0  0.86314  0.96043  0.19034  1.0000
  Fe  Fe65      1.0  0.03219  0.49958  0.15377  1.0000
  C   C971      1.0  0.82974  0.85196  0.22602  1.0000
  H   H765      1.0  0.85613  0.56209  0.23828  1.0000
  C   C972      1.0  0.02885  0.69006  0.08735  1.0000
  H   H766      1.0  0.89187  0.86351  0.23243  1.0000
  S   S125      1.0  0.69109  0.51493  0.19217  1.0000
  H   H767      1.0  0.95950  0.60433  0.12999  1.0000
  C   C973      1.0  0.83017  0.97575  0.25728  1.0000
  H   H768      1.0  0.90289  0.54535  0.19159  1.0000
  C   C974      1.0  0.78391  0.69994  0.20537  1.0000
  C   C975      1.0  0.84816  0.70334  0.07415  1.0000
  C   C976      1.0  0.88779  0.63219  0.20416  1.0000
  H   H769      1.0  0.65157  0.59277  0.06625  1.0000
  C   C977      1.0  0.84609  0.85878  0.12203  1.0000
  Fe  Fe66      1.0  0.97147  0.93799  0.17528  1.0000
  S   S126      1.0  0.95153  0.94745  0.24968  1.0000
  H   H770      1.0  0.85602  0.68446  0.10406  1.0000
  H   H771      1.0  0.71661  0.97167  0.20341  1.0000
  H   H772      1.0  0.63208  0.56146  0.17889  1.0000
  C   C978      1.0  0.65802  0.92165  0.18399  1.0000
  H   H773      1.0  0.66478  0.95896  0.06226  1.0000
  H   H774      1.0  0.85298  0.86311  0.08165  1.0000
  S   S127      1.0  0.66096  0.73830  0.19126  1.0000
  C   C979      1.0  0.60689  0.94508  0.16598  1.0000
  H   H775      1.0  0.63593  0.65962  0.26091  1.0000
  Fe  Fe67      1.0  0.60824  0.73449  0.23702  1.0000
  C   C980      1.0  0.76096  0.72072  0.21421  1.0000
  S   S128      1.0  0.92876  0.88660  0.13018  1.0000
  C   C981      1.0  0.72039  0.69560  0.08863  1.0000
  S   S129      1.0  0.72942  0.51287  0.08179  1.0000
  H   H776      1.0  0.97037  0.83250  0.09825  1.0000
  H   H777      1.0  0.83074  0.68408  0.23107  1.0000
  H   H778      1.0  0.86623  0.56473  0.07123  1.0000
  C   C982      1.0  0.85421  0.95782  0.24203  1.0000
  Fe  Fe68      1.0  0.61384  0.81647  0.16774  1.0000
  H   H779      1.0  0.86730  0.63939  0.22475  1.0000
  C   C983      1.0  0.91784  0.78639  0.24897  1.0000
  H   H780      1.0  0.86337  0.75776  0.11390  1.0000
  Fe  Fe69      1.0  0.01094  0.95250  0.27529  1.0000
  H   H781      1.0  0.97410  0.68261  0.27021  1.0000
  H   H782      1.0  0.80218  0.53365  0.12842  1.0000
  C   C984      1.0  0.82028  0.72216  0.28010  1.0000
  H   H783      1.0  0.02326  0.84522  0.24322  1.0000
  H   H784      1.0  0.75185  0.71442  0.09820  1.0000
  Fe  Fe70      1.0  0.70208  0.55094  0.11110  1.0000
  P   P33       1.0  0.98482  0.69892  0.09235  1.0000
  C   C985      1.0  0.81348  0.70065  0.23817  1.0000
  H   H785      1.0  0.02835  0.67141  0.16846  1.0000
  C   C986      1.0  0.57859  0.54026  0.23105  1.0000
  C   C987      1.0  0.63863  0.61430  0.21673  1.0000
  C   C988      1.0  0.81666  0.51358  0.12540  1.0000
  H   H786      1.0  0.88307  0.94823  0.17866  1.0000
  H   H787      1.0  0.86589  0.94150  0.26992  1.0000
  C   C989      1.0  0.70414  0.65068  0.08464  1.0000
  C   C990      1.0  0.76754  0.74213  0.25581  1.0000
  C   C991      1.0  0.69594  0.71622  0.08050  1.0000
  C   C992      1.0  0.79921  0.84779  0.19318  1.0000
  C   C993      1.0  0.00113  0.75376  0.10683  1.0000
  C   C994      1.0  0.68596  0.96425  0.19317  1.0000
  S   S130      1.0  0.63830  0.50563  0.09087  1.0000
  C   C995      1.0  0.66391  0.62699  0.07058  1.0000
  S   S131      1.0  0.66765  0.82756  0.11677  1.0000
  C   C996      1.0  0.92004  0.66611  0.16932  1.0000
  S   S132      1.0  0.64209  0.80715  0.23895  1.0000
  H   H788      1.0  0.66914  0.63815  0.19771  1.0000
  C   C997      1.0  0.97682  0.77444  0.09556  1.0000
  C   C998      1.0  0.98943  0.81687  0.10646  1.0000
  H   H789      1.0  0.56288  0.50695  0.22307  1.0000
  H   H790      1.0  0.89298  0.78552  0.22714  1.0000
  H   H791      1.0  0.82382  0.85010  0.26623  1.0000
  C   C999      1.0  0.58004  0.59622  0.27489  1.0000
  H   H792      1.0  0.56572  0.49186  0.13639  1.0000
  C   C1000     1.0  0.97651  0.62132  0.27783  1.0000
  S   S133      1.0  0.73567  0.62611  0.09583  1.0000
  H   H793      1.0  0.55798  0.62811  0.12655  1.0000
  H   H794      1.0  0.66738  0.89653  0.18662  1.0000
  C   C1001     1.0  0.61834  0.91191  0.17085  1.0000
  Fe  Fe71      1.0  0.95669  0.50790  0.12335  1.0000
  Fe  Fe72      1.0  0.98248  0.51399  0.23082  1.0000
  C   C1002     1.0  0.88153  0.58865  0.21202  1.0000
  H   H795      1.0  0.77849  0.68298  0.17327  1.0000
  S   S134      1.0  0.01545  0.55344  0.15433  1.0000
  H   H796      1.0  0.70842  0.75074  0.08442  1.0000
  C   C1003     1.0  0.94015  0.61290  0.15084  1.0000
  H   H797      1.0  0.73815  0.72043  0.18880  1.0000
  C   C1004     1.0  0.87418  0.50712  0.09259  1.0000
  C   C1005     1.0  0.02612  0.83878  0.12928  1.0000
  H   H798      1.0  0.78319  0.84619  0.11595  1.0000
  C   C1006     1.0  0.85210  0.74440  0.07977  1.0000
  C   C1007     1.0  0.85317  0.53134  0.09311  1.0000
  C   C1008     1.0  0.99395  0.66785  0.27035  1.0000
  S   S135      1.0  0.75448  0.84495  0.21963  1.0000
  C   C1009     1.0  0.86847  0.86017  0.20687  1.0000
  S   S136      1.0  0.62486  0.71795  0.05750  1.0000
  C   C1010     1.0  0.57274  0.97356  0.28440  1.0000
  H   H799      1.0  0.57222  0.96491  0.24744  1.0000
  H   H800      1.0  0.92397  0.69939  0.16367  1.0000
  C   C1011     1.0  0.55972  0.55239  0.26611  1.0000
  S   S137      1.0  0.57620  0.74300  0.16855  1.0000
  S   S138      1.0  0.92522  0.53234  0.06478  1.0000
  C   C1012     1.0  0.80674  0.84944  0.14138  1.0000
  H   H801      1.0  0.56267  0.95247  0.06771  1.0000
  C   C1013     1.0  0.63977  0.64790  0.06123  1.0000
  H   H802      1.0  0.84308  0.79932  0.04645  1.0000
  C   C1014     1.0  0.87738  0.86581  0.15464  1.0000
  C   C1015     1.0  0.65561  0.69236  0.06678  1.0000
  S   S139      1.0  0.58290  0.85852  0.16030  1.0000
  C   C1016     1.0  0.61779  0.57111  0.20616  1.0000
  C   C1017     1.0  0.61985  0.62660  0.25161  1.0000
  H   H803      1.0  0.96459  0.84065  0.19453  1.0000
  H   H804      1.0  0.74990  0.75852  0.26233  1.0000
  H   H805      1.0  0.94330  0.60013  0.28422  1.0000
  C   C1018     1.0  0.00206  0.60212  0.27821  1.0000
  S   S140      1.0  0.02870  0.93872  0.20279  1.0000
  C   C1019     1.0  0.79734  0.74330  0.28842  1.0000
  H   H806      1.0  0.93218  0.62088  0.04834  1.0000
  C   C1020     1.0  0.84575  0.97796  0.15357  1.0000
  H   H807      1.0  0.59525  0.75707  0.42532  1.0000
  H   H808      1.0  0.00054  0.68467  0.53931  1.0000
  C   C1021     1.0  0.80862  0.72753  0.45819  1.0000
  C   C1022     1.0  0.92168  0.60961  0.50042  1.0000
  C   C1023     1.0  0.88043  0.66345  0.54073  1.0000
  C   C1024     1.0  0.55974  0.47862  0.52722  1.0000
  H   H809      1.0  0.65264  0.48740  0.36731  1.0000
  H   H810      1.0  0.55464  0.56729  0.45857  1.0000
  H   H811      1.0  0.93721  0.74226  0.36227  1.0000
  C   C1025     1.0  0.59984  0.51582  0.51837  1.0000
  C   C1026     1.0  0.82728  0.57282  0.35687  1.0000
  C   C1027     1.0  0.89519  0.51896  0.50745  1.0000
  H   H812      1.0  0.75482  0.89327  0.29332  1.0000
  C   C1028     1.0  0.94286  0.76225  0.32462  1.0000
  H   H813      1.0  0.01350  0.67577  0.39217  1.0000
  H   H814      1.0  0.71149  0.89564  0.43836  1.0000
  C   C1029     1.0  0.61578  0.88509  0.33658  1.0000
  H   H815      1.0  0.72880  0.93645  0.33543  1.0000
  C   C1030     1.0  0.63022  0.68921  0.48408  1.0000
  C   C1031     1.0  0.64713  0.84758  0.38833  1.0000
  H   H816      1.0  0.93474  0.61542  0.42037  1.0000
  H   H817      1.0  0.94205  0.96904  0.46483  1.0000
  C   C1032     1.0  0.60805  0.55576  0.53335  1.0000
  C   C1033     1.0  0.76224  0.88312  0.33053  1.0000
  H   H818      1.0  0.59666  0.68834  0.41852  1.0000
  C   C1034     1.0  0.01652  0.74034  0.47838  1.0000
  C   C1035     1.0  0.61096  0.70578  0.44907  1.0000
  C   C1036     1.0  0.87778  0.65171  0.33526  1.0000
  H   H819      1.0  0.02293  0.55826  0.39051  1.0000
  H   H820      1.0  0.73394  0.78921  0.41977  1.0000
  C   C1037     1.0  0.53532  0.54283  0.38920  1.0000
  C   C1038     1.0  0.87755  0.78283  0.38788  1.0000
  H   H821      1.0  0.00937  0.79588  0.32646  1.0000
  C   C1039     1.0  0.79549  0.58338  0.35753  1.0000
  H   H822      1.0  0.85510  0.63536  0.52796  1.0000
  C   C1040     1.0  0.98369  0.79301  0.30497  1.0000
  C   C1041     1.0  0.71512  0.89147  0.47852  1.0000
  H   H823      1.0  0.98159  0.59547  0.38543  1.0000
  H   H824      1.0  0.54017  0.78326  0.38290  1.0000
  C   C1042     1.0  0.68252  0.85874  0.51416  1.0000
  C   C1043     1.0  0.63126  0.76950  0.49066  1.0000
  H   H825      1.0  0.62559  0.51347  0.50304  1.0000
  H   H826      1.0  0.65941  0.86853  0.30688  1.0000
  C   C1044     1.0  0.75024  0.82421  0.40165  1.0000
  C   C1045     1.0  0.79269  0.91505  0.35511  1.0000
  H   H827      1.0  0.98462  0.73051  0.47187  1.0000
  S   S141      1.0  0.61816  0.95760  0.49406  1.0000
  H   H828      1.0  0.71965  0.57437  0.51478  1.0000
  C   C1046     1.0  0.80474  0.62808  0.34793  1.0000
  C   C1047     1.0  0.60024  0.86592  0.42822  1.0000
  H   H829      1.0  0.80227  0.76084  0.31982  1.0000
  P   P34       1.0  0.63282  0.82176  0.49415  1.0000
  H   H830      1.0  0.83218  0.78233  0.49885  1.0000
  H   H831      1.0  0.81995  0.53808  0.36512  1.0000
  S   S142      1.0  0.58278  0.69067  0.31426  1.0000
  H   H832      1.0  0.77792  0.94595  0.46742  1.0000
  H   H833      1.0  0.89280  0.59851  0.34335  1.0000
  H   H834      1.0  0.91091  0.53442  0.42654  1.0000
  C   C1048     1.0  0.90961  0.75794  0.29623  1.0000
  C   C1049     1.0  0.90983  0.54757  0.46026  1.0000
  C   C1050     1.0  0.84607  0.66285  0.33768  1.0000
  C   C1051     1.0  0.92336  0.59302  0.45687  1.0000
  C   C1052     1.0  0.03185  0.65909  0.39545  1.0000
  C   C1053     1.0  0.62603  0.84671  0.43257  1.0000
  H   H835      1.0  0.61178  0.89970  0.29944  1.0000
  C   C1054     1.0  0.53858  0.78061  0.30340  1.0000
  H   H836      1.0  0.76359  0.55669  0.36574  1.0000
  C   C1055     1.0  0.87134  0.79805  0.43058  1.0000
  C   C1056     1.0  0.64951  0.71229  0.52279  1.0000
  C   C1057     1.0  0.73787  0.48883  0.50381  1.0000
  H   H837      1.0  0.78739  0.84483  0.46368  1.0000
  H   H838      1.0  0.56684  0.55622  0.37323  1.0000
  H   H839      1.0  0.77945  0.63535  0.34781  1.0000
  C   C1058     1.0  0.78057  0.85570  0.42641  1.0000
  H   H840      1.0  0.98801  0.56348  0.49543  1.0000
  C   C1059     1.0  0.85002  0.73907  0.38074  1.0000
  C   C1060     1.0  0.83697  0.77040  0.46579  1.0000
  C   C1061     1.0  0.86834  0.60693  0.34518  1.0000
  H   H841      1.0  0.89300  0.83161  0.43605  1.0000
  H   H842      1.0  0.63075  0.65887  0.48078  1.0000
  C   C1062     1.0  0.61082  0.74532  0.45271  1.0000
  C   C1063     1.0  0.74132  0.83789  0.35350  1.0000
  C   C1064     1.0  0.75318  0.92008  0.49470  1.0000
  C   C1065     1.0  0.02785  0.62000  0.52951  1.0000
  H   H843      1.0  0.75843  0.55401  0.45826  1.0000
  H   H844      1.0  0.93288  0.64500  0.49624  1.0000
  H   H845      1.0  0.68322  0.97516  0.42389  1.0000
  C   C1066     1.0  0.01380  0.61401  0.39218  1.0000
  H   H846      1.0  0.78156  0.70661  0.48518  1.0000
  C   C1067     1.0  0.80203  0.90091  0.40316  1.0000
  H   H847      1.0  0.82562  0.92449  0.42303  1.0000
  P   P35       1.0  0.85688  0.72048  0.32372  1.0000
  H   H848      1.0  0.56530  0.60669  0.30028  1.0000
  S   S143      1.0  0.01545  0.91989  0.35277  1.0000
  H   H849      1.0  0.57178  0.80103  0.29509  1.0000
  H   H850      1.0  0.90375  0.80579  0.36046  1.0000
  H   H851      1.0  0.79263  0.67858  0.41098  1.0000
  C   C1068     1.0  0.53843  0.97390  0.30631  1.0000
  H   H852      1.0  0.71843  0.81351  0.33354  1.0000
  H   H853      1.0  0.66761  0.83348  0.39078  1.0000
  C   C1069     1.0  0.02567  0.71438  0.51628  1.0000
  C   C1070     1.0  0.81514  0.71177  0.41602  1.0000
  H   H854      1.0  0.58455  0.86703  0.46159  1.0000
  C   C1071     1.0  0.59487  0.88462  0.38040  1.0000
  H   H855      1.0  0.57480  0.89918  0.37754  1.0000
  H   H856      1.0  0.90973  0.67694  0.32478  1.0000
  C   C1072     1.0  0.64234  0.86711  0.34069  1.0000
  C   C1073     1.0  0.73981  0.53054  0.49184  1.0000
  H   H857      1.0  0.93211  0.77728  0.51305  1.0000
  H   H858      1.0  0.87253  0.71179  0.48798  1.0000
  C   C1074     1.0  0.74373  0.97232  0.33135  1.0000
  S   S144      1.0  0.98006  0.54418  0.29712  1.0000
  H   H859      1.0  0.68590  0.97250  0.33038  1.0000
  C   C1075     1.0  0.89073  0.70679  0.51707  1.0000
  C   C1076     1.0  0.00610  0.57452  0.52704  1.0000
  H   H860      1.0  0.02649  0.64327  0.49888  1.0000
  H   H861      1.0  0.63952  0.58347  0.52840  1.0000
  C   C1077     1.0  0.65029  0.75236  0.52601  1.0000
  C   C1078     1.0  0.92461  0.74362  0.53071  1.0000
  H   H862      1.0  0.88570  0.48397  0.51035  1.0000
  P   P36       1.0  0.81943  0.97329  0.32434  1.0000
  C   C1079     1.0  0.71816  0.54220  0.52405  1.0000
  H   H863      1.0  0.55542  0.74118  0.54168  1.0000
  C   C1080     1.0  0.59318  0.81199  0.54192  1.0000
  H   H864      1.0  0.81740  0.84767  0.54178  1.0000
