data_image0
_chemical_formula_structural       HC3SHFeS2FeS2PC3HC6H4C3FeC7HCH10CHCHCH3CH2CHC2HCHCH3C2H2C4SFeCHPHC3HC5HC2SCH3CHSHC4HCH2C4H3CFeCSFeS2FeS2FeSCFeSFeS3CH2CHC6H4C6H3CH2CHC5H3C4HCHCHSC4PH2PHC2HC2H2SHC3PCHC3H2C2H2C2H2CH5C5H2CH2C3HCHC5H3C2HC4H2CHC2HCH2C2HFeCH5C2HCHCSC2SCFeS2FeS2HC2FeHC6H7CHC2HC3PCHFeCHCH3CHC2HCHCHCH2CH2C2HC3HCH3C4HC2HCHCHCHC4HCHC3H2CHC3H3CH2C3H2PH7C5HCHCHCHFeS2FeS2FeSCFeSFeS3C4HC6H4C6H5C2PC2HCHC4HC5H2CHCSH2C3HCH3CHCH2PCH3SH2C2H2CH2C2HCH2C4HC4H3CFeS2FeS2CHCH2C6H3FeS2FeS2C5H4CH4C3H3CHC2H3CHCH3CH4C3PC11HC2SHCHC2H2C3HPCHCHC3H3C2HC2HC3H3C2HCH2C2H2CHC9HC3H2CPH2CHC2H7C7HC3H2C3FeCHCH3C5SH2SC2HC2HPH2CHCHC4PC2H5SC2SH2CH3C3SHCHC4HCFeSHCH4SHCSFeC2FeHSCHCHSC2H2CH2C2H2CHC2H2CHC2H2PC4HC2H3C2HCHC3HC5HC6H2C2H2CPH2C2H2C4H2CSC3HCH3CH3CHCHC2HC2H3C2H2CHSHC3H3C2HCFePSCH2FeS2FeS2CHC2HFeC6H4C6PC8H2C3HC4H3C2H7SCHCH3C3H2CH5C2H3CHC2HCHC2HC4HSCHSC2HCHC4H4CH3C3SFeS2FeS2FeS2FeSFeHS2CH3C7HCH2C6H4CFeH3C6PC5HCHC4HC3H2CH2C2H4C5SCH2PHC3H6CH3C2H2C2HC2H4CHCH2C2H3C2H3CHC2H2C4HSCHCHCH2S2HC2FeCSHSC2HC2H2C6H4C6PC4FeHSCH4CSC2HC2H4CHC6HC5H3CH5C2HC2H4CH2CH2C2H2CHCHSC5H3PHFe2C3HCH3C3FeS2FeS2FeS2FeSCFeSFeCS2CHCH2C6H4C6H6C2HC4H4C10HC2HC5H2CHCHCH6CH4CPHCH3CH2C3H3C2HC2H2C2H2SPC2HC8H2CHCH3
_chemical_formula_sum              "H576 C720 S96 Fe48 P24"
_cell_length_a       41.9014
_cell_length_b       41.6629
_cell_length_c       26.2229
_cell_angle_alpha    90.3729
_cell_angle_beta     89.7197
_cell_angle_gamma    119.988

_space_group_name_H-M_alt    "P 1"
_space_group_IT_number       1

loop_
  _space_group_symop_operation_xyz
  'x, y, z'

loop_
  _atom_site_type_symbol
  _atom_site_label
  _atom_site_symmetry_multiplicity
  _atom_site_fract_x
  _atom_site_fract_y
  _atom_site_fract_z
  _atom_site_occupancy
  H   H1        1.0  0.26446  0.26531  0.46801  1.0000
  C   C1        1.0  0.29540  0.14442  0.14876  1.0000
  C   C2        1.0  0.11409  0.29692  0.27937  1.0000
  C   C3        1.0  0.26027  0.11869  0.39056  1.0000
  S   S1        1.0  0.17710  0.46016  0.37942  1.0000
  H   H2        1.0  0.26485  0.43171  0.14889  1.0000
  Fe  Fe1       1.0  0.02955  0.24892  0.14061  1.0000
  S   S2        1.0  0.02852  0.30133  0.15958  1.0000
  S   S3        1.0  0.08440  0.25777  0.10763  1.0000
  Fe  Fe2       1.0  0.01305  0.27876  0.23894  1.0000
  S   S4        1.0  0.03631  0.30571  0.31673  1.0000
  S   S5        1.0  0.01627  0.22753  0.22139  1.0000
  P   P1        1.0  0.26045  0.06488  0.25989  1.0000
  C   C4        1.0  0.24610  0.08381  0.31124  1.0000
  C   C5        1.0  0.10025  0.25134  0.04724  1.0000
  C   C6        1.0  0.18333  0.19634  0.03516  1.0000
  H   H3        1.0  0.15671  0.27751  0.07234  1.0000
  C   C7        1.0  0.07718  0.34789  0.33191  1.0000
  C   C8        1.0  0.09157  0.35304  0.38162  1.0000
  C   C9        1.0  0.12266  0.38680  0.39642  1.0000
  C   C10       1.0  0.13917  0.41622  0.36206  1.0000
  C   C11       1.0  0.12483  0.41105  0.31231  1.0000
  C   C12       1.0  0.09438  0.37695  0.29701  1.0000
  H   H4        1.0  0.07852  0.33075  0.40888  1.0000
  H   H5        1.0  0.13354  0.39034  0.43452  1.0000
  H   H6        1.0  0.13712  0.43372  0.28559  1.0000
  H   H7        1.0  0.08349  0.37345  0.25879  1.0000
  C   C13       1.0  0.10658  0.35612  0.08547  1.0000
  C   C14       1.0  0.11187  0.40381  0.14365  1.0000
  C   C15       1.0  0.23399  0.33894  0.48114  1.0000
  Fe  Fe3       1.0  0.29705  0.06461  0.48415  1.0000
  C   C16       1.0  0.13610  0.35590  0.10966  1.0000
  C   C17       1.0  0.15444  0.38033  0.15031  1.0000
  C   C18       1.0  0.14184  0.40408  0.16738  1.0000
  C   C19       1.0  0.16817  0.34741  0.23940  1.0000
  C   C20       1.0  0.13339  0.30336  0.32504  1.0000
  C   C21       1.0  0.17033  0.33119  0.32779  1.0000
  C   C22       1.0  0.18783  0.35289  0.28498  1.0000
  H   H8        1.0  0.24125  0.36162  0.02215  1.0000
  C   C23       1.0  0.09445  0.38008  0.10240  1.0000
  H   H9        1.0  0.24895  0.03822  0.15384  1.0000
  H   H10       1.0  0.14342  0.33546  0.09778  1.0000
  H   H11       1.0  0.15433  0.42207  0.19985  1.0000
  H   H12       1.0  0.11948  0.28693  0.35829  1.0000
  H   H13       1.0  0.18520  0.33628  0.36330  1.0000
  H   H14       1.0  0.21648  0.37427  0.28782  1.0000
  H   H15       1.0  0.29087  0.16955  0.00587  1.0000
  H   H16       1.0  0.04736  0.22377  0.01048  1.0000
  H   H17       1.0  0.11553  0.31330  0.20184  1.0000
  H   H18       1.0  0.27081  0.30501  0.39514  1.0000
  C   C24       1.0  0.28589  0.04411  0.28486  1.0000
  H   H19       1.0  0.25217  0.35279  0.40335  1.0000
  C   C25       1.0  0.19112  0.45991  0.06374  1.0000
  H   H20       1.0  0.24439  0.09630  0.16986  1.0000
  C   C26       1.0  0.22435  0.42282  0.20716  1.0000
  H   H21       1.0  0.22643  0.36025  0.48524  1.0000
  H   H22       1.0  0.10156  0.42135  0.15806  1.0000
  H   H23       1.0  0.21054  0.31983  0.20160  1.0000
  C   C27       1.0  0.28877  0.10435  0.21995  1.0000
  H   H24       1.0  0.14303  0.07373  0.01962  1.0000
  H   H25       1.0  0.25322  0.31312  0.05528  1.0000
  C   C28       1.0  0.21070  0.35728  0.14441  1.0000
  H   H26       1.0  0.21801  0.12875  0.42009  1.0000
  C   C29       1.0  0.14688  0.17413  0.01923  1.0000
  C   C30       1.0  0.21745  0.32963  0.16278  1.0000
  H   H27       1.0  0.27903  0.13244  0.42201  1.0000
  C   C31       1.0  0.07652  0.23376  0.00615  1.0000
  H   H28       1.0  0.29685  0.10389  0.35343  1.0000
  C   C32       1.0  0.25930  0.30806  0.43073  1.0000
  H   H29       1.0  0.12572  0.17973  0.03323  1.0000
  H   H30       1.0  0.21434  0.38990  0.07838  1.0000
  H   H31       1.0  0.19186  0.42315  0.27158  1.0000
  C   C33       1.0  0.13130  0.31877  0.23665  1.0000
  C   C34       1.0  0.23489  0.35301  0.06158  1.0000
  H   H32       1.0  0.09556  0.01534  0.05856  1.0000
  H   H33       1.0  0.19037  0.21911  0.06142  1.0000
  C   C35       1.0  0.22437  0.02029  0.17548  1.0000
  C   C36       1.0  0.24865  0.33486  0.43522  1.0000
  C   C37       1.0  0.09387  0.02043  0.01845  1.0000
  C   C38       1.0  0.21072  0.18954  0.01657  1.0000
  S   S6        1.0  0.23741  0.04656  0.46907  1.0000
  Fe  Fe4       1.0  0.21079  0.48107  0.45321  1.0000
  C   C39       1.0  0.21758  0.43820  0.25092  1.0000
  H   H34       1.0  0.28353  0.15117  0.11685  1.0000
  P   P2        1.0  0.18987  0.37710  0.18513  1.0000
  H   H35       1.0  0.24845  0.01787  0.34834  1.0000
  C   C40       1.0  0.21211  0.08277  0.30943  1.0000
  C   C41       1.0  0.27826  0.49245  0.24461  1.0000
  C   C42       1.0  0.24153  0.32555  0.08018  1.0000
  H   H36       1.0  0.07054  0.37904  0.08494  1.0000
  C   C43       1.0  0.23284  0.31390  0.13075  1.0000
  C   C44       1.0  0.25848  0.44290  0.18217  1.0000
  C   C45       1.0  0.22596  0.11662  0.38940  1.0000
  C   C46       1.0  0.27026  0.10224  0.35175  1.0000
  C   C47       1.0  0.27340  0.11319  0.17862  1.0000
  H   H37       1.0  0.19349  0.06972  0.27774  1.0000
  C   C48       1.0  0.20192  0.09875  0.34875  1.0000
  C   C49       1.0  0.13811  0.26398  0.04081  1.0000
  S   S7        1.0  0.28709  0.00612  0.48327  1.0000
  C   C50       1.0  0.21965  0.36892  0.09354  1.0000
  H   H38       1.0  0.08539  0.27549  0.27742  1.0000
  H   H39       1.0  0.23777  0.29240  0.14498  1.0000
  H   H40       1.0  0.24356  0.46218  0.06553  1.0000
  C   C51       1.0  0.28527  0.47760  0.20085  1.0000
  H   H41       1.0  0.09192  0.33622  0.05531  1.0000
  S   S8        1.0  0.26367  0.47982  0.46000  1.0000
  H   H42       1.0  0.18928  0.00497  0.29630  1.0000
  C   C52       1.0  0.28962  0.00177  0.34456  1.0000
  C   C53       1.0  0.22839  0.47598  0.07616  1.0000
  C   C54       1.0  0.31594  0.04625  0.25785  1.0000
  C   C55       1.0  0.24441  0.47274  0.26955  1.0000
  H   H43       1.0  0.17728  0.43354  0.04373  1.0000
  C   C56       1.0  0.25569  0.28557  0.47233  1.0000
  H   H44       1.0  0.17538  0.09728  0.34773  1.0000
  H   H45       1.0  0.23910  0.20717  0.02839  1.0000
  C   C57       1.0  0.19093  0.00165  0.25549  1.0000
  C   C58       1.0  0.22192  0.02714  0.22747  1.0000
  C   C59       1.0  0.32036  0.00516  0.31871  1.0000
  C   C60       1.0  0.27256  0.02131  0.32800  1.0000
  H   H46       1.0  0.23908  0.48382  0.30405  1.0000
  H   H47       1.0  0.31178  0.49266  0.18198  1.0000
  H   H48       1.0  0.14256  0.46505  0.06813  1.0000
  C   C61       1.0  0.17153  0.47765  0.07761  1.0000
  Fe  Fe5       1.0  0.24845  0.46697  0.54358  1.0000
  C   C62       1.0  0.12531  0.22686  0.64926  1.0000
  S   S9        1.0  0.24045  0.41316  0.57959  1.0000
  Fe  Fe6       1.0  0.23079  0.04326  0.55481  1.0000
  S   S10       1.0  0.19986  0.06727  0.59865  1.0000
  S   S11       1.0  0.29035  0.06361  0.56981  1.0000
  Fe  Fe7       1.0  0.27098  0.31555  0.82181  1.0000
  S   S12       1.0  0.22287  0.26370  0.79072  1.0000
  S   S13       1.0  0.29325  0.37301  0.78637  1.0000
  Fe  Fe8       1.0  0.28139  0.27350  0.91201  1.0000
  S   S14       1.0  0.23320  0.21939  0.88596  1.0000
  C   C63       1.0  0.20181  0.16090  0.98136  1.0000
  Fe  Fe9       1.0  0.25645  0.23616  0.80683  1.0000
  S   S15       1.0  0.27457  0.20311  0.75597  1.0000
  Fe  Fe10      1.0  0.20429  0.25200  0.87324  1.0000
  S   S16       1.0  0.14427  0.23299  0.89395  1.0000
  S   S17       1.0  0.30615  0.28917  0.83369  1.0000
  S   S18       1.0  0.25089  0.30514  0.90342  1.0000
  C   C64       1.0  0.12831  0.24104  0.95323  1.0000
  H   H49       1.0  0.19982  0.42617  0.66238  1.0000
  H   H50       1.0  0.12054  0.08485  0.73354  1.0000
  C   C65       1.0  0.19389  0.24823  0.60382  1.0000
  H   H51       1.0  0.07176  0.21451  0.92832  1.0000
  C   C66       1.0  0.22092  0.10566  0.64153  1.0000
  C   C67       1.0  0.25920  0.12706  0.64646  1.0000
  C   C68       1.0  0.27493  0.15735  0.68056  1.0000
  C   C69       1.0  0.25275  0.16651  0.71068  1.0000
  C   C70       1.0  0.21447  0.14571  0.70508  1.0000
  C   C71       1.0  0.19869  0.11551  0.67054  1.0000
  H   H52       1.0  0.27675  0.12042  0.62375  1.0000
  H   H53       1.0  0.30458  0.17374  0.68362  1.0000
  H   H54       1.0  0.19711  0.15264  0.72769  1.0000
  H   H55       1.0  0.16909  0.09949  0.66640  1.0000
  C   C72       1.0  0.27652  0.38406  0.73064  1.0000
  C   C73       1.0  0.24754  0.35684  0.70177  1.0000
  C   C74       1.0  0.23635  0.36646  0.65649  1.0000
  C   C75       1.0  0.25372  0.40340  0.63947  1.0000
  C   C76       1.0  0.28184  0.43085  0.66928  1.0000
  C   C77       1.0  0.29324  0.42117  0.71445  1.0000
  H   H56       1.0  0.23413  0.32833  0.71403  1.0000
  H   H57       1.0  0.21422  0.34504  0.63446  1.0000
  H   H58       1.0  0.12590  0.26992  0.81311  1.0000
  C   C78       1.0  0.31871  0.34928  0.65553  1.0000
  H   H59       1.0  0.12646  0.40200  0.61213  1.0000
  H   H60       1.0  0.25228  0.13669  0.52354  1.0000
  C   C79       1.0  0.24811  0.11969  0.84704  1.0000
  H   H61       1.0  0.18845  0.30845  0.84855  1.0000
  C   C80       1.0  0.14984  0.35129  0.75249  1.0000
  C   C81       1.0  0.27640  0.22699  0.54307  1.0000
  C   C82       1.0  0.24177  0.22234  0.55626  1.0000
  C   C83       1.0  0.13179  0.36847  0.55425  1.0000
  C   C84       1.0  0.19140  0.25345  0.65632  1.0000
  H   H62       1.0  0.15571  0.24715  0.71948  1.0000
  H   H63       1.0  0.27966  0.09274  0.86075  1.0000
  H   H64       1.0  0.26588  0.13717  0.81687  1.0000
  C   C85       1.0  0.16171  0.23252  0.57416  1.0000
  C   C86       1.0  0.12068  0.05350  0.99621  1.0000
  C   C87       1.0  0.13801  0.32781  0.63411  1.0000
  C   C88       1.0  0.18560  0.37271  0.77219  1.0000
  H   H65       1.0  0.23854  0.05313  0.93009  1.0000
  C   C89       1.0  0.17779  0.32029  0.82152  1.0000
  H   H66       1.0  0.21575  0.26571  0.67998  1.0000
  C   C90       1.0  0.12752  0.22158  0.59692  1.0000
  H   H67       1.0  0.09885  0.21844  0.66690  1.0000
  S   S19       1.0  0.19430  0.46572  0.53494  1.0000
  C   C91       1.0  0.21488  0.15577  0.54499  1.0000
  C   C92       1.0  0.19935  0.35724  0.80681  1.0000
  C   C93       1.0  0.15727  0.24293  0.67889  1.0000
  C   C94       1.0  0.25574  0.09471  0.87179  1.0000
  P   P3        1.0  0.13069  0.37144  0.71028  1.0000
  H   H68       1.0  0.31558  0.44251  0.73658  1.0000
  H   H69       1.0  0.16309  0.22846  0.53352  1.0000
  P   P4        1.0  0.23794  0.26240  0.57401  1.0000
  H   H70       1.0  0.31576  0.15153  0.76323  1.0000
  C   C95       1.0  0.21756  0.12263  0.86131  1.0000
  C   C96       1.0  0.13241  0.35770  0.64518  1.0000
  H   H71       1.0  0.21260  0.14256  0.84171  1.0000
  C   C97       1.0  0.18978  0.44087  0.68560  1.0000
  C   C98       1.0  0.11860  0.06037  0.94426  1.0000
  H   H72       1.0  0.20311  0.40126  0.76095  1.0000
  H   H73       1.0  0.22699  0.37382  0.82189  1.0000
  S   S20       1.0  0.30748  0.27259  0.98835  1.0000
  H   H74       1.0  0.10107  0.29674  0.75176  1.0000
  C   C99       1.0  0.12857  0.31391  0.76683  1.0000
  C   C100      1.0  0.14249  0.29857  0.80136  1.0000
  C   C101      1.0  0.21104  0.18637  0.55748  1.0000
  P   P5        1.0  0.15358  0.10336  0.91637  1.0000
  C   C102      1.0  0.15703  0.42142  0.71380  1.0000
  H   H75       1.0  0.18422  0.18149  0.56903  1.0000
  C   C103      1.0  0.06226  0.00068  0.93751  1.0000
  C   C104      1.0  0.05839  0.35605  0.69333  1.0000
  C   C105      1.0  0.30474  0.19055  0.92945  1.0000
  H   H76       1.0  0.02757  0.32839  0.83369  1.0000
  H   H77       1.0  0.28641  0.09223  0.71554  1.0000
  C   C106      1.0  0.12366  0.10132  0.76730  1.0000
  C   C107      1.0  0.13753  0.33888  0.54354  1.0000
  H   H78       1.0  0.10273  0.20905  0.57392  1.0000
  H   H79       1.0  0.00349  0.34667  0.68123  1.0000
  C   C108      1.0  0.27463  0.28980  0.61840  1.0000
  C   C109      1.0  0.20964  0.47959  0.68659  1.0000
  H   H80       1.0  0.09135  0.34796  0.80836  1.0000
  H   H81       1.0  0.11126  0.13907  0.72815  1.0000
  C   C110      1.0  0.03608  0.33583  0.79437  1.0000
  H   H82       1.0  0.14149  0.31224  0.66421  1.0000
  H   H83       1.0  0.18124  0.26880  0.99001  1.0000
  H   H84       1.0  0.14609  0.29630  0.57514  1.0000
  H   H85       1.0  0.13885  0.06944  0.81486  1.0000
  H   H86       1.0  0.29550  0.45938  0.65684  1.0000
  C   C111      1.0  0.09048  0.22854  0.95956  1.0000
  C   C112      1.0  0.23000  0.31626  0.52253  1.0000
  C   C113      1.0  0.07220  0.34661  0.77966  1.0000
  C   C114      1.0  0.01116  0.33530  0.75872  1.0000
  C   C115      1.0  0.19372  0.09995  0.89990  1.0000
  H   H87       1.0  0.06660  0.36458  0.65438  1.0000
  H   H88       1.0  0.27061  0.24197  0.65702  1.0000
  C   C116      1.0  0.23255  0.07246  0.91085  1.0000
  H   H89       1.0  0.11987  0.17760  0.80534  1.0000
  H   H90       1.0  0.18388  0.05733  0.95493  1.0000
  C   C117      1.0  0.08902  0.03373  0.91512  1.0000
  C   C118      1.0  0.08344  0.35592  0.72865  1.0000
  C   C119      1.0  0.12956  0.37807  0.60474  1.0000
  H   H91       1.0  0.13739  0.16226  0.88647  1.0000
  C   C120      1.0  0.16475  0.48008  0.74448  1.0000
  H   H92       1.0  0.31738  0.27866  0.72149  1.0000
  C   C121      1.0  0.31071  0.29269  0.69241  1.0000
  C   C122      1.0  0.28424  0.27196  0.65554  1.0000
  C   C123      1.0  0.11849  0.13188  0.76422  1.0000
  C   C124      1.0  0.14480  0.44130  0.74367  1.0000
  C   C125      1.0  0.20157  0.07496  0.92486  1.0000
  H   H93       1.0  0.28780  0.20338  0.93066  1.0000
  H   H94       1.0  0.21914  0.32027  0.55797  1.0000
  H   H95       1.0  0.08617  0.03829  0.87533  1.0000
  C   C126      1.0  0.14067  0.31859  0.58346  1.0000
  C   C127      1.0  0.29231  0.32870  0.61845  1.0000
  H   H96       1.0  0.13014  0.38476  0.52348  1.0000
  C   C128      1.0  0.13308  0.14454  0.85399  1.0000
  C   C129      1.0  0.13812  0.11377  0.85760  1.0000
  C   C130      1.0  0.13380  0.09251  0.81360  1.0000
  C   C131      1.0  0.12328  0.15351  0.80755  1.0000
  H   H97       1.0  0.19132  0.12795  0.54712  1.0000
  H   H98       1.0  0.14030  0.33222  0.50433  1.0000
  C   C132      1.0  0.16543  0.13922  0.96391  1.0000
  H   H99       1.0  0.28527  0.34344  0.59110  1.0000
  C   C133      1.0  0.24109  0.28958  0.51869  1.0000
  C   C134      1.0  0.02245  0.34584  0.70840  1.0000
  H   H100      1.0  0.32375  0.20919  0.85366  1.0000
  C   C135      1.0  0.30997  0.09941  0.73979  1.0000
  H   H101      1.0  0.11976  0.42709  0.76593  1.0000
  H   H102      1.0  0.15498  0.49546  0.76673  1.0000
  C   C136      1.0  0.15212  0.25907  0.99412  1.0000
  C   C137      1.0  0.32379  0.07517  0.74369  1.0000
  H   H103      1.0  0.22360  0.15667  0.96677  1.0000
  Fe  Fe11      1.0  0.27474  0.00325  0.56764  1.0000
  C   C138      1.0  0.28010  0.19626  0.53073  1.0000
  H   H104      1.0  0.30063  0.25436  0.54287  1.0000
  H   H105      1.0  0.30690  0.19987  0.52117  1.0000
  H   H106      1.0  0.00267  0.33503  0.50858  1.0000
  H   H107      1.0  0.01562  0.31173  0.58811  1.0000
  H   H108      1.0  0.31118  0.04939  0.72206  1.0000
  C   C139      1.0  0.24935  0.16067  0.53172  1.0000
  C   C140      1.0  0.30643  0.17136  0.97185  1.0000
  H   H109      1.0  0.10958  0.12895  0.97144  1.0000
  C   C141      1.0  0.13788  0.14550  0.98405  1.0000
  H   H110      1.0  0.23450  0.49443  0.66400  1.0000
  C   C142      1.0  0.16214  0.97082  0.23132  1.0000
  S   S21       1.0  0.23785  0.54223  0.47115  1.0000
  C   C143      1.0  0.01035  0.72379  0.42064  1.0000
  C   C144      1.0  0.17975  0.62790  0.42279  1.0000
  S   S22       1.0  0.19788  0.94062  0.41262  1.0000
  C   C145      1.0  0.18695  0.83479  0.01741  1.0000
  Fe  Fe12      1.0  0.04810  0.75340  0.15394  1.0000
  S   S23       1.0  0.04980  0.80647  0.13278  1.0000
  S   S24       1.0  0.09850  0.74732  0.13471  1.0000
  Fe  Fe13      1.0  0.03341  0.80761  0.21476  1.0000
  S   S25       1.0  0.05593  0.85953  0.26640  1.0000
  S   S26       1.0  0.03398  0.75594  0.23719  1.0000
  H   H111      1.0  0.21597  0.57999  0.05670  1.0000
  C   C146      1.0  0.15122  0.74742  0.07092  1.0000
  C   C147      1.0  0.11524  0.74192  0.07430  1.0000
  Fe  Fe14      1.0  0.28990  0.54025  0.48205  1.0000
  H   H112      1.0  0.16846  0.75607  0.10451  1.0000
  C   C148      1.0  0.09482  0.88069  0.30830  1.0000
  C   C149      1.0  0.12146  0.86981  0.30964  1.0000
  C   C150      1.0  0.15264  0.88856  0.34161  1.0000
  C   C151      1.0  0.15778  0.91842  0.37294  1.0000
  C   C152      1.0  0.13091  0.92902  0.37211  1.0000
  C   C153      1.0  0.09971  0.91028  0.34006  1.0000
  H   H113      1.0  0.11831  0.84724  0.28552  1.0000
  H   H114      1.0  0.17306  0.87993  0.34192  1.0000
  H   H115      1.0  0.13417  0.95170  0.39606  1.0000
  H   H116      1.0  0.07937  0.91902  0.33951  1.0000
  H   H117      1.0  0.26036  0.71746  0.00024  1.0000
  H   H118      1.0  0.16799  0.63042  0.38737  1.0000
  H   H119      1.0  0.25714  0.82326  0.30128  1.0000
  C   C154      1.0  0.27191  0.81182  0.28114  1.0000
  H   H120      1.0  0.27498  0.52160  0.11159  1.0000
  C   C155      1.0  0.21782  0.65003  0.15639  1.0000
  C   C156      1.0  0.20302  0.64770  0.10796  1.0000
  H   H121      1.0  0.22267  0.54225  0.36287  1.0000
  C   C157      1.0  0.21626  0.59910  0.08507  1.0000
  C   C158      1.0  0.23030  0.60058  0.13415  1.0000
  C   C159      1.0  0.23170  0.62681  0.16937  1.0000
  P   P6        1.0  0.24962  0.57167  0.15048  1.0000
  C   C160      1.0  0.22672  0.52797  0.11628  1.0000
  H   H122      1.0  0.04383  0.96842  0.00641  1.0000
  Fe  Fe15      1.0  0.22658  0.98778  0.47212  1.0000
  C   C161      1.0  0.18082  0.58992  0.49135  1.0000
  H   H123      1.0  0.01162  0.64475  0.44968  1.0000
  C   C162      1.0  0.20243  0.62238  0.07222  1.0000
  H   H124      1.0  0.15157  0.85346  0.04918  1.0000
  H   H125      1.0  0.19235  0.66580  0.09786  1.0000
  H   H126      1.0  0.24350  0.62942  0.20688  1.0000
  C   C163      1.0  0.06954  0.81766  0.44980  1.0000
  H   H127      1.0  0.19243  0.74518  0.02305  1.0000
  C   C164      1.0  0.24180  0.56175  0.21784  1.0000
  C   C165      1.0  0.26947  0.58258  0.25371  1.0000
  H   H128      1.0  0.25117  0.75411  0.47356  1.0000
  C   C166      1.0  0.25247  0.77905  0.25302  1.0000
  H   H129      1.0  0.06538  0.72573  0.03254  1.0000
  C   C167      1.0  0.20699  0.53438  0.23515  1.0000
  H   H130      1.0  0.21858  0.66993  0.18384  1.0000
  C   C168      1.0  0.20848  0.65941  0.44601  1.0000
  H   H131      1.0  0.22263  0.76515  0.25133  1.0000
  H   H132      1.0  0.12460  0.86484  0.45079  1.0000
  C   C169      1.0  0.31442  0.71397  0.27194  1.0000
  H   H133      1.0  0.14393  0.56864  0.42735  1.0000
  H   H134      1.0  0.29921  0.51892  0.25986  1.0000
  C   C170      1.0  0.26274  0.57534  0.30585  1.0000
  C   C171      1.0  0.31017  0.78293  0.22731  1.0000
  H   H135      1.0  0.28330  0.67986  0.04199  1.0000
  C   C172      1.0  0.30581  0.71641  0.10687  1.0000
  C   C173      1.0  0.01570  0.66854  0.42796  1.0000
  C   C174      1.0  0.16497  0.74139  0.02467  1.0000
  H   H136      1.0  0.31552  0.69948  0.12423  1.0000
  C   C175      1.0  0.16430  0.96473  0.17933  1.0000
  H   H137      1.0  0.28436  0.59081  0.33348  1.0000
  H   H138      1.0  0.29619  0.60452  0.24169  1.0000
  H   H139      1.0  0.99657  0.85896  0.35603  1.0000
  C   C176      1.0  0.27448  0.72622  0.03645  1.0000
  C   C177      1.0  0.16607  0.59313  0.44532  1.0000
  C   C178      1.0  0.31164  0.62365  0.09711  1.0000
  C   C179      1.0  0.31770  0.73150  0.44993  1.0000
  H   H140      1.0  0.27179  0.77641  0.03922  1.0000
  C   C180      1.0  0.02603  0.72986  0.37178  1.0000
  C   C181      1.0  0.22397  0.65625  0.49181  1.0000
  H   H141      1.0  0.30298  0.67816  0.33683  1.0000
  C   C182      1.0  0.27149  0.76459  0.22629  1.0000
  H   H142      1.0  0.21846  0.68600  0.42801  1.0000
  C   C183      1.0  0.03051  0.67429  0.37878  1.0000
  H   H143      1.0  0.19753  0.98404  0.11142  1.0000
  C   C184      1.0  0.22803  0.54804  0.32256  1.0000
  H   H144      1.0  0.25602  0.73940  0.20422  1.0000
  C   C185      1.0  0.28076  0.75939  0.05865  1.0000
  C   C186      1.0  0.28727  0.70494  0.06025  1.0000
  C   C187      1.0  0.19547  0.98938  0.15143  1.0000
  C   C188      1.0  0.09320  0.73047  0.03054  1.0000
  H   H145      1.0  0.03783  0.65494  0.36223  1.0000
  C   C189      1.0  0.18908  0.51129  0.10426  1.0000
  H   H146      1.0  0.04774  0.70974  0.31291  1.0000
  C   C190      1.0  0.31039  0.83012  0.28264  1.0000
  C   C191      1.0  0.20015  0.52775  0.28729  1.0000
  C   C192      1.0  0.03597  0.70511  0.35090  1.0000
  H   H147      1.0  0.99508  0.68886  0.48751  1.0000
  H   H148      1.0  0.19832  0.83377  0.05399  1.0000
  C   C193      1.0  0.32494  0.78123  0.39495  1.0000
  H   H149      1.0  0.03069  0.75379  0.34989  1.0000
  C   C194      1.0  0.27518  0.75482  0.45667  1.0000
  C   C195      1.0  0.29812  0.59604  0.13464  1.0000
  C   C196      1.0  0.99670  0.81446  0.39731  1.0000
  H   H150      1.0  0.17328  0.50650  0.30057  1.0000
  H   H151      1.0  0.01532  0.83300  0.42605  1.0000
  H   H152      1.0  0.29353  0.63079  0.07729  1.0000
  C   C197      1.0  0.24616  0.50986  0.10228  1.0000
  H   H153      1.0  0.30400  0.79692  0.12170  1.0000
  H   H154      1.0  0.18489  0.51823  0.20874  1.0000
  C   C198      1.0  0.29418  0.78016  0.41771  1.0000
  C   C199      1.0  0.29924  0.77098  0.10523  1.0000
  C   C200      1.0  0.31174  0.74947  0.12998  1.0000
  H   H155      1.0  0.27853  0.98351  0.37710  1.0000
  H   H156      1.0  0.19128  0.62097  0.03449  1.0000
  P   P7        1.0  0.99854  0.75637  0.44787  1.0000
  H   H157      1.0  0.17315  0.52415  0.11555  1.0000
  H   H158      1.0  0.06699  0.81900  0.40882  1.0000
  H   H159      1.0  0.31291  0.56570  0.18731  1.0000
  H   H160      1.0  0.14209  0.94039  0.16111  1.0000
  H   H161      1.0  0.28514  0.79911  0.40535  1.0000
  H   H162      1.0  0.13840  0.95110  0.25315  1.0000
  H   H163      1.0  0.29759  0.72493  0.28651  1.0000
  C   C201      1.0  0.00603  0.69343  0.44911  1.0000
  C   C202      1.0  0.04042  0.79041  0.47895  1.0000
  C   C203      1.0  0.28694  0.73043  0.47338  1.0000
  C   C204      1.0  0.16054  0.84581  0.01466  1.0000
  C   C205      1.0  0.10240  0.84357  0.47333  1.0000
  H   H164      1.0  0.28550  0.64323  0.49557  1.0000
  C   C206      1.0  0.32263  0.58723  0.15879  1.0000
  H   H165      1.0  0.32544  0.85576  0.30405  1.0000
  C   C207      1.0  0.31749  0.68750  0.30082  1.0000
  H   H166      1.0  0.24191  0.92625  0.76525  1.0000
  C   C208      1.0  0.13077  0.74227  0.75747  1.0000
  H   H167      1.0  0.08867  0.71316  0.95184  1.0000
  Fe  Fe16      1.0  0.22648  0.52674  0.55389  1.0000
  S   S27       1.0  0.20048  0.55232  0.60490  1.0000
  S   S28       1.0  0.27980  0.52749  0.56687  1.0000
  Fe  Fe17      1.0  0.25253  0.79452  0.79402  1.0000
  S   S29       1.0  0.21084  0.73330  0.79727  1.0000
  S   S30       1.0  0.23571  0.82324  0.73361  1.0000
  Fe  Fe18      1.0  0.29646  0.78612  0.88279  1.0000
  S   S31       1.0  0.25660  0.72535  0.89143  1.0000
  C   C209      1.0  0.20945  0.62135  0.51463  1.0000
  Fe  Fe19      1.0  0.25866  0.72344  0.80544  1.0000
  S   S32       1.0  0.27558  0.68399  0.76849  1.0000
  Fe  Fe20      1.0  0.21253  0.74103  0.88286  1.0000
  S   S33       1.0  0.15664  0.71616  0.92390  1.0000
  S   S34       1.0  0.30047  0.78413  0.79708  1.0000
  S   S35       1.0  0.25226  0.80222  0.87925  1.0000
  C   C210      1.0  0.03394  0.82671  0.84625  1.0000
  C   C211      1.0  0.12412  0.73587  0.80970  1.0000
  C   C212      1.0  0.06605  0.79844  0.91213  1.0000
  C   C213      1.0  0.21750  0.74200  0.64892  1.0000
  H   H168      1.0  0.26356  0.79554  0.63124  1.0000
  C   C214      1.0  0.22255  0.59002  0.64863  1.0000
  C   C215      1.0  0.25813  0.60227  0.66691  1.0000
  C   C216      1.0  0.27369  0.63091  0.70369  1.0000
  C   C217      1.0  0.25437  0.64829  0.72175  1.0000
  C   C218      1.0  0.21899  0.63639  0.70296  1.0000
  C   C219      1.0  0.20309  0.60720  0.66697  1.0000
  H   H169      1.0  0.27342  0.58931  0.65334  1.0000
  H   H170      1.0  0.30103  0.63987  0.71804  1.0000
  H   H171      1.0  0.20369  0.64929  0.71672  1.0000
  H   H172      1.0  0.17545  0.59778  0.65337  1.0000
  C   C220      1.0  0.25410  0.86812  0.70581  1.0000
  C   C221      1.0  0.23283  0.87392  0.66949  1.0000
  C   C222      1.0  0.24606  0.90874  0.64591  1.0000
  C   C223      1.0  0.28089  0.93841  0.65835  1.0000
  C   C224      1.0  0.21775  0.92096  0.78717  1.0000
  C   C225      1.0  0.28881  0.89783  0.71856  1.0000
  H   H173      1.0  0.12014  0.75805  0.88192  1.0000
  H   H174      1.0  0.22937  0.91262  0.61800  1.0000
  H   H175      1.0  0.17124  0.96395  0.82731  1.0000
  H   H176      1.0  0.30219  0.59092  0.98851  1.0000
  H   H177      1.0  0.19094  0.81546  0.89225  1.0000
  C   C226      1.0  0.07034  0.83499  0.83819  1.0000
  C   C227      1.0  0.08714  0.82215  0.87231  1.0000
  P   P8        1.0  0.13427  0.83313  0.86269  1.0000
  C   C228      1.0  0.16344  0.87860  0.83597  1.0000
  C   C229      1.0  0.15515  0.83421  0.92322  1.0000
  H   H178      1.0  0.28719  0.77182  0.56271  1.0000
  C   C230      1.0  0.26203  0.75272  0.58237  1.0000
  H   H179      1.0  0.21850  0.81563  0.97524  1.0000
  C   C231      1.0  0.30552  0.61260  0.96271  1.0000
  C   C232      1.0  0.18235  0.82409  0.92614  1.0000
  C   C233      1.0  0.19549  0.88612  0.80892  1.0000
  C   C234      1.0  0.19706  0.49919  0.71582  1.0000
  H   H180      1.0  0.13242  0.86225  0.54379  1.0000
  C   C235      1.0  0.07854  0.81425  0.55483  1.0000
  C   C236      1.0  0.15543  0.90723  0.84377  1.0000
  C   C237      1.0  0.13231  0.79744  0.82116  1.0000
  C   C238      1.0  0.13718  0.77579  0.73672  1.0000
  C   C239      1.0  0.13744  0.80311  0.76828  1.0000
  H   H181      1.0  0.31571  0.68815  0.86770  1.0000
  H   H182      1.0  0.08537  0.85152  0.80554  1.0000
  C   C240      1.0  0.14515  0.84619  0.96761  1.0000
  H   H183      1.0  0.25193  0.60569  0.97868  1.0000
  C   C241      1.0  0.10684  0.84204  0.52583  1.0000
  S   S36       1.0  0.29913  0.98313  0.62995  1.0000
  H   H184      1.0  0.03943  0.98026  0.91491  1.0000
  H   H185      1.0  0.20323  0.86501  0.80407  1.0000
  C   C242      1.0  0.31364  0.66759  0.89463  1.0000
  C   C243      1.0  0.24901  0.76626  0.62143  1.0000
  C   C244      1.0  0.30204  0.93268  0.69498  1.0000
  H   H186      1.0  0.13193  0.90266  0.86656  1.0000
  C   C245      1.0  0.24322  0.71473  0.57006  1.0000
  H   H187      1.0  0.14250  0.82885  0.75136  1.0000
  H   H188      1.0  0.08235  0.81274  0.59540  1.0000
  H   H189      1.0  0.02126  0.83725  0.82044  1.0000
  C   C246      1.0  0.12476  0.76328  0.84143  1.0000
  H   H190      1.0  0.25922  0.65441  0.91814  1.0000
  C   C247      1.0  0.28134  0.64837  0.92330  1.0000
  H   H191      1.0  0.11944  0.71002  0.82602  1.0000
  H   H192      1.0  0.14305  0.78108  0.69640  1.0000
  P   P9        1.0  0.26132  0.69658  0.52221  1.0000
  C   C248      1.0  0.32200  0.64687  0.55502  1.0000
  H   H193      1.0  0.20592  0.85125  0.65934  1.0000
  H   H194      1.0  0.30554  0.89395  0.74639  1.0000
  H   H195      1.0  0.02439  0.76641  0.55430  1.0000
  S   S37       1.0  0.21431  0.98251  0.55687  1.0000
  H   H196      1.0  0.12500  0.85518  0.96620  1.0000
  H   H197      1.0  0.07760  0.78636  0.93734  1.0000
  C   C249      1.0  0.20878  0.94885  0.79330  1.0000
  C   C250      1.0  0.17786  0.94212  0.82205  1.0000
  H   H198      1.0  0.01410  0.77328  0.95228  1.0000
  H   H199      1.0  0.20783  0.75256  0.67962  1.0000
  C   C251      1.0  0.02982  0.79048  0.92033  1.0000
  H   H200      1.0  0.13146  0.72148  0.73326  1.0000
  H   H201      1.0  0.22594  0.97568  0.77582  1.0000
  C   C252      1.0  0.27727  0.62092  0.95733  1.0000
  C   C253      1.0  0.10660  0.72351  0.98467  1.0000
  H   H202      1.0  0.17512  0.68528  0.65975  1.0000
  C   C254      1.0  0.19900  0.70415  0.63751  1.0000
  H   H203      1.0  0.21210  0.52923  0.71567  1.0000
  H   H204      1.0  0.22042  0.61838  0.55042  1.0000
  C   C255      1.0  0.29156  0.68352  0.55329  1.0000
  C   C256      1.0  0.21178  0.69052  0.59832  1.0000
  C   C257      1.0  0.19821  0.82443  0.97307  1.0000
  C   C258      1.0  0.01388  0.80490  0.88775  1.0000
  H   H205      1.0  0.19754  0.66098  0.59111  1.0000
  C   C259      1.0  0.04556  0.78829  0.53146  1.0000
  C   C260      1.0  0.29839  0.65670  0.53118  1.0000
  C   C261      1.0  0.14260  0.72906  0.98123  1.0000
  C   C262      1.0  0.30879  0.70029  0.59957  1.0000
  H   H206      1.0  0.30368  0.72058  0.61810  1.0000
  H   H207      1.0  0.31593  0.57164  0.74917  1.0000
  H   H208      1.0  0.17017  0.56303  0.50918  1.0000
  C   C263      1.0  0.06470  0.99400  0.98910  1.0000
  Fe  Fe21      1.0  0.47999  0.22896  0.20601  1.0000
  S   S38       1.0  0.46914  0.27578  0.18918  1.0000
  S   S39       1.0  0.44324  0.17440  0.24910  1.0000
  Fe  Fe22      1.0  0.48508  0.27184  0.10805  1.0000
  S   S40       1.0  0.45862  0.27394  0.03233  1.0000
  S   S41       1.0  0.49260  0.22277  0.12360  1.0000
  C   C264      1.0  0.53393  0.19251  0.28911  1.0000
  H   H209      1.0  0.63987  0.45638  0.37549  1.0000
  C   C265      1.0  0.41633  0.27333  0.02126  1.0000
  H   H210      1.0  0.49497  0.25301  0.32561  1.0000
  H   H211      1.0  0.52309  0.17960  0.43941  1.0000
  C   C266      1.0  0.36890  0.13446  0.39321  1.0000
  C   C267      1.0  0.37380  0.10968  0.36248  1.0000
  C   C268      1.0  0.39687  0.12256  0.31900  1.0000
  C   C269      1.0  0.41501  0.16024  0.30509  1.0000
  C   C270      1.0  0.40979  0.18497  0.33550  1.0000
  C   C271      1.0  0.38700  0.17214  0.37924  1.0000
  H   H212      1.0  0.40065  0.10313  0.29587  1.0000
  H   H213      1.0  0.42321  0.21395  0.32534  1.0000
  H   H214      1.0  0.38341  0.19164  0.40251  1.0000
  Fe  Fe23      1.0  0.55182  0.26438  0.14074  1.0000
  S   S42       1.0  0.54552  0.31321  0.12038  1.0000
  S   S43       1.0  0.60409  0.26160  0.12259  1.0000
  Fe  Fe24      1.0  0.53052  0.31344  0.20290  1.0000
  S   S44       1.0  0.55473  0.36793  0.24799  1.0000
  S   S45       1.0  0.54004  0.26700  0.22431  1.0000
  C   C272      1.0  0.60080  0.25365  0.01677  1.0000
  C   C273      1.0  0.50038  0.33463  0.35780  1.0000
  C   C274      1.0  0.62124  0.25918  0.06126  1.0000
  C   C275      1.0  0.49085  0.30212  0.33069  1.0000
  C   C276      1.0  0.59183  0.38406  0.29224  1.0000
  H   H215      1.0  0.63785  0.37334  0.16645  1.0000
  H   H216      1.0  0.33789  0.12331  0.26589  1.0000
  H   H217      1.0  0.52808  0.36769  0.42375  1.0000
  H   H218      1.0  0.39765  0.26403  0.09914  1.0000
  C   C277      1.0  0.61149  0.36547  0.29961  1.0000
  H   H219      1.0  0.62644  0.42352  0.19429  1.0000
  H   H220      1.0  0.49575  0.19146  0.34448  1.0000
  H   H221      1.0  0.58753  0.43169  0.31426  1.0000
  H   H222      1.0  0.60380  0.34019  0.27864  1.0000
  C   C278      1.0  0.39132  0.26780  0.06046  1.0000
  C   C279      1.0  0.49972  0.21558  0.44518  1.0000
  C   C280      1.0  0.58744  0.25567  0.34002  1.0000
  H   H223      1.0  0.36024  0.08068  0.37261  1.0000
  H   H224      1.0  0.35716  0.02979  0.25496  1.0000
  H   H225      1.0  0.65699  0.36108  0.46922  1.0000
  C   C281      1.0  0.60561  0.31414  0.44523  1.0000
  H   H226      1.0  0.37662  0.17743  0.21226  1.0000
  C   C282      1.0  0.52435  0.20555  0.33248  1.0000
  C   C283      1.0  0.46915  0.21815  0.46184  1.0000
  H   H227      1.0  0.57712  0.20187  0.23605  1.0000
  H   H228      1.0  0.57369  0.25071  0.01927  1.0000
  H   H229      1.0  0.60846  0.28060  0.35821  1.0000
  C   C284      1.0  0.65622  0.26226  0.05725  1.0000
  H   H230      1.0  0.51279  0.16884  0.26837  1.0000
  C   C285      1.0  0.57014  0.21108  0.27096  1.0000
  H   H231      1.0  0.49266  0.35407  0.34325  1.0000
  H   H232      1.0  0.60475  0.32764  0.41052  1.0000
  H   H233      1.0  0.54651  0.32409  0.45610  1.0000
  C   C286      1.0  0.50242  0.27785  0.34760  1.0000
  H   H234      1.0  0.41455  0.18893  0.49454  1.0000
  H   H235      1.0  0.47529  0.29631  0.29574  1.0000
  H   H236      1.0  0.46818  0.24342  0.45705  1.0000
  H   H237      1.0  0.62460  0.25777  0.28123  1.0000
  C   C287      1.0  0.59685  0.24268  0.29637  1.0000
  C   C288      1.0  0.60250  0.41706  0.31970  1.0000
  C   C289      1.0  0.65429  0.42803  0.19492  1.0000
  P   P10       1.0  0.53825  0.25430  0.41412  1.0000
  C   C290      1.0  0.52345  0.28583  0.39225  1.0000
  C   C291      1.0  0.35815  0.26750  0.04966  1.0000
  C   C292      1.0  0.43873  0.18742  0.48347  1.0000
  C   C293      1.0  0.55110  0.23712  0.35864  1.0000
  C   C294      1.0  0.63527  0.33325  0.47855  1.0000
  C   C295      1.0  0.52055  0.34238  0.40289  1.0000
  C   C296      1.0  0.57705  0.27825  0.45699  1.0000
  C   C297      1.0  0.53153  0.31780  0.42057  1.0000
  C   C298      1.0  0.63229  0.43124  0.35431  1.0000
  C   C299      1.0  0.43858  0.15401  0.48874  1.0000
  C   C300      1.0  0.65199  0.41267  0.36152  1.0000
  H   H238      1.0  0.34980  0.19155  0.13742  1.0000
  C   C301      1.0  0.64151  0.37986  0.33372  1.0000
  C   C302      1.0  0.49979  0.18218  0.45192  1.0000
  S   S46       1.0  0.34149  0.12033  0.45002  1.0000
  H   H239      1.0  0.33922  0.26352  0.08037  1.0000
  C   C303      1.0  0.34782  0.15941  0.20259  1.0000
  H   H240      1.0  0.65661  0.36533  0.33875  1.0000
  C   C304      1.0  0.33350  0.02737  0.27531  1.0000
  C   C305      1.0  0.33268  0.16734  0.16047  1.0000
  H   H241      1.0  0.46888  0.12542  0.47716  1.0000
  H   H242      1.0  0.33007  0.14037  0.00346  1.0000
  C   C306      1.0  0.34950  0.27269  0.99964  1.0000
  C   C307      1.0  0.46922  0.15147  0.47337  1.0000
  C   C308      1.0  0.32586  0.12838  0.23262  1.0000
  H   H243      1.0  0.32581  0.06228  0.22321  1.0000
  P   P11       1.0  0.37915  0.18660  0.83122  1.0000
  C   C309      1.0  0.53596  0.32372  0.86642  1.0000
  H   H244      1.0  0.40036  0.31301  0.80550  1.0000
  C   C310      1.0  0.40759  0.27837  0.97123  1.0000
  H   H245      1.0  0.39240  0.30638  0.71154  1.0000
  C   C311      1.0  0.47286  0.22450  0.91733  1.0000
  C   C312      1.0  0.34977  0.15883  0.92715  1.0000
  C   C313      1.0  0.65773  0.03845  0.74065  1.0000
  H   H246      1.0  0.59912  0.32084  0.71771  1.0000
  H   H247      1.0  0.52479  0.22937  0.89627  1.0000
  H   H248      1.0  0.51198  0.31095  0.94188  1.0000
  C   C314      1.0  0.64704  0.29031  0.74909  1.0000
  C   C315      1.0  0.60864  0.28093  0.53590  1.0000
  H   H249      1.0  0.39582  0.26145  0.85679  1.0000
  C   C316      1.0  0.39063  0.28379  0.73398  1.0000
  C   C317      1.0  0.39228  0.25819  0.81589  1.0000
  H   H250      1.0  0.61783  0.19811  0.74172  1.0000
  C   C318      1.0  0.56357  0.31134  0.93896  1.0000
  C   C319      1.0  0.61519  0.25120  0.96906  1.0000
  C   C320      1.0  0.43724  0.21440  0.90151  1.0000
  H   H251      1.0  0.56261  0.30432  0.97895  1.0000
  H   H252      1.0  0.48169  0.23516  0.95568  1.0000
  H   H253      1.0  0.60987  0.26810  0.57108  1.0000
  C   C321      1.0  0.38089  0.22145  0.73910  1.0000
  C   C322      1.0  0.35775  0.14290  0.79716  1.0000
  H   H254      1.0  0.39359  0.12393  0.82725  1.0000
  C   C323      1.0  0.45006  0.19773  0.81832  1.0000
  H   H255      1.0  0.42689  0.28306  0.94077  1.0000
  H   H256      1.0  0.37603  0.19644  0.71964  1.0000
  C   C324      1.0  0.49715  0.22133  0.88377  1.0000
  C   C325      1.0  0.64312  0.25702  0.73039  1.0000
  H   H257      1.0  0.63690  0.04073  0.71924  1.0000
  H   H258      1.0  0.61113  0.36141  0.64319  1.0000
  C   C326      1.0  0.42511  0.19970  0.85239  1.0000
  H   H259      1.0  0.33124  0.37920  0.65659  1.0000
  C   C327      1.0  0.59483  0.32601  0.85673  1.0000
  C   C328      1.0  0.62716  0.29044  0.79237  1.0000
  C   C329      1.0  0.60328  0.25678  0.81641  1.0000
  C   C330      1.0  0.59974  0.22358  0.79796  1.0000
  C   C331      1.0  0.39512  0.28754  0.78685  1.0000
  C   C332      1.0  0.61973  0.22370  0.75507  1.0000
  C   C333      1.0  0.53501  0.31509  0.91804  1.0000
  C   C334      1.0  0.56576  0.32922  0.83580  1.0000
  C   C335      1.0  0.38410  0.22455  0.79245  1.0000
  H   H260      1.0  0.36830  0.28245  0.92198  1.0000
  C   C336      1.0  0.59329  0.31665  0.90846  1.0000
  C   C337      1.0  0.38373  0.25085  0.71010  1.0000
  C   C338      1.0  0.61982  0.34991  0.72044  1.0000
  H   H261      1.0  0.41949  0.21826  0.92794  1.0000
  H   H262      1.0  0.58826  0.25617  0.85029  1.0000
  C   C339      1.0  0.37444  0.27807  0.96044  1.0000
  P   P12       1.0  0.63395  0.33378  0.81808  1.0000
  H   H263      1.0  0.44175  0.18789  0.77963  1.0000
  H   H264      1.0  0.34701  0.34728  0.72268  1.0000
  C   C340      1.0  0.48589  0.20830  0.83411  1.0000
  H   H265      1.0  0.51356  0.32624  0.85026  1.0000
  C   C341      1.0  0.62644  0.37276  0.67819  1.0000
  C   C342      1.0  0.64056  0.36428  0.76528  1.0000
  H   H266      1.0  0.58248  0.19791  0.81801  1.0000
  H   H267      1.0  0.36722  0.14650  0.92690  1.0000
  H   H268      1.0  0.59879  0.24619  0.93522  1.0000
  H   H269      1.0  0.38020  0.24792  0.66911  1.0000
  H   H270      1.0  0.56603  0.33610  0.79605  1.0000
  H   H271      1.0  0.50492  0.20635  0.80788  1.0000
  H   H272      1.0  0.61514  0.31357  0.92540  1.0000
  C   C343      1.0  0.65035  0.25481  0.96487  1.0000
  C   C344      1.0  0.37066  0.11778  0.80241  1.0000
  C   C345      1.0  0.57883  0.26176  0.50265  1.0000
  C   C346      1.0  0.34945  0.17952  0.88525  1.0000
  C   C347      1.0  0.63681  0.31668  0.52389  1.0000
  C   C348      1.0  0.32861  0.15511  0.97049  1.0000
  C   C349      1.0  0.35390  0.08420  0.77537  1.0000
  H   H273      1.0  0.36429  0.06513  0.77867  1.0000
  C   C350      1.0  0.65349  0.41018  0.68056  1.0000
  C   C351      1.0  0.32764  0.33130  0.69279  1.0000
  C   C352      1.0  0.32673  0.13300  0.76666  1.0000
  H   H274      1.0  0.55725  0.23425  0.51292  1.0000
  H   H275      1.0  0.41433  0.12994  0.50386  1.0000
  C   C353      1.0  0.32586  0.19438  0.88609  1.0000
  C   C354      1.0  0.36447  0.60876  0.39436  1.0000
  C   C355      1.0  0.35544  0.58590  0.35119  1.0000
  Fe  Fe25      1.0  0.46213  0.75299  0.12322  1.0000
  C   C356      1.0  0.35597  0.71219  0.20876  1.0000
  H   H276      1.0  0.63444  0.94499  0.36784  1.0000
  C   C357      1.0  0.35877  0.68561  0.23760  1.0000
  H   H277      1.0  0.35926  0.66370  0.05552  1.0000
  H   H278      1.0  0.39990  0.78815  0.25471  1.0000
  H   H279      1.0  0.37187  0.72216  0.17380  1.0000
  C   C358      1.0  0.64861  0.69845  0.19825  1.0000
  C   C359      1.0  0.37334  0.63422  0.10960  1.0000
  C   C360      1.0  0.61497  0.75800  0.32333  1.0000
  C   C361      1.0  0.32951  0.81577  0.25591  1.0000
  C   C362      1.0  0.33397  0.72681  0.22585  1.0000
  S   S47       1.0  0.65861  0.90509  0.43628  1.0000
  H   H280      1.0  0.53149  0.76982  0.02469  1.0000
  H   H281      1.0  0.33989  0.80111  0.36517  1.0000
  S   S48       1.0  0.34257  0.59227  0.45478  1.0000
  C   C363      1.0  0.62569  0.89092  0.38603  1.0000
  C   C364      1.0  0.34902  0.64246  0.08452  1.0000
  H   H282      1.0  0.33375  0.55726  0.35363  1.0000
  C   C365      1.0  0.33661  0.75684  0.41094  1.0000
  C   C366      1.0  0.61010  0.65670  0.46846  1.0000
  H   H283      1.0  0.35932  0.83066  0.25729  1.0000
  P   P13       1.0  0.65555  0.78405  0.28457  1.0000
  H   H284      1.0  0.37637  0.67497  0.22461  1.0000
  H   H285      1.0  0.63947  0.66935  0.20343  1.0000
  C   C367      1.0  0.42978  0.85249  0.13683  1.0000
  H   H286      1.0  0.63889  0.90465  0.21832  1.0000
  C   C368      1.0  0.39835  0.76018  0.02804  1.0000
  H   H287      1.0  0.40244  0.64938  0.10040  1.0000
  C   C369      1.0  0.63900  0.76548  0.02831  1.0000
  C   C370      1.0  0.65254  0.82325  0.26190  1.0000
  C   C371      1.0  0.60532  0.85298  0.37352  1.0000
  C   C372      1.0  0.55064  0.71019  0.33153  1.0000
  P   P14       1.0  0.33430  0.76441  0.19125  1.0000
  C   C373      1.0  0.39299  0.64591  0.39033  1.0000
  C   C374      1.0  0.37572  0.59969  0.30546  1.0000
  H   H288      1.0  0.36935  0.58138  0.27297  1.0000
  H   H289      1.0  0.40027  0.66390  0.42336  1.0000
  H   H290      1.0  0.63698  0.70647  0.27565  1.0000
  H   H291      1.0  0.37924  0.60050  0.16636  1.0000
  H   H292      1.0  0.45957  0.70397  0.01322  1.0000
  S   S49       1.0  0.41659  0.73706  0.06403  1.0000
  C   C375      1.0  0.34003  0.67371  0.28397  1.0000
  C   C376      1.0  0.64280  0.72326  0.48122  1.0000
  S   S50       1.0  0.53065  0.75102  0.22298  1.0000
  H   H293      1.0  0.56433  0.81074  0.32413  1.0000
  H   H294      1.0  0.65730  0.79348  0.04133  1.0000
  C   C377      1.0  0.40482  0.63662  0.30187  1.0000
  H   H295      1.0  0.63836  0.79282  0.39007  1.0000
  H   H296      1.0  0.61484  0.79244  0.20071  1.0000
  H   H297      1.0  0.37388  0.82066  0.11154  1.0000
  C   C378      1.0  0.41283  0.65987  0.34437  1.0000
  C   C379      1.0  0.57984  0.70932  0.03139  1.0000
  C   C380      1.0  0.38182  0.80040  0.18370  1.0000
  S   S51       1.0  0.45301  0.75273  0.20796  1.0000
  H   H298      1.0  0.59269  0.63264  0.44516  1.0000
  C   C381      1.0  0.60332  0.74539  0.04907  1.0000
  H   H299      1.0  0.46450  0.83766  0.24536  1.0000
  C   C382      1.0  0.58274  0.72872  0.30216  1.0000
  C   C383      1.0  0.61434  0.76910  0.37381  1.0000
  C   C384      1.0  0.41407  0.79870  0.02835  1.0000
  C   C385      1.0  0.39309  0.82410  0.14139  1.0000
  H   H300      1.0  0.43836  0.87045  0.10383  1.0000
  C   C386      1.0  0.36016  0.60658  0.14666  1.0000
  Fe  Fe26      1.0  0.53594  0.75336  0.13699  1.0000
  S   S52       1.0  0.52136  0.79821  0.12817  1.0000
  H   H301      1.0  0.60713  0.84436  0.17251  1.0000
  C   C387      1.0  0.61923  0.91578  0.35853  1.0000
  H   H302      1.0  0.61054  0.69561  0.41448  1.0000
  H   H303      1.0  0.43853  0.81546  0.05076  1.0000
  H   H304      1.0  0.52558  0.68809  0.31463  1.0000
  H   H305      1.0  0.48409  0.87877  0.17028  1.0000
  S   S53       1.0  0.59000  0.76714  0.09660  1.0000
  H   H306      1.0  0.55231  0.69350  0.04692  1.0000
  C   C388      1.0  0.44444  0.83399  0.21653  1.0000
  S   S54       1.0  0.47737  0.70832  0.12642  1.0000
  Fe  Fe27      1.0  0.46995  0.70948  0.21168  1.0000
  C   C389      1.0  0.40777  0.80578  0.22146  1.0000
  C   C390      1.0  0.55037  0.72106  0.38197  1.0000
  Fe  Fe28      1.0  0.51407  0.79430  0.21367  1.0000
  H   H307      1.0  0.43509  0.68828  0.34238  1.0000
  S   S55       1.0  0.43136  0.65155  0.24454  1.0000
  C   C391      1.0  0.59257  0.90266  0.31927  1.0000
  H   H308      1.0  0.52519  0.70718  0.40422  1.0000
  C   C392      1.0  0.45550  0.85724  0.17416  1.0000
  H   H309      1.0  0.60982  0.83357  0.39489  1.0000
  S   S56       1.0  0.53924  0.84967  0.25651  1.0000
  C   C393      1.0  0.57938  0.83996  0.33348  1.0000
  C   C394      1.0  0.58219  0.75056  0.40308  1.0000
  H   H310      1.0  0.58192  0.72092  0.26249  1.0000
  H   H311      1.0  0.58747  0.92205  0.29867  1.0000
  C   C395      1.0  0.57266  0.86474  0.30621  1.0000
  H   H312      1.0  0.58164  0.75976  0.44167  1.0000
  H   H313      1.0  0.34317  0.65390  0.30693  1.0000
  C   C396      1.0  0.64699  0.71951  0.23896  1.0000
  C   C397      1.0  0.62975  0.81884  0.22026  1.0000
  H   H314      1.0  0.36051  0.75770  0.39337  1.0000
  H   H315      1.0  0.33373  0.99028  0.33210  1.0000
  C   C398      1.0  0.62538  0.84830  0.20406  1.0000
  H   H316      1.0  0.32730  0.71291  0.46151  1.0000
  C   C399      1.0  0.62028  0.69221  0.45116  1.0000
  C   C400      1.0  0.39799  0.81553  0.99967  1.0000
  H   H317      1.0  0.65311  0.57186  0.14534  1.0000
  H   H318      1.0  0.41010  0.84534  0.00052  1.0000
  C   C401      1.0  0.64338  0.88227  0.22974  1.0000
  H   H319      1.0  0.65020  0.75035  0.46696  1.0000
  C   C402      1.0  0.65785  0.75700  0.23203  1.0000
  C   C403      1.0  0.36641  0.79408  0.96976  1.0000
  H   H320      1.0  0.58886  0.78531  0.97949  1.0000
  H   H321      1.0  0.35914  0.62438  0.93777  1.0000
  P   P15       1.0  0.38286  0.68241  0.86014  1.0000
  C   C404      1.0  0.37327  0.73310  0.80297  1.0000
  C   C405      1.0  0.37676  0.76767  0.79341  1.0000
  C   C406      1.0  0.39074  0.72811  0.84530  1.0000
  C   C407      1.0  0.53727  0.78372  0.98817  1.0000
  H   H322      1.0  0.32674  0.60635  0.82951  1.0000
  C   C408      1.0  0.33262  0.69056  0.62306  1.0000
  C   C409      1.0  0.61351  0.71691  0.81073  1.0000
  H   H323      1.0  0.65821  0.81015  0.79591  1.0000
  H   H324      1.0  0.58473  0.81797  0.78607  1.0000
  H   H325      1.0  0.50751  0.69649  0.96757  1.0000
  C   C410      1.0  0.33897  0.59969  0.75217  1.0000
  C   C411      1.0  0.37470  0.65616  0.80167  1.0000
  H   H326      1.0  0.35560  0.70999  0.77842  1.0000
  C   C412      1.0  0.39747  0.79748  0.82619  1.0000
  H   H327      1.0  0.39876  0.82383  0.82009  1.0000
  C   C413      1.0  0.44974  0.68245  0.86815  1.0000
  C   C414      1.0  0.62117  0.73625  0.63022  1.0000
  C   C415      1.0  0.59929  0.74216  0.66520  1.0000
  H   H328      1.0  0.61164  0.70845  0.61623  1.0000
  C   C416      1.0  0.61682  0.78036  0.85406  1.0000
  C   C417      1.0  0.56986  0.79250  0.96234  1.0000
  C   C418      1.0  0.39141  0.65245  0.71375  1.0000
  C   C419      1.0  0.41192  0.75837  0.87772  1.0000
  C   C420      1.0  0.41527  0.79290  0.86805  1.0000
  H   H329      1.0  0.42469  0.75524  0.91159  1.0000
  C   C421      1.0  0.45682  0.69776  0.97274  1.0000
  C   C422      1.0  0.48382  0.69364  0.94698  1.0000
  C   C423      1.0  0.42641  0.69442  0.94630  1.0000
  C   C424      1.0  0.55291  0.81999  0.89427  1.0000
  C   C425      1.0  0.63710  0.75178  0.79015  1.0000
  C   C426      1.0  0.63877  0.78334  0.81163  1.0000
  H   H330      1.0  0.36220  0.77089  0.76160  1.0000
  H   H331      1.0  0.35724  0.65596  0.61910  1.0000
  C   C427      1.0  0.62833  0.71338  0.97409  1.0000
  C   C428      1.0  0.60965  0.84475  0.78815  1.0000
  H   H332      1.0  0.50080  0.81817  0.90392  1.0000
  H   H333      1.0  0.60240  0.86074  0.71287  1.0000
  C   C429      1.0  0.39756  0.67254  0.75913  1.0000
  P   P16       1.0  0.62077  0.82182  0.88270  1.0000
  H   H334      1.0  0.40603  0.69811  0.96692  1.0000
  H   H335      1.0  0.59426  0.78218  0.71171  1.0000
  C   C430      1.0  0.59145  0.71360  0.85272  1.0000
  C   C431      1.0  0.64446  0.68311  0.54630  1.0000
  H   H336      1.0  0.40926  0.66517  0.68116  1.0000
  H   H337      1.0  0.32750  0.73888  0.94501  1.0000
  C   C432      1.0  0.35138  0.75565  0.96841  1.0000
  C   C433      1.0  0.51230  0.79281  0.96705  1.0000
  C   C434      1.0  0.57803  0.81059  0.91506  1.0000
  C   C435      1.0  0.36208  0.61605  0.71024  1.0000
  H   H338      1.0  0.42012  0.70087  0.76111  1.0000
  H   H339      1.0  0.63283  0.86046  0.98144  1.0000
  C   C436      1.0  0.63204  0.85488  0.83175  1.0000
  S   S57       1.0  0.34713  0.81641  0.93410  1.0000
  C   C437      1.0  0.33920  0.66388  0.60076  1.0000
  C   C438      1.0  0.61108  0.77773  0.68431  1.0000
  C   C439      1.0  0.59239  0.69339  0.99427  1.0000
  H   H340      1.0  0.57690  0.74179  0.90821  1.0000
  C   C440      1.0  0.34523  0.61958  0.79777  1.0000
  H   H341      1.0  0.44758  0.67630  0.82783  1.0000
  H   H342      1.0  0.57449  0.68671  0.87008  1.0000
  H   H343      1.0  0.43023  0.81576  0.89435  1.0000
  C   C441      1.0  0.59317  0.74515  0.87454  1.0000
  H   H344      1.0  0.61332  0.69259  0.79541  1.0000
  H   H345      1.0  0.50124  0.68278  0.87476  1.0000
  H   H346      1.0  0.57330  0.71908  0.67781  1.0000
  C   C442      1.0  0.42249  0.68665  0.89378  1.0000
  H   H347      1.0  0.65510  0.75465  0.75850  1.0000
  C   C443      1.0  0.52012  0.81093  0.92009  1.0000
  H   H348      1.0  0.55846  0.83455  0.85854  1.0000
  C   C444      1.0  0.61971  0.86873  0.74650  1.0000
  C   C445      1.0  0.48030  0.68603  0.89469  1.0000
  H   H349      1.0  0.34517  0.70308  0.65928  1.0000
  C   C446      1.0  0.33789  0.63178  0.93406  1.0000
  C   C447      1.0  0.65500  0.76601  0.61398  1.0000
  H   H350      1.0  0.32900  0.95535  0.70500  1.0000
  H   H351      1.0  0.35704  0.60055  0.67493  1.0000
  H   H352      1.0  0.32679  0.62585  0.53813  1.0000
  C   C448      1.0  0.65144  0.74968  0.99110  1.0000
  C   C449      1.0  0.34240  0.65979  0.90024  1.0000
  H   H353      1.0  0.65276  0.93998  0.93564  1.0000
  H   H354      1.0  0.48697  0.78589  0.98723  1.0000
  C   C450      1.0  0.65260  0.90266  0.74759  1.0000
  H   H355      1.0  0.65449  0.83491  0.68414  1.0000
  S   S58       1.0  0.64341  0.69185  0.92851  1.0000
  H   H356      1.0  0.57426  0.66528  0.98143  1.0000
  C   C451      1.0  0.64492  0.80739  0.66883  1.0000
  C   C452      1.0  0.65519  0.71899  0.52904  1.0000
  C   C453      1.0  0.62224  0.65217  0.51597  1.0000
  H   H357      1.0  0.61439  0.62462  0.52942  1.0000
  H   H358      1.0  0.35483  0.70904  0.99654  1.0000
  H   H359      1.0  0.65319  0.67892  0.58332  1.0000
  C   C454      1.0  0.65805  0.83946  0.92840  1.0000
  C   C455      1.0  0.65659  0.85759  0.97302  1.0000
  H   H360      1.0  0.65399  0.99373  0.69467  1.0000
  C   C456      1.0  0.36714  0.73883  0.99754  1.0000
  Fe  Fe29      1.0  0.78324  0.02666  0.46828  1.0000
  P   P17       1.0  0.76799  0.20768  0.09937  1.0000
  S   S59       1.0  0.83124  0.08115  0.43730  1.0000
  C   C457      1.0  0.80465  0.29323  0.31021  1.0000
  H   H361      1.0  0.76853  0.08355  0.22987  1.0000
  H   H362      1.0  0.95639  0.28684  0.32451  1.0000
  Fe  Fe30      1.0  0.95642  0.20091  0.20017  1.0000
  S   S60       1.0  0.95212  0.25070  0.22218  1.0000
  S   S61       1.0  0.91002  0.14257  0.22099  1.0000
  Fe  Fe31      1.0  0.96775  0.26838  0.14040  1.0000
  S   S62       1.0  0.93841  0.29431  0.09783  1.0000
  S   S63       1.0  0.96956  0.21727  0.11692  1.0000
  C   C458      1.0  0.71620  0.21842  0.15266  1.0000
  H   H363      1.0  0.81965  0.35352  0.02337  1.0000
  C   C459      1.0  0.81788  0.18152  0.09091  1.0000
  C   C460      1.0  0.81778  0.28402  0.09326  1.0000
  H   H364      1.0  0.87274  0.19386  0.44973  1.0000
  Fe  Fe32      1.0  0.72289  0.47772  0.45918  1.0000
  C   C461      1.0  0.85312  0.09684  0.37677  1.0000
  C   C462      1.0  0.88355  0.13297  0.37313  1.0000
  C   C463      1.0  0.90145  0.14738  0.32609  1.0000
  C   C464      1.0  0.88946  0.12549  0.28193  1.0000
  C   C465      1.0  0.85937  0.08909  0.28569  1.0000
  C   C466      1.0  0.84112  0.07492  0.33266  1.0000
  H   H365      1.0  0.89355  0.14979  0.40712  1.0000
  H   H366      1.0  0.92458  0.17533  0.32406  1.0000
  H   H367      1.0  0.84984  0.07188  0.25186  1.0000
  H   H368      1.0  0.81787  0.04706  0.33473  1.0000
  C   C467      1.0  0.75684  0.10749  0.29546  1.0000
  C   C468      1.0  0.77938  0.10632  0.25694  1.0000
  C   C469      1.0  0.81626  0.13416  0.25396  1.0000
  C   C470      1.0  0.83096  0.16289  0.28994  1.0000
  C   C471      1.0  0.80859  0.16417  0.32894  1.0000
  C   C472      1.0  0.77125  0.13648  0.33103  1.0000
  P   P18       1.0  0.82625  0.20261  0.37330  1.0000
  C   C473      1.0  0.80469  0.18545  0.43471  1.0000
  C   C474      1.0  0.87559  0.22341  0.38071  1.0000
  C   C475      1.0  0.89044  0.21444  0.42250  1.0000
  C   C476      1.0  0.92861  0.23130  0.42873  1.0000
  C   C477      1.0  0.74252  0.17408  0.05004  1.0000
  C   C478      1.0  0.93779  0.26673  0.35196  1.0000
  C   C479      1.0  0.89963  0.24966  0.34531  1.0000
  C   C480      1.0  0.80597  0.20196  0.12020  1.0000
  H   H369      1.0  0.67727  0.48254  0.22639  1.0000
  H   H370      1.0  0.70099  0.38248  0.16986  1.0000
  C   C481      1.0  0.81693  0.23768  0.34923  1.0000
  C   C482      1.0  0.79179  0.22969  0.30926  1.0000
  C   C483      1.0  0.77752  0.29607  0.01872  1.0000
  H   H371      1.0  0.79995  0.31469  0.29512  1.0000
  C   C484      1.0  0.82976  0.30143  0.34990  1.0000
  C   C485      1.0  0.83595  0.27382  0.36929  1.0000
  C   C486      1.0  0.76516  0.26022  0.03681  1.0000
  C   C487      1.0  0.86565  0.19439  0.15255  1.0000
  H   H372      1.0  0.83388  0.13291  0.22452  1.0000
  H   H373      1.0  0.85988  0.18355  0.28749  1.0000
  H   H374      1.0  0.75331  0.13705  0.36047  1.0000
  C   C488      1.0  0.95227  0.25744  0.39347  1.0000
  C   C489      1.0  0.70826  0.17000  0.23146  1.0000
  H   H375      1.0  0.86893  0.22857  0.21629  1.0000
  H   H376      1.0  0.79949  0.23329  0.45435  1.0000
  H   H377      1.0  0.88902  0.25685  0.31241  1.0000
  H   H378      1.0  0.70481  0.15089  0.26168  1.0000
  H   H379      1.0  0.80578  0.13406  0.42831  1.0000
  H   H380      1.0  0.77704  0.20227  0.29265  1.0000
  H   H381      1.0  0.72834  0.08560  0.29822  1.0000
  S   S64       1.0  0.68971  0.42867  0.40468  1.0000
  C   C490      1.0  0.75694  0.17965  0.00048  1.0000
  H   H382      1.0  0.85576  0.28070  0.39976  1.0000
  C   C491      1.0  0.85420  0.21495  0.18178  1.0000
  H   H383      1.0  0.93990  0.22357  0.46032  1.0000
  H   H384      1.0  0.98188  0.27012  0.39770  1.0000
  H   H385      1.0  0.73978  0.23759  0.02170  1.0000
  C   C492      1.0  0.84739  0.17753  0.10735  1.0000
  C   C493      1.0  0.69628  0.40479  0.18146  1.0000
  C   C494      1.0  0.70840  0.14240  0.06041  1.0000
  H   H386      1.0  0.84457  0.32929  0.36548  1.0000
  H   H387      1.0  0.69746  0.26255  0.00691  1.0000
  C   C495      1.0  0.90785  0.27668  0.04463  1.0000
  H   H388      1.0  0.71819  0.23661  0.12198  1.0000
  H   H389      1.0  0.88880  0.19155  0.16471  1.0000
  H   H390      1.0  0.89928  0.32348  0.04352  1.0000
  H   H391      1.0  0.81566  0.23430  0.18934  1.0000
  H   H392      1.0  0.80495  0.16888  0.05512  1.0000
  C   C496      1.0  0.78571  0.25740  0.28987  1.0000
  C   C497      1.0  0.82993  0.31984  0.07526  1.0000
  H   H393      1.0  0.91097  0.22711  0.03435  1.0000
  H   H394      1.0  0.85677  0.16206  0.08452  1.0000
  H   H395      1.0  0.76639  0.25114  0.25893  1.0000
  C   C498      1.0  0.81351  0.47806  0.36810  1.0000
  H   H396      1.0  0.73118  0.44385  0.30830  1.0000
  C   C499      1.0  0.79831  0.15081  0.45181  1.0000
  C   C500      1.0  0.71918  0.46686  0.21604  1.0000
  H   H397      1.0  0.82634  0.47135  0.39883  1.0000
  C   C501      1.0  0.79511  0.20663  0.46640  1.0000
  H   H398      1.0  0.83435  0.28024  0.12136  1.0000
  C   C502      1.0  0.73756  0.20103  0.15227  1.0000
  C   C503      1.0  0.82417  0.21830  0.16613  1.0000
  H   H399      1.0  0.69647  0.13739  0.09822  1.0000
  C   C504      1.0  0.78536  0.25381  0.07398  1.0000
  C   C505      1.0  0.68905  0.11690  0.02149  1.0000
  C   C506      1.0  0.75995  0.46285  0.31655  1.0000
  C   C507      1.0  0.80992  0.32585  0.03784  1.0000
  H   H400      1.0  0.75274  0.44158  0.20221  1.0000
  S   S65       1.0  0.72653  0.01970  0.47932  1.0000
  C   C508      1.0  0.72545  0.43827  0.19970  1.0000
  H   H401      1.0  0.85535  0.34284  0.08965  1.0000
  S   S66       1.0  0.77455  0.47866  0.48580  1.0000
  C   C509      1.0  0.73324  0.17656  0.19182  1.0000
  C   C510      1.0  0.89897  0.24315  0.02062  1.0000
  H   H402      1.0  0.74871  0.16207  0.19165  1.0000
  C   C511      1.0  0.77694  0.45353  0.35483  1.0000
  H   H403      1.0  0.76118  0.42780  0.37549  1.0000
  C   C512      1.0  0.89218  0.29726  0.02577  1.0000
  C   C513      1.0  0.68333  0.46151  0.21322  1.0000
  C   C514      1.0  0.68731  0.18765  0.23176  1.0000
  C   C515      1.0  0.69125  0.21180  0.19233  1.0000
  H   H404      1.0  0.67450  0.22497  0.19195  1.0000
  H   H405      1.0  0.76908  0.49520  0.13535  1.0000
  H   H406      1.0  0.66767  0.18229  0.26219  1.0000
  H   H407      1.0  0.67219  0.26633  0.09140  1.0000
  C   C516      1.0  0.67072  0.26020  0.00938  1.0000
  H   H408      1.0  0.71616  0.49645  0.33848  1.0000
  H   H409      1.0  0.66250  0.09279  0.02947  1.0000
  H   H410      1.0  0.93888  0.31997  0.48883  1.0000
  C   C517      1.0  0.66069  0.39962  0.17933  1.0000
  C   C518      1.0  0.73309  0.00814  0.88438  1.0000
  C   C519      1.0  0.83723  0.46690  0.79005  1.0000
  S   S67       1.0  0.74539  0.44539  0.63455  1.0000
  Fe  Fe33      1.0  0.73510  0.01418  0.56311  1.0000
  S   S68       1.0  0.73737  0.04635  0.63546  1.0000
  S   S69       1.0  0.79167  0.02224  0.55198  1.0000
  Fe  Fe34      1.0  0.78037  0.30135  0.79232  1.0000
  S   S70       1.0  0.72034  0.26138  0.78317  1.0000
  S   S71       1.0  0.81099  0.35462  0.74556  1.0000
  Fe  Fe35      1.0  0.78967  0.24983  0.86737  1.0000
  S   S72       1.0  0.72905  0.20645  0.86262  1.0000
  S   S73       1.0  0.82836  0.23334  0.90665  1.0000
  Fe  Fe36      1.0  0.73536  0.21660  0.77808  1.0000
  S   S74       1.0  0.70685  0.17375  0.71455  1.0000
  Fe  Fe37      1.0  0.71871  0.25456  0.86861  1.0000
  H   H411      1.0  0.92673  0.21336  0.69109  1.0000
  S   S75       1.0  0.79597  0.25712  0.78197  1.0000
  S   S76       1.0  0.77898  0.29761  0.87848  1.0000
  C   C520      1.0  0.85861  0.25082  0.96018  1.0000
  H   H412      1.0  0.86014  0.15548  0.78567  1.0000
  H   H413      1.0  0.68855  0.10323  0.94190  1.0000
  H   H414      1.0  0.96533  0.27358  0.64771  1.0000
  C   C521      1.0  0.77956  0.19339  0.51446  1.0000
  C   C522      1.0  0.73161  0.08450  0.65281  1.0000
  C   C523      1.0  0.70735  0.09264  0.62720  1.0000
  C   C524      1.0  0.70068  0.12059  0.64606  1.0000
  C   C525      1.0  0.71853  0.14102  0.69021  1.0000
  C   C526      1.0  0.74380  0.13379  0.71474  1.0000
  C   C527      1.0  0.74981  0.10533  0.69656  1.0000
  H   H415      1.0  0.69483  0.45379  0.72670  1.0000
  C   C528      1.0  0.86411  0.15549  0.55111  1.0000
  H   H416      1.0  0.75753  0.14905  0.74893  1.0000
  H   H417      1.0  0.76796  0.09879  0.71739  1.0000
  C   C529      1.0  0.79108  0.37700  0.71109  1.0000
  C   C530      1.0  0.75473  0.36870  0.71934  1.0000
  C   C531      1.0  0.74111  0.38944  0.69470  1.0000
  C   C532      1.0  0.76324  0.41814  0.66064  1.0000
  C   C533      1.0  0.79918  0.42557  0.65105  1.0000
  C   C534      1.0  0.81310  0.40540  0.67660  1.0000
  H   H418      1.0  0.73754  0.34712  0.74589  1.0000
  H   H419      1.0  0.71331  0.38344  0.70241  1.0000
  H   H420      1.0  0.81658  0.44749  0.62504  1.0000
  H   H421      1.0  0.84129  0.41217  0.67006  1.0000
  C   C535      1.0  0.80841  0.13614  0.89335  1.0000
  Fe  Fe38      1.0  0.75753  0.48361  0.56545  1.0000
  H   H422      1.0  0.75221  0.35006  0.88208  1.0000
  H   H423      1.0  0.76199  0.30075  0.98972  1.0000
  H   H424      1.0  0.84171  0.33460  0.65365  1.0000
  C   C536      1.0  0.93043  0.22701  0.77079  1.0000
  C   C537      1.0  0.92051  0.24361  0.80946  1.0000
  C   C538      1.0  0.89973  0.26035  0.79779  1.0000
  C   C539      1.0  0.88921  0.26094  0.74742  1.0000
  C   C540      1.0  0.89902  0.24430  0.70820  1.0000
  C   C541      1.0  0.91949  0.22706  0.72044  1.0000
  P   P19       1.0  0.88473  0.24384  0.64295  1.0000
  C   C542      1.0  0.86677  0.19739  0.61815  1.0000
  C   C543      1.0  0.84980  0.25721  0.64214  1.0000
  C   C544      1.0  0.81218  0.23053  0.63991  1.0000
  C   C545      1.0  0.78561  0.24150  0.64157  1.0000
  C   C546      1.0  0.79628  0.27896  0.64641  1.0000
  H   H425      1.0  0.86814  0.20448  0.96055  1.0000
  C   C547      1.0  0.86031  0.29489  0.64632  1.0000
  H   H426      1.0  0.76185  0.14893  0.56863  1.0000
  C   C548      1.0  0.83243  0.13076  0.63098  1.0000
  C   C549      1.0  0.84454  0.16669  0.64904  1.0000
  C   C550      1.0  0.87459  0.23039  0.97867  1.0000
  C   C551      1.0  0.73778  0.15399  0.96180  1.0000
  H   H427      1.0  0.75231  0.48073  0.78911  1.0000
  C   C552      1.0  0.77228  0.44347  0.80466  1.0000
  C   C553      1.0  0.83895  0.13948  0.81346  1.0000
  C   C554      1.0  0.77360  0.15905  0.53127  1.0000
  H   H428      1.0  0.89121  0.27240  0.82805  1.0000
  H   H429      1.0  0.87284  0.27383  0.73984  1.0000
  C   C555      1.0  0.67599  0.06297  0.78077  1.0000
  H   H430      1.0  0.80302  0.20125  0.63774  1.0000
  H   H431      1.0  0.75660  0.22086  0.64033  1.0000
  C   C556      1.0  0.69549  0.01015  0.75282  1.0000
  C   C557      1.0  0.95907  0.28386  0.61373  1.0000
  H   H432      1.0  0.88911  0.31593  0.64926  1.0000
  H   H433      1.0  0.87138  0.15064  0.51320  1.0000
  H   H434      1.0  0.81524  0.10696  0.65452  1.0000
  H   H435      1.0  0.83651  0.17045  0.68699  1.0000
  C   C558      1.0  0.70372  0.12271  0.97218  1.0000
  C   C559      1.0  0.83605  0.15656  0.85780  1.0000
  C   C560      1.0  0.94453  0.31017  0.52397  1.0000
  C   C561      1.0  0.77638  0.47755  0.79001  1.0000
  C   C562      1.0  0.84231  0.12528  0.58218  1.0000
  S   S77       1.0  0.70467  0.47986  0.53919  1.0000
  C   C563      1.0  0.66689  0.40220  0.76781  1.0000
  H   H436      1.0  0.71821  0.08099  0.83717  1.0000
  H   H437      1.0  0.77195  0.20967  0.53867  1.0000
  P   P20       1.0  0.75148  0.03356  0.82589  1.0000
  H   H438      1.0  0.68100  0.12589  0.62688  1.0000
  C   C564      1.0  0.78599  0.08114  0.83977  1.0000
  C   C565      1.0  0.81415  0.10193  0.80449  1.0000
  C   C566      1.0  0.78336  0.09863  0.88438  1.0000
  H   H439      1.0  0.68312  0.41425  0.80171  1.0000
  H   H440      1.0  0.80611  0.14977  0.92738  1.0000
  H   H441      1.0  0.74925  0.15881  0.92361  1.0000
  H   H442      1.0  0.85566  0.30051  0.97031  1.0000
  H   H443      1.0  0.71498  0.41887  0.95251  1.0000
  H   H444      1.0  0.88795  0.28154  0.54779  1.0000
  C   C567      1.0  0.75679  0.01287  0.92503  1.0000
  H   H445      1.0  0.86048  0.46226  0.78873  1.0000
  H   H446      1.0  0.76137  0.39860  0.94495  1.0000
  H   H447      1.0  0.83296  0.09759  0.56804  1.0000
  C   C568      1.0  0.73219  0.35914  0.88518  1.0000
  C   C569      1.0  0.73731  0.38649  0.92058  1.0000
  H   H448      1.0  0.81680  0.08965  0.76953  1.0000
  H   H449      1.0  0.76148  0.08366  0.91173  1.0000
  C   C570      1.0  0.91580  0.28860  0.55769  1.0000
  C   C571      1.0  0.80266  0.43816  0.80481  1.0000
  H   H450      1.0  0.98330  0.32737  0.77034  1.0000
  C   C572      1.0  0.70415  0.06127  0.80684  1.0000
  C   C573      1.0  0.71455  0.03517  0.79258  1.0000
  H   H451      1.0  0.77315  0.03988  0.71848  1.0000
  H   H452      1.0  0.78604  0.03256  0.92220  1.0000
  H   H453      1.0  0.94618  0.21364  0.78001  1.0000
  H   H454      1.0  0.77563  0.28731  0.64963  1.0000
  C   C574      1.0  0.92283  0.27528  0.60293  1.0000
  H   H455      1.0  0.66920  0.08423  0.79039  1.0000
  C   C575      1.0  0.68003  0.38198  0.89349  1.0000
  H   H456      1.0  0.74534  0.42069  0.81432  1.0000
  H   H457      1.0  0.92838  0.24308  0.84868  1.0000
  C   C576      1.0  0.87622  0.19146  0.56881  1.0000
  C   C577      1.0  0.83362  0.30563  0.64866  1.0000
  H   H458      1.0  0.89315  0.21433  0.54391  1.0000
  H   H459      1.0  0.79923  0.41138  0.81475  1.0000
  H   H460      1.0  0.69742  0.32132  0.82781  1.0000
  C   C578      1.0  0.70098  0.34302  0.85404  1.0000
  C   C579      1.0  0.71122  0.39792  0.92474  1.0000
  H   H461      1.0  0.69273  0.07656  0.59398  1.0000
  H   H462      1.0  0.85489  0.18580  0.86442  1.0000
  H   H463      1.0  0.78311  0.20396  0.99192  1.0000
  C   C580      1.0  0.67344  0.42492  0.72547  1.0000
  H   H464      1.0  0.77805  0.11094  0.51275  1.0000
  C   C581      1.0  0.67462  0.35434  0.85789  1.0000
  C   C582      1.0  0.86749  0.28434  0.98413  1.0000
  H   H465      1.0  0.65926  0.25717  0.69786  1.0000
  H   H466      1.0  0.65985  0.33166  0.54968  1.0000
  C   C583      1.0  0.77847  0.01958  0.73581  1.0000
  C   C584      1.0  0.77087  0.01099  0.78770  1.0000
  C   C585      1.0  0.98049  0.31860  0.53504  1.0000
  C   C586      1.0  0.66729  0.01189  0.72694  1.0000
  H   H467      1.0  0.66631  0.31599  0.73054  1.0000
  S   S78       1.0  0.66720  0.25255  0.90313  1.0000
  C   C587      1.0  0.98775  0.30549  0.57990  1.0000
  H   H468      1.0  0.65997  0.39104  0.89729  1.0000
  C   C588      1.0  0.79272  0.00186  0.70571  1.0000
  H   H469      1.0  0.79799  0.00830  0.66547  1.0000
  C   C589      1.0  0.78273  0.13767  0.49981  1.0000
  H   H470      1.0  0.65957  0.42770  0.64732  1.0000
  H   H471      1.0  0.69602  0.70802  0.00770  1.0000
  S   S79       1.0  0.75135  0.54003  0.44959  1.0000
  S   S80       1.0  0.86110  0.57655  0.45029  1.0000
  H   H472      1.0  0.67230  0.75194  0.37267  1.0000
  C   C590      1.0  0.73725  0.53414  0.27442  1.0000
  C   C591      1.0  0.98425  0.77628  0.39836  1.0000
  Fe  Fe39      1.0  0.97410  0.72434  0.21358  1.0000
  C   C592      1.0  0.70126  0.53863  0.34421  1.0000
  S   S81       1.0  0.92000  0.68020  0.25187  1.0000
  H   H473      1.0  0.94858  0.72344  0.36189  1.0000
  S   S82       1.0  0.96366  0.77054  0.03747  1.0000
  C   C593      1.0  0.76255  0.84054  0.33366  1.0000
  C   C594      1.0  0.67863  0.57443  0.13115  1.0000
  H   H474      1.0  0.68382  0.88434  0.04313  1.0000
  C   C595      1.0  0.90460  0.78241  0.05661  1.0000
  C   C596      1.0  0.92304  0.77205  0.02140  1.0000
  H   H475      1.0  0.86065  0.79453  0.06845  1.0000
  H   H476      1.0  0.91453  0.78902  0.09541  1.0000
  C   C597      1.0  0.87689  0.60536  0.39500  1.0000
  C   C598      1.0  0.85329  0.61173  0.36453  1.0000
  C   C599      1.0  0.86717  0.63500  0.32144  1.0000
  C   C600      1.0  0.90473  0.65221  0.30794  1.0000
  C   C601      1.0  0.92834  0.64591  0.33847  1.0000
  C   C602      1.0  0.91446  0.62255  0.38151  1.0000
  H   H477      1.0  0.82436  0.59882  0.37426  1.0000
  H   H478      1.0  0.84867  0.63998  0.29862  1.0000
  H   H479      1.0  0.95719  0.65866  0.32853  1.0000
  H   H480      1.0  0.93302  0.61780  0.40456  1.0000
  C   C603      1.0  0.88046  0.68822  0.08103  1.0000
  C   C604      1.0  0.88319  0.69328  0.13378  1.0000
  C   C605      1.0  0.85186  0.68459  0.16273  1.0000
  C   C606      1.0  0.81775  0.67121  0.13874  1.0000
  C   C607      1.0  0.81493  0.66694  0.08546  1.0000
  C   C608      1.0  0.84658  0.67537  0.05677  1.0000
  P   P21       1.0  0.77100  0.65178  0.05515  1.0000
  C   C609      1.0  0.72173  0.58316  0.27563  1.0000
  C   C610      1.0  0.73743  0.61032  0.08771  1.0000
  C   C611      1.0  0.74443  0.58099  0.09462  1.0000
  C   C612      1.0  0.75886  0.68774  0.05774  1.0000
  Fe  Fe40      1.0  0.70551  0.95759  0.47373  1.0000
  H   H481      1.0  0.78980  0.77560  0.10182  1.0000
  S   S83       1.0  0.97263  0.77642  0.19480  1.0000
  C   C613      1.0  0.68572  0.87167  0.00788  1.0000
  H   H482      1.0  0.90497  0.69526  0.05881  1.0000
  H   H483      1.0  0.90966  0.70393  0.15223  1.0000
  H   H484      1.0  0.85428  0.68834  0.20378  1.0000
  H   H485      1.0  0.79374  0.66490  0.16160  1.0000
  C   C614      1.0  0.69712  0.79831  0.32066  1.0000
  S   S84       1.0  0.98834  0.71704  0.13252  1.0000
  C   C615      1.0  0.70449  0.60697  0.10671  1.0000
  C   C616      1.0  0.71828  0.54832  0.11854  1.0000
  H   H486      1.0  0.68670  0.52815  0.37999  1.0000
  C   C617      1.0  0.69713  0.77706  0.36200  1.0000
  C   C618      1.0  0.67201  0.77352  0.18453  1.0000
  H   H487      1.0  0.76994  0.58328  0.08093  1.0000
  H   H488      1.0  0.93376  0.68174  0.44713  1.0000
  H   H489      1.0  0.81523  0.53439  0.07141  1.0000
  H   H490      1.0  0.73537  0.76698  0.05346  1.0000
  C   C619      1.0  0.71825  0.52084  0.32068  1.0000
  H   H491      1.0  0.73117  0.84577  0.27312  1.0000
  C   C620      1.0  0.78949  0.53763  0.19425  1.0000
  C   C621      1.0  0.67368  0.75242  0.14403  1.0000
  C   C622      1.0  0.81540  0.54555  0.10890  1.0000
  C   C623      1.0  0.84225  0.58191  0.12099  1.0000
  C   C624      1.0  0.84277  0.59618  0.16946  1.0000
  C   C625      1.0  0.81623  0.57441  0.20559  1.0000
  H   H492      1.0  0.80566  0.72636  0.10350  1.0000
  C   C626      1.0  0.68541  0.54505  0.13681  1.0000
  C   C627      1.0  0.74129  0.74454  0.05593  1.0000
  C   C628      1.0  0.70321  0.56991  0.32194  1.0000
  C   C629      1.0  0.72946  0.78798  0.38964  1.0000
  C   C630      1.0  0.78082  0.72115  0.08407  1.0000
  H   H493      1.0  0.75202  0.57562  0.21550  1.0000
  H   H494      1.0  0.86417  0.62399  0.17951  1.0000
  H   H495      1.0  0.81696  0.58621  0.24275  1.0000
  C   C631      1.0  0.77189  0.74932  0.08331  1.0000
  H   H496      1.0  0.86296  0.59900  0.09315  1.0000
  H   H497      1.0  0.92821  0.74976  0.29428  1.0000
  H   H498      1.0  0.69029  0.58379  0.34065  1.0000
  H   H499      1.0  0.78716  0.82832  0.39707  1.0000
  H   H500      1.0  0.78795  0.86508  0.32260  1.0000
  C   C632      1.0  0.74758  0.86684  0.47704  1.0000
  C   C633      1.0  0.73847  0.56523  0.25173  1.0000
  H   H501      1.0  0.66249  0.69853  0.11882  1.0000
  C   C634      1.0  0.81629  0.52133  0.30465  1.0000
  C   C635      1.0  0.87396  0.78546  0.04117  1.0000
  H   H502      1.0  0.72925  0.77181  0.42197  1.0000
  H   H503      1.0  0.72304  0.60728  0.25818  1.0000
  H   H504      1.0  0.76277  0.89304  0.45732  1.0000
  H   H505      1.0  0.84565  0.67265  0.01577  1.0000
  C   C636      1.0  0.76212  0.81978  0.37557  1.0000
  H   H506      1.0  0.68384  0.76514  0.10722  1.0000
  H   H507      1.0  0.83219  0.54805  0.28697  1.0000
  C   C637      1.0  0.73025  0.82967  0.30595  1.0000
  H   H508      1.0  0.68492  0.86048  0.32321  1.0000
  H   H509      1.0  0.66515  0.51974  0.15533  1.0000
  C   C638      1.0  0.66947  0.85706  0.28867  1.0000
  C   C639      1.0  0.66543  0.88665  0.27200  1.0000
  H   H510      1.0  0.72341  0.52547  0.12299  1.0000
  H   H511      1.0  0.69851  0.62925  0.10280  1.0000
  C   C640      1.0  0.72811  0.68319  0.03038  1.0000
  H   H512      1.0  0.79624  0.86475  0.49671  1.0000
  C   C641      1.0  0.96097  0.80605  0.32098  1.0000
  H   H513      1.0  0.67799  0.91245  0.29337  1.0000
  S   S85       1.0  0.76202  0.96538  0.45770  1.0000
  C   C642      1.0  0.83314  0.51192  0.34302  1.0000
  C   C643      1.0  0.71927  0.71140  0.02981  1.0000
  C   C644      1.0  0.95924  0.73326  0.48996  1.0000
  C   C645      1.0  0.78925  0.52336  0.14544  1.0000
  C   C646      1.0  0.94733  0.76787  0.32303  1.0000
  H   H514      1.0  0.71140  0.65818  0.00842  1.0000
  H   H515      1.0  0.68148  0.80259  0.17839  1.0000
  H   H516      1.0  0.69506  0.86339  0.46670  1.0000
  P   P22       1.0  0.75665  0.50913  0.24268  1.0000
  H   H517      1.0  0.86119  0.53144  0.35438  1.0000
  Fe  Fe41      1.0  0.98903  0.77035  0.11520  1.0000
  Fe  Fe42      1.0  0.80183  0.54108  0.48057  1.0000
  C   C647      1.0  0.66169  0.71486  0.15067  1.0000
  C   C648      1.0  0.70941  0.85011  0.48249  1.0000
  C   C649      1.0  0.93144  0.69672  0.47944  1.0000
  H   H518      1.0  0.95300  0.81771  0.29008  1.0000
  C   C650      1.0  0.95904  0.75303  0.36140  1.0000
  H   H519      1.0  0.69477  0.94947  0.00774  1.0000
  H   H520      1.0  0.76138  0.99565  0.00068  1.0000
  H   H521      1.0  0.73957  0.87972  0.02470  1.0000
  C   C651      1.0  0.98550  0.82929  0.35823  1.0000
  C   C652      1.0  0.77947  0.49681  0.29088  1.0000
  C   C653      1.0  0.71703  0.86893  0.99767  1.0000
  Fe  Fe43      1.0  0.76520  0.96090  0.54302  1.0000
  S   S86       1.0  0.70894  0.95184  0.55914  1.0000
  S   S87       1.0  0.78860  0.92702  0.57865  1.0000
  Fe  Fe44      1.0  0.73715  0.54207  0.53280  1.0000
  S   S88       1.0  0.71303  0.57686  0.56459  1.0000
  S   S89       1.0  0.78891  0.54630  0.56317  1.0000
  Fe  Fe45      1.0  0.74755  0.78572  0.81708  1.0000
  S   S90       1.0  0.70503  0.72585  0.80245  1.0000
  S   S91       1.0  0.73699  0.83004  0.78222  1.0000
  Fe  Fe46      1.0  0.78381  0.76430  0.90442  1.0000
  S   S92       1.0  0.74216  0.70396  0.89509  1.0000
  C   C654      1.0  0.70379  0.53954  0.71758  1.0000
  Fe  Fe47      1.0  0.75204  0.71440  0.81051  1.0000
  S   S93       1.0  0.77013  0.67872  0.76519  1.0000
  Fe  Fe48      1.0  0.69952  0.72147  0.88822  1.0000
  C   C655      1.0  0.87761  0.64361  0.87171  1.0000
  S   S94       1.0  0.79539  0.77492  0.82021  1.0000
  S   S95       1.0  0.74021  0.78107  0.90252  1.0000
  C   C656      1.0  0.73074  0.73002  0.58209  1.0000
  H   H522      1.0  0.87869  0.65099  0.50153  1.0000
  C   C657      1.0  0.87857  0.76606  0.95582  1.0000
  H   H523      1.0  0.92350  0.75543  0.94349  1.0000
  H   H524      1.0  0.86897  0.76002  0.91684  1.0000
  C   C658      1.0  0.72955  0.60588  0.61972  1.0000
  C   C659      1.0  0.70847  0.62042  0.64110  1.0000
  C   C660      1.0  0.72040  0.64298  0.68532  1.0000
  C   C661      1.0  0.75378  0.65150  0.70846  1.0000
  C   C662      1.0  0.77515  0.63761  0.68639  1.0000
  C   C663      1.0  0.76315  0.61491  0.64250  1.0000
  H   H525      1.0  0.69322  0.82488  0.62282  1.0000
  H   H526      1.0  0.70374  0.65362  0.70158  1.0000
  H   H527      1.0  0.80130  0.64461  0.70316  1.0000
  H   H528      1.0  0.77988  0.60431  0.62640  1.0000
  C   C664      1.0  0.75089  0.85556  0.72431  1.0000
  C   C665      1.0  0.77790  0.85595  0.69236  1.0000
  C   C666      1.0  0.78848  0.87734  0.64744  1.0000
  C   C667      1.0  0.77223  0.89856  0.63378  1.0000
  C   C668      1.0  0.74481  0.89775  0.66537  1.0000
  C   C669      1.0  0.73452  0.87667  0.71059  1.0000
  H   H529      1.0  0.79119  0.84039  0.70269  1.0000
  H   H530      1.0  0.80984  0.87791  0.62347  1.0000
  H   H531      1.0  0.73228  0.91415  0.65564  1.0000
  H   H532      1.0  0.71392  0.87692  0.73531  1.0000
  H   H533      1.0  0.87054  0.68518  0.57368  1.0000
  H   H534      1.0  0.80942  0.70052  0.97027  1.0000
  C   C670      1.0  0.66683  0.80159  0.63386  1.0000
  C   C671      1.0  0.88202  0.60698  0.63077  1.0000
  H   H535      1.0  0.67833  0.53887  0.70792  1.0000
  C   C672      1.0  0.84149  0.50103  0.77533  1.0000
  C   C673      1.0  0.85815  0.64808  0.83196  1.0000
  C   C674      1.0  0.87874  0.61074  0.87555  1.0000
  C   C675      1.0  0.72039  0.52728  0.68218  1.0000
  H   H536      1.0  0.86487  0.62098  0.70028  1.0000
  H   H537      1.0  0.89187  0.66565  0.89948  1.0000
  H   H538      1.0  0.73476  0.58349  0.99111  1.0000
  H   H539      1.0  0.70773  0.56333  0.79196  1.0000
  C   C676      1.0  0.76645  0.85070  0.49905  1.0000
  C   C677      1.0  0.72657  0.76475  0.65381  1.0000
  C   C678      1.0  0.86081  0.77753  0.99068  1.0000
  C   C679      1.0  0.89988  0.67931  0.50998  1.0000
  C   C680      1.0  0.70546  0.96571  0.97331  1.0000
  C   C681      1.0  0.67519  0.91281  0.79060  1.0000
  C   C682      1.0  0.75287  0.60117  0.91470  1.0000
  C   C683      1.0  0.81108  0.50664  0.77521  1.0000
  C   C684      1.0  0.89528  0.69860  0.55047  1.0000
  C   C685      1.0  0.74718  0.81756  0.52611  1.0000
  H   H540      1.0  0.78483  0.73234  0.68020  1.0000
  C   C686      1.0  0.75415  0.52981  0.69339  1.0000
  C   C687      1.0  0.75531  0.72327  0.60956  1.0000
  H   H541      1.0  0.89366  0.58502  0.56291  1.0000
  C   C688      1.0  0.79214  0.96646  0.77874  1.0000
  C   C689      1.0  0.90958  0.76357  0.97106  1.0000
  C   C690      1.0  0.84244  0.56160  0.69372  1.0000
  C   C691      1.0  0.77173  0.54485  0.73996  1.0000
  C   C692      1.0  0.85910  0.54177  0.61536  1.0000
  H   H542      1.0  0.85718  0.67354  0.82888  1.0000
  H   H543      1.0  0.86835  0.52280  0.76298  1.0000
  C   C693      1.0  0.77421  0.63106  0.88256  1.0000
  H   H544      1.0  0.68343  0.89738  0.86497  1.0000
  C   C694      1.0  0.75166  0.75852  0.68068  1.0000
  H   H545      1.0  0.66066  0.80537  0.51539  1.0000
  C   C695      1.0  0.71923  0.85211  0.95259  1.0000
  H   H546      1.0  0.76660  0.52025  0.66550  1.0000
  H   H547      1.0  0.79700  0.94539  0.79496  1.0000
  H   H548      1.0  0.76012  0.76998  0.71861  1.0000
  H   H549      1.0  0.71604  0.78101  0.67186  1.0000
  H   H550      1.0  0.70110  0.93865  0.79089  1.0000
  H   H551      1.0  0.66087  0.92084  0.71476  1.0000
  C   C696      1.0  0.92212  0.73546  0.56004  1.0000
  H   H552      1.0  0.98590  0.79894  0.89467  1.0000
  H   H553      1.0  0.73611  0.57371  0.89868  1.0000
  H   H554      1.0  0.81089  0.68998  0.87786  1.0000
  H   H555      1.0  0.70303  0.99006  0.74039  1.0000
  C   C697      1.0  0.79428  0.67251  0.95534  1.0000
  P   P23       1.0  0.81644  0.55004  0.75279  1.0000
  H   H556      1.0  0.72336  0.71914  0.54370  1.0000
  C   C698      1.0  0.68990  0.83737  0.91809  1.0000
  H   H557      1.0  0.85654  0.51968  0.59057  1.0000
  H   H558      1.0  0.76260  0.80616  0.54376  1.0000
  H   H559      1.0  0.74364  0.85023  0.94440  1.0000
  C   C699      1.0  0.72048  0.55343  0.76482  1.0000
  H   H560      1.0  0.76604  0.70665  0.59294  1.0000
  H   H561      1.0  0.69236  0.82444  0.88346  1.0000
  C   C700      1.0  0.87998  0.57861  0.59975  1.0000
  C   C701      1.0  0.83973  0.61971  0.79618  1.0000
  C   C702      1.0  0.75407  0.55556  0.77632  1.0000
  H   H562      1.0  0.82450  0.62360  0.76601  1.0000
  H   H563      1.0  0.76643  0.56608  0.81318  1.0000
  H   H564      1.0  0.77228  0.97660  0.84870  1.0000
  C   C703      1.0  0.84072  0.58656  0.79952  1.0000
  C   C704      1.0  0.70876  0.80051  0.53180  1.0000
  H   H565      1.0  0.89768  0.63546  0.61814  1.0000
  C   C705      1.0  0.71571  0.75036  0.60435  1.0000
  C   C706      1.0  0.84001  0.53324  0.66172  1.0000
  H   H566      1.0  0.77383  0.62707  0.84162  1.0000
  H   H567      1.0  0.89400  0.60738  0.90630  1.0000
  C   C707      1.0  0.86038  0.58229  0.83969  1.0000
  C   C708      1.0  0.79976  0.97548  0.72722  1.0000
  H   H568      1.0  0.86165  0.55717  0.84371  1.0000
  H   H569      1.0  0.81073  0.96169  0.70371  1.0000
  S   S96       1.0  0.82311  0.78375  0.97307  1.0000
  P   P24       1.0  0.68363  0.75875  0.56905  1.0000
  C   C709      1.0  0.86328  0.59857  0.67749  1.0000
  C   C710      1.0  0.76583  0.73760  0.65881  1.0000
  H   H570      1.0  0.68255  0.61385  0.62366  1.0000
  C   C711      1.0  0.79522  0.66662  0.90298  1.0000
  C   C712      1.0  0.75224  0.60689  0.96729  1.0000
  C   C713      1.0  0.95378  0.75291  0.52950  1.0000
  C   C714      1.0  0.69007  0.81723  0.51006  1.0000
  C   C715      1.0  0.68179  0.96045  0.93275  1.0000
  C   C716      1.0  0.77795  0.98424  0.80902  1.0000
  C   C717      1.0  0.66498  0.88917  0.83264  1.0000
  C   C718      1.0  0.77308  0.64270  0.98803  1.0000
  H   H571      1.0  0.67903  0.76553  0.97591  1.0000
  H   H572      1.0  0.91807  0.75071  0.59060  1.0000
  C   C719      1.0  0.74295  0.99183  0.96940  1.0000
  H   H573      1.0  0.97368  0.78183  0.53628  1.0000
  C   C720      1.0  0.69552  0.98147  0.88834  1.0000
  H   H574      1.0  0.70763  0.51683  0.64533  1.0000
  H   H575      1.0  0.67678  0.97670  0.85716  1.0000
  H   H576      1.0  0.82266  0.50439  0.67188  1.0000
