data_image0
_chemical_formula_structural       FeS2FeS2FeSFeS3HFeS2FeSHFeSFeS3FeS2FeS2FeSFeS3CSHFeS2FeSFeCSC2FeS2H2S2HC3HSCHSHC6H4C6H6C4H2C6H7CHC6HCH2C6H4C6H4C6H2CH2C6PC18H20C2PCH5C12H2C3H6CH3CPCH2CPC18H13CFeCHPC3HC14H3CHCHC3H3C2HC3H4CH3CH3C3H3CH2CHCHC3H3C3HCH5C3H2C4H4C4H2PCFeHCH3C2FeHCHC2HCPC4H2C6HC6HCHCPC4HC2HS2HCH2CHCSC2H2CHC4H4CFeH2C2H3CH4C4H2CH5CH2CHCFeC5HCH4CHC3H3C3HC5SH3CSHCH3C4HCH2C2HCHC3HC2H2CH2C2HCHCH2CHCSCH3CH11C4HCHC3HC2HCSC5H2C2HC2SPC3HC14HSH2CHCHCH4CH3CPH2C2HCFeS2FeS2FeCFeS3CFeHCFeCSCPS3H4SHFeSCH2C4H4C3H3C3HCH4C2HFeHCHCHC3H2C3HC6H4CH4C9PC18H13CH3CH2SH2C2HSHC3HCH3CHC3HSH4C2SH2C2HSCHC4H4C2HCHCH2C2H8C9PC18H8CH12C2HSCHC4H2C2HC2HC7HC3SC2H2CH3C2HSH2C3HCHC5HC2H4CHFeCPSHC6PSFeSHFeS2FeSFeS3HC2HFeC2SC4H2CHC8H4CH3CHCHCHCHCSC4H4CH2C2H2C3HC5SCHC4H2CH2C2H2C2SHCH4CSH3C2HC3H2C3HCHC4PH2FeC5PC2HC11H2CH8C7PC15HCH7CH5C2H2FeC2H6CH4CSCH3CH2C7FeCH5C2H2CHCH3C4FeSH2C2H2SH2CHC3H2CH2CHC3HCH2C4H3C4HCH4CHC2H3C2H2SC5HFeSCFeS2FeCFeS3FeS2FeSFe2S5FeSFeCFeS2FeS2FeSFeS3FeHSFeHSHSC3SH2CHC6H4C6H4C2H3C6H4C6H4C3PH4C7HCH2CHC4HC6PC12H11C7H7C5PC18HCH14CSH3C3H2CSCH5PCHC2HC2H3CHC4H2C2SC3HC4HCH2C4HCSHPHC4H2C2HCH2C5H2CPH2FeHCHSFeSCH2CHCSCH3C4HCH2CHC3HC4HC7HC2HC2FeHC3PH2CHC3H5CH3CH5CHCH2C2SHC4SC3H2CSC4H3CHCHCH3CHCH3C2H4C2H3CSC2HPH2C2HFeH3CH2C2FeCSHFe2H2C2H2CH2CHSHCH2PC2HCPH3SC7HC7HSHCHC2H2CH4CH3C2H3C3HCHCH4CH3C3HC3H2CHCHC3PCH2CHC3H6CSC3FeSFeS3FeS2FeS2FeSFeS3FeSFeHCHS2FeS2FeSHFeCFeS3FeS2FeS2Fe3CS2C4H3C2HPHCHCHCH6C2H2C6H4C6H4C6H4C6H4C6H4C2H4C2H2C2HC2HC3HC2HCHC3HCH2C3H3CHC2HCH3CHC9HS2CHC2H5C6PC18H7CH12C2PCHC4FeCPHSH4CH3CHC3H2C2PCHC4PCSCHSHCHCH3C2H2C3HC3H2C3HFeCHC2HCSPH2SCH2C5HCH2CH4C4H3CHCHCH2CHCHC7H3SC3H2C4SHC2FeHCHCPCHCH4CHC5SC3HC2H3SHC2H3CHCH3CHC4H2C2SC3HC6H3CH5C4H3CH2PC2HCHC10H2C4HCHC2HCHCH2C2H2CH2CHCHCH4C2HC2HCH2C3FeS2H2CFeSPS2FeHC3HFeHCSHCSC3HC2H2C4HC5H5FeC2H3CHCH2C4HCH4C4PC10H10CPCHCHCHC5H3C3SCSCH3CHCHCH4C7HC2SC2H2C7PC4HC13H7CH12C2HCH2CFeCHCH2CHFeHSCSCHCSHCH2C2SCFeCPCH3C4HC4H2C4H2SCHCPHC2HC2HSH2C4H2CFeC2HCHCHCSHC3HFeSCS2CFeSHFeSFeSCHC6H6C5H2C3H3CH2C2HC4HC3SH2C4H2CH4C4HSHFeC2HCHS2C2H4SH2CHCHC2HC2H3C3H3CH2C2PHC5HC2HCHSCHCH2FeSH2CHC2PC3HCHC2H2C8HPH4CHC2HCHC2H3CHSCH2C2HC7H2C3HSC3HC2H2C3HC2H6CHFeHC2HC2HC2HCHCH2CH4FeS2FeS2FeSFeS3FeHC2SCFeS2H2FeSCSFeS2FeS2FeSFeS3FeS2FeCHFeS2C6H7C7H5C6H4C9H4C6H4C6H4C6H4CSHPCHCHCHC7H3C2H5C4PCHC6H2C2H6C6PC18H21C2HCHCHC3H2C2PC6HCH7C2HC2HC2HC2H2C4H2C2HCHC5PH2C2HC3HCH2CH4C6H2C2HC3HFeH2C3H2CHFeC4H3CHC2SCFeCH2SHCH2CHPCPH2CH2CHS2H2C6HCHCH3CPH2CHC2SC3HCH5C2H2C2H2C8HCHC2H3CHC3H3C2HCPC2HC2HC3H2FeHC2HC2H3CHC2HC6H4CH2C6HSC6S2HC2HC5HCH2CHCH2C3H2CH2CH2SHPHC2H4CHC8HCH2C2H2CH2CH2C5HCH2PC2H5CH3CH4CHC4HCHCHC2HCHC2H2C3H2CH3C3HCH2CHC2HC4SHCH2
_chemical_formula_sum              "Fe116 S232 H1392 C1740 P58"
_cell_length_a       56.6576
_cell_length_b       56.8727
_cell_length_c       51.216
_cell_angle_alpha    81.3084
_cell_angle_beta     82.5732
_cell_angle_gamma    81.0408

_space_group_name_H-M_alt    "P 1"
_space_group_IT_number       1

loop_
  _space_group_symop_operation_xyz
  'x, y, z'

loop_
  _atom_site_type_symbol
  _atom_site_label
  _atom_site_symmetry_multiplicity
  _atom_site_fract_x
  _atom_site_fract_y
  _atom_site_fract_z
  _atom_site_occupancy
  Fe  Fe1       1.0  0.09287  0.12198  0.13545  1.0000
  S   S1        1.0  0.08355  0.11200  0.17905  1.0000
  S   S2        1.0  0.07689  0.10990  0.10168  1.0000
  Fe  Fe2       1.0  0.13222  0.15055  0.14558  1.0000
  S   S3        1.0  0.12500  0.14342  0.19002  1.0000
  S   S4        1.0  0.16534  0.16597  0.12570  1.0000
  Fe  Fe3       1.0  0.12321  0.10597  0.18273  1.0000
  S   S5        1.0  0.14108  0.07285  0.20657  1.0000
  Fe  Fe4       1.0  0.08611  0.15039  0.18275  1.0000
  S   S6        1.0  0.05522  0.16696  0.20972  1.0000
  S   S7        1.0  0.13249  0.11251  0.13873  1.0000
  S   S8        1.0  0.09340  0.16098  0.13861  1.0000
  H   H1        1.0  0.02966  0.15578  0.08400  1.0000
  Fe  Fe5       1.0  0.21797  0.27376  0.15363  1.0000
  S   S9        1.0  0.22705  0.25290  0.19281  1.0000
  S   S10       1.0  0.18332  0.27029  0.13808  1.0000
  Fe  Fe6       1.0  0.26143  0.30142  0.14729  1.0000
  S   S11       1.0  0.27357  0.28255  0.18580  1.0000
  H   H2        1.0  0.37657  0.18670  0.22154  1.0000
  Fe  Fe7       1.0  0.26496  0.24918  0.17298  1.0000
  S   S12       1.0  0.29210  0.21573  0.17226  1.0000
  Fe  Fe8       1.0  0.23450  0.28837  0.20161  1.0000
  S   S13       1.0  0.47496  0.98767  0.43032  1.0000
  S   S14       1.0  0.25533  0.26755  0.13295  1.0000
  S   S15       1.0  0.22287  0.30959  0.16392  1.0000
  Fe  Fe9       1.0  0.26860  0.13217  0.29681  1.0000
  S   S16       1.0  0.26021  0.09701  0.31904  1.0000
  S   S17       1.0  0.30334  0.13466  0.27063  1.0000
  Fe  Fe10      1.0  0.22302  0.15927  0.31992  1.0000
  S   S18       1.0  0.21024  0.12652  0.34474  1.0000
  S   S19       1.0  0.20775  0.19823  0.31705  1.0000
  Fe  Fe11      1.0  0.24855  0.11709  0.35383  1.0000
  S   S20       1.0  0.26064  0.09886  0.39293  1.0000
  Fe  Fe12      1.0  0.22270  0.10890  0.30791  1.0000
  S   S21       1.0  0.20451  0.07909  0.29833  1.0000
  S   S22       1.0  0.26002  0.15132  0.33254  1.0000
  S   S23       1.0  0.23228  0.14241  0.28233  1.0000
  C   C1        1.0  0.06046  0.00587  0.22649  1.0000
  S   S24       1.0  0.08475  0.28502  0.34299  1.0000
  H   H3        1.0  0.38672  0.11098  0.30145  1.0000
  Fe  Fe13      1.0  0.05397  0.27478  0.28303  1.0000
  S   S25       1.0  0.09344  0.26433  0.28529  1.0000
  S   S26       1.0  0.03743  0.27016  0.24672  1.0000
  Fe  Fe14      1.0  0.08197  0.25084  0.32779  1.0000
  S   S27       1.0  0.09625  0.21517  0.34857  1.0000
  Fe  Fe15      1.0  0.04588  0.29401  0.33685  1.0000
  C   C2        1.0  0.11010  0.12045  0.39506  1.0000
  S   S28       1.0  0.04245  0.25858  0.32457  1.0000
  C   C3        1.0  0.02911  0.17328  0.14467  1.0000
  C   C4        1.0  0.15273  0.28736  0.33872  1.0000
  Fe  Fe16      1.0  0.41609  0.10732  0.41893  1.0000
  S   S29       1.0  0.40173  0.14312  0.43199  1.0000
  S   S30       1.0  0.43148  0.10535  0.37636  1.0000
  H   H4        1.0  0.17050  0.19990  0.26648  1.0000
  H   H5        1.0  0.38434  0.02411  0.28611  1.0000
  S   S31       1.0  0.22397  0.30549  0.23899  1.0000
  S   S32       1.0  0.38320  0.09050  0.43519  1.0000
  H   H6        1.0  0.40620  0.08432  0.33741  1.0000
  C   C5        1.0  0.10210  0.05095  0.13289  1.0000
  C   C6        1.0  0.34897  0.27193  0.28221  1.0000
  C   C7        1.0  0.08527  0.99780  0.22483  1.0000
  H   H7        1.0  0.32865  0.04901  0.43625  1.0000
  S   S33       1.0  0.01982  0.31295  0.36658  1.0000
  C   C8        1.0  0.46086  0.02916  0.35913  1.0000
  H   H8        1.0  0.05764  0.14938  0.27107  1.0000
  S   S34       1.0  0.05294  0.31138  0.29488  1.0000
  H   H9        1.0  0.06033  0.28898  0.39434  1.0000
  C   C9        1.0  0.17701  0.20308  0.32732  1.0000
  C   C10       1.0  0.16536  0.18465  0.34210  1.0000
  C   C11       1.0  0.14057  0.18870  0.34957  1.0000
  C   C12       1.0  0.12744  0.21100  0.34189  1.0000
  C   C13       1.0  0.13918  0.22960  0.32775  1.0000
  C   C14       1.0  0.16399  0.22572  0.32063  1.0000
  H   H10       1.0  0.17535  0.16730  0.34772  1.0000
  H   H11       1.0  0.13144  0.17453  0.36088  1.0000
  H   H12       1.0  0.12910  0.24689  0.32189  1.0000
  H   H13       1.0  0.17288  0.24012  0.30938  1.0000
  C   C15       1.0  0.28166  0.11270  0.40551  1.0000
  C   C16       1.0  0.28082  0.13768  0.40193  1.0000
  C   C17       1.0  0.29690  0.14819  0.41376  1.0000
  C   C18       1.0  0.31441  0.13375  0.42837  1.0000
  C   C19       1.0  0.31567  0.10877  0.43122  1.0000
  C   C20       1.0  0.29908  0.09835  0.42014  1.0000
  H   H14       1.0  0.26734  0.14887  0.39074  1.0000
  H   H15       1.0  0.29572  0.16751  0.41173  1.0000
  H   H16       1.0  0.32901  0.09753  0.44253  1.0000
  H   H17       1.0  0.29981  0.07915  0.42255  1.0000
  H   H18       1.0  0.28631  0.04890  0.40014  1.0000
  H   H19       1.0  0.32715  0.24078  0.35191  1.0000
  C   C21       1.0  0.33320  0.24951  0.33244  1.0000
  C   C22       1.0  0.05239  0.27187  0.03221  1.0000
  C   C23       1.0  0.15378  0.29859  0.26400  1.0000
  C   C24       1.0  0.17781  0.29375  0.25262  1.0000
  H   H20       1.0  0.14178  0.28528  0.26552  1.0000
  H   H21       1.0  0.18434  0.27667  0.24556  1.0000
  C   C25       1.0  0.29451  0.19383  0.20024  1.0000
  C   C26       1.0  0.31258  0.17413  0.19872  1.0000
  C   C27       1.0  0.31544  0.15633  0.22060  1.0000
  C   C28       1.0  0.29990  0.15783  0.24397  1.0000
  C   C29       1.0  0.28179  0.17755  0.24564  1.0000
  C   C30       1.0  0.27925  0.19571  0.22380  1.0000
  H   H22       1.0  0.32441  0.17265  0.18051  1.0000
  H   H23       1.0  0.32937  0.14112  0.21917  1.0000
  H   H24       1.0  0.26965  0.17868  0.26365  1.0000
  H   H25       1.0  0.26529  0.21090  0.22492  1.0000
  H   H26       1.0  0.13320  0.16915  0.06428  1.0000
  H   H27       1.0  0.10159  0.10272  0.22970  1.0000
  H   H28       1.0  0.40214  0.02651  0.40903  1.0000
  C   C31       1.0  0.36474  0.26567  0.30180  1.0000
  H   H29       1.0  0.04917  0.19231  0.07016  1.0000
  C   C32       1.0  0.05346  0.19654  0.21705  1.0000
  C   C33       1.0  0.03456  0.21367  0.20841  1.0000
  C   C34       1.0  0.03017  0.23625  0.21729  1.0000
  C   C35       1.0  0.04385  0.24156  0.23595  1.0000
  C   C36       1.0  0.06232  0.22420  0.24533  1.0000
  C   C37       1.0  0.06757  0.20196  0.23533  1.0000
  H   H30       1.0  0.02288  0.20932  0.19527  1.0000
  C   C38       1.0  0.36068  0.98996  0.38702  1.0000
  H   H31       1.0  0.07230  0.22775  0.26055  1.0000
  H   H32       1.0  0.08159  0.18850  0.24294  1.0000
  C   C39       1.0  0.15859  0.07626  0.23160  1.0000
  C   C40       1.0  0.16633  0.09812  0.23380  1.0000
  C   C41       1.0  0.18058  0.09954  0.25409  1.0000
  C   C42       1.0  0.18689  0.07915  0.27224  1.0000
  C   C43       1.0  0.17906  0.05750  0.26987  1.0000
  C   C44       1.0  0.16515  0.05603  0.24965  1.0000
  H   H33       1.0  0.16177  0.11377  0.21967  1.0000
  H   H34       1.0  0.18672  0.11628  0.25559  1.0000
  H   H35       1.0  0.18387  0.04166  0.28375  1.0000
  H   H36       1.0  0.15936  0.03909  0.24809  1.0000
  C   C45       1.0  0.17031  0.19414  0.13219  1.0000
  C   C46       1.0  0.15130  0.21087  0.14098  1.0000
  C   C47       1.0  0.15540  0.23419  0.14319  1.0000
  C   C48       1.0  0.17870  0.24050  0.13766  1.0000
  C   C49       1.0  0.19790  0.22330  0.13038  1.0000
  C   C50       1.0  0.19364  0.20031  0.12717  1.0000
  H   H37       1.0  0.13336  0.20607  0.14499  1.0000
  H   H38       1.0  0.14050  0.24731  0.14910  1.0000
  H   H39       1.0  0.21591  0.22803  0.12616  1.0000
  H   H40       1.0  0.20844  0.18733  0.12059  1.0000
  C   C51       1.0  0.05240  0.09313  0.10474  1.0000
  C   C52       1.0  0.04841  0.08240  0.08295  1.0000
  C   C53       1.0  0.02935  0.06873  0.08464  1.0000
  C   C54       1.0  0.01376  0.06593  0.10809  1.0000
  C   C55       1.0  0.01752  0.07702  0.12972  1.0000
  C   C56       1.0  0.03678  0.09040  0.12814  1.0000
  H   H41       1.0  0.06032  0.08447  0.06471  1.0000
  H   H42       1.0  0.03651  0.11264  0.26515  1.0000
  C   C57       1.0  0.19345  0.31089  0.25109  1.0000
  H   H43       1.0  0.03953  0.09872  0.14491  1.0000
  H   H44       1.0  0.23002  0.20630  0.45357  1.0000
  C   C58       1.0  0.26214  0.08988  0.24991  1.0000
  C   C59       1.0  0.28715  0.08695  0.24471  1.0000
  C   C60       1.0  0.29795  0.09710  0.22040  1.0000
  C   C61       1.0  0.28374  0.10999  0.20117  1.0000
  C   C62       1.0  0.25855  0.11295  0.20629  1.0000
  C   C63       1.0  0.24795  0.10330  0.23107  1.0000
  P   P1        1.0  0.23978  0.13025  0.18223  1.0000
  C   C64       1.0  0.25832  0.14291  0.15378  1.0000
  C   C65       1.0  0.22080  0.11210  0.17057  1.0000
  C   C66       1.0  0.21073  0.12022  0.14661  1.0000
  C   C67       1.0  0.19589  0.10662  0.13728  1.0000
  C   C68       1.0  0.19088  0.08480  0.15181  1.0000
  C   C69       1.0  0.20091  0.07648  0.17555  1.0000
  C   C70       1.0  0.21586  0.08998  0.18490  1.0000
  C   C71       1.0  0.26298  0.16676  0.15131  1.0000
  C   C72       1.0  0.27721  0.17630  0.12907  1.0000
  C   C73       1.0  0.28703  0.16215  0.10925  1.0000
  C   C74       1.0  0.28268  0.13835  0.11166  1.0000
  C   C75       1.0  0.26844  0.12872  0.13388  1.0000
  C   C76       1.0  0.22200  0.15475  0.19744  1.0000
  C   C77       1.0  0.23168  0.16512  0.21609  1.0000
  C   C78       1.0  0.21939  0.18576  0.22592  1.0000
  C   C79       1.0  0.19758  0.19642  0.21683  1.0000
  C   C80       1.0  0.18744  0.18586  0.19883  1.0000
  C   C81       1.0  0.19956  0.16502  0.18920  1.0000
  H   H45       1.0  0.25363  0.08215  0.26873  1.0000
  H   H46       1.0  0.29814  0.07744  0.25982  1.0000
  H   H47       1.0  0.31733  0.09552  0.21673  1.0000
  H   H48       1.0  0.29251  0.11807  0.18273  1.0000
  H   H49       1.0  0.22865  0.10623  0.23592  1.0000
  H   H50       1.0  0.21388  0.13738  0.13534  1.0000
  H   H51       1.0  0.18768  0.11345  0.11915  1.0000
  H   H52       1.0  0.17878  0.07460  0.14503  1.0000
  H   H53       1.0  0.19649  0.05985  0.18716  1.0000
  H   H54       1.0  0.22306  0.08303  0.20344  1.0000
  H   H55       1.0  0.25577  0.17818  0.16638  1.0000
  H   H56       1.0  0.28064  0.19475  0.12734  1.0000
  H   H57       1.0  0.29801  0.16969  0.09205  1.0000
  H   H58       1.0  0.29028  0.12739  0.09627  1.0000
  H   H59       1.0  0.26522  0.11025  0.13551  1.0000
  H   H60       1.0  0.24907  0.15764  0.22250  1.0000
  H   H61       1.0  0.22699  0.19373  0.24026  1.0000
  H   H62       1.0  0.18872  0.21291  0.22374  1.0000
  H   H63       1.0  0.17044  0.19407  0.19181  1.0000
  H   H64       1.0  0.19163  0.15747  0.17483  1.0000
  C   C82       1.0  0.32504  0.26738  0.28773  1.0000
  C   C83       1.0  0.31738  0.25568  0.31287  1.0000
  P   P2        1.0  0.30464  0.27762  0.26271  1.0000
  C   C84       1.0  0.27551  0.26773  0.27247  1.0000
  H   H65       1.0  0.09390  0.05311  0.19937  1.0000
  H   H66       1.0  0.02395  0.16765  0.16554  1.0000
  H   H67       1.0  0.37209  0.22132  0.24686  1.0000
  H   H68       1.0  0.07165  0.12288  0.40385  1.0000
  H   H69       1.0  0.27357  0.31078  0.22908  1.0000
  C   C85       1.0  0.38444  0.05624  0.33842  1.0000
  C   C86       1.0  0.26607  0.25355  0.25723  1.0000
  C   C87       1.0  0.24314  0.24693  0.26479  1.0000
  C   C88       1.0  0.22933  0.25465  0.28729  1.0000
  C   C89       1.0  0.23829  0.26921  0.30219  1.0000
  C   C90       1.0  0.26119  0.27590  0.29471  1.0000
  C   C91       1.0  0.31928  0.26660  0.23258  1.0000
  C   C92       1.0  0.32318  0.24186  0.23099  1.0000
  C   C93       1.0  0.33389  0.23335  0.20742  1.0000
  C   C94       1.0  0.34107  0.24939  0.18544  1.0000
  C   C95       1.0  0.33811  0.27396  0.18721  1.0000
  C   C96       1.0  0.32746  0.28253  0.21075  1.0000
  H   H70       1.0  0.22115  0.18890  0.37689  1.0000
  H   H71       1.0  0.29930  0.25130  0.31753  1.0000
  C   C97       1.0  0.08145  0.04142  0.13008  1.0000
  C   C98       1.0  0.44271  0.07599  0.36997  1.0000
  C   C99       1.0  0.35729  0.15939  0.28268  1.0000
  H   H72       1.0  0.27582  0.24815  0.23908  1.0000
  H   H73       1.0  0.23577  0.23624  0.25291  1.0000
  H   H74       1.0  0.21147  0.24978  0.29280  1.0000
  H   H75       1.0  0.22724  0.27565  0.31918  1.0000
  H   H76       1.0  0.26760  0.28775  0.30603  1.0000
  H   H77       1.0  0.31733  0.22918  0.24766  1.0000
  C   C100      1.0  0.01378  0.26417  0.05542  1.0000
  H   H78       1.0  0.34852  0.24281  0.16690  1.0000
  H   H79       1.0  0.34354  0.28648  0.17012  1.0000
  H   H80       1.0  0.32529  0.30162  0.21152  1.0000
  C   C101      1.0  0.11425  0.19677  0.41412  1.0000
  P   P3        1.0  0.04854  0.03311  0.20664  1.0000
  C   C102      1.0  0.12636  0.29263  0.20125  1.0000
  H   H81       1.0  0.16352  0.19589  0.06539  1.0000
  H   H82       1.0  0.15107  0.23555  0.08097  1.0000
  C   C103      1.0  0.39043  0.01211  0.44896  1.0000
  P   P4        1.0  0.34302  0.17588  0.33196  1.0000
  C   C104      1.0  0.31256  0.19176  0.33320  1.0000
  C   C105      1.0  0.34117  0.14467  0.34439  1.0000
  C   C106      1.0  0.35839  0.13100  0.36005  1.0000
  C   C107      1.0  0.35599  0.10725  0.37052  1.0000
  C   C108      1.0  0.33670  0.09685  0.36514  1.0000
  C   C109      1.0  0.32004  0.11001  0.34883  1.0000
  C   C110      1.0  0.32237  0.13378  0.33836  1.0000
  C   C111      1.0  0.30076  0.20015  0.35661  1.0000
  C   C112      1.0  0.27688  0.21123  0.35759  1.0000
  C   C113      1.0  0.26448  0.21401  0.33526  1.0000
  C   C114      1.0  0.27602  0.20593  0.31186  1.0000
  C   C115      1.0  0.29986  0.19479  0.31077  1.0000
  C   C116      1.0  0.36145  0.18662  0.35289  1.0000
  C   C117      1.0  0.35563  0.18362  0.38060  1.0000
  C   C118      1.0  0.36980  0.19129  0.39714  1.0000
  C   C119      1.0  0.39057  0.20112  0.38635  1.0000
  C   C120      1.0  0.39721  0.20317  0.35895  1.0000
  C   C121      1.0  0.38282  0.19584  0.34228  1.0000
  H   H83       1.0  0.37367  0.13848  0.36439  1.0000
  H   H84       1.0  0.36926  0.09689  0.38263  1.0000
  H   H85       1.0  0.33461  0.07865  0.37361  1.0000
  H   H86       1.0  0.30957  0.19801  0.37436  1.0000
  H   H87       1.0  0.26780  0.21724  0.37584  1.0000
  H   H88       1.0  0.24573  0.22188  0.33619  1.0000
  H   H89       1.0  0.26606  0.20738  0.29489  1.0000
  H   H90       1.0  0.34073  0.17433  0.38971  1.0000
  H   H91       1.0  0.36509  0.18864  0.41851  1.0000
  H   H92       1.0  0.40190  0.20635  0.39936  1.0000
  H   H93       1.0  0.41382  0.20996  0.35069  1.0000
  H   H94       1.0  0.38897  0.19678  0.32137  1.0000
  H   H95       1.0  0.00547  0.07523  0.14781  1.0000
  C   C122      1.0  0.12757  0.18677  0.07043  1.0000
  Fe  Fe17      1.0  0.09183  0.29969  0.30007  1.0000
  C   C123      1.0  0.14921  0.26594  0.44006  1.0000
  H   H96       1.0  0.13181  0.29039  0.14633  1.0000
  P   P5        1.0  0.15744  0.24871  0.41258  1.0000
  C   C124      1.0  0.13190  0.23340  0.41211  1.0000
  C   C125      1.0  0.16287  0.26886  0.38242  1.0000
  C   C126      1.0  0.46406  0.04885  0.33969  1.0000
  H   H97       1.0  0.01569  0.24942  0.21020  1.0000
  C   C127      1.0  0.11000  0.27808  0.21578  1.0000
  C   C128      1.0  0.11589  0.30210  0.14039  1.0000
  C   C129      1.0  0.14772  0.27216  0.36224  1.0000
  C   C130      1.0  0.13448  0.20832  0.41307  1.0000
  C   C131      1.0  0.36010  0.00230  0.31163  1.0000
  C   C132      1.0  0.09134  0.21011  0.41437  1.0000
  C   C133      1.0  0.08861  0.23504  0.41354  1.0000
  C   C134      1.0  0.10878  0.24664  0.41251  1.0000
  C   C135      1.0  0.18499  0.22794  0.41438  1.0000
  C   C136      1.0  0.19848  0.22501  0.43609  1.0000
  C   C137      1.0  0.21977  0.20876  0.43666  1.0000
  C   C138      1.0  0.22786  0.19560  0.41548  1.0000
  C   C139      1.0  0.21487  0.19893  0.39349  1.0000
  C   C140      1.0  0.19362  0.21512  0.39288  1.0000
  H   H98       1.0  0.18377  0.21754  0.37567  1.0000
  H   H99       1.0  0.40725  0.00554  0.34172  1.0000
  H   H100      1.0  0.01985  0.17625  0.26685  1.0000
  C   C141      1.0  0.46683  0.03788  0.45501  1.0000
  H   H101      1.0  0.32918  0.03560  0.38753  1.0000
  C   C142      1.0  0.01911  0.00728  0.18595  1.0000
  H   H102      1.0  0.09787  0.00748  0.21137  1.0000
  C   C143      1.0  0.05771  0.17964  0.32368  1.0000
  C   C144      1.0  0.34568  0.03843  0.43990  1.0000
  C   C145      1.0  0.03008  0.17679  0.28319  1.0000
  H   H103      1.0  0.14638  0.22459  0.22249  1.0000
  H   H104      1.0  0.07089  0.24542  0.41315  1.0000
  H   H105      1.0  0.10635  0.26599  0.41176  1.0000
  C   C146      1.0  0.47994  0.05331  0.43716  1.0000
  C   C147      1.0  0.14201  0.29090  0.43539  1.0000
  H   H106      1.0  0.24422  0.18286  0.41607  1.0000
  C   C148      1.0  0.12922  0.12310  0.37520  1.0000
  C   C149      1.0  0.14467  0.20187  0.07093  1.0000
  C   C150      1.0  0.13762  0.22420  0.07982  1.0000
  H   H107      1.0  0.06841  0.18138  0.33913  1.0000
  H   H108      1.0  0.39298  0.04533  0.35470  1.0000
  H   H109      1.0  0.35527  0.28079  0.26287  1.0000
  H   H110      1.0  0.13224  0.26281  0.36434  1.0000
  C   C151      1.0  0.03828  0.09740  0.25428  1.0000
  H   H111      1.0  0.17784  0.15568  0.26838  1.0000
  H   H112      1.0  0.06479  0.31795  0.20036  1.0000
  H   H113      1.0  0.45573  0.14400  0.39050  1.0000
  C   C152      1.0  0.39208  0.07846  0.32870  1.0000
  H   H114      1.0  0.11432  0.05590  0.11553  1.0000
  H   H115      1.0  0.36616  0.14736  0.24428  1.0000
  H   H116      1.0  0.19281  0.23526  0.45247  1.0000
  C   C153      1.0  0.06508  0.03603  0.15225  1.0000
  C   C154      1.0  0.11352  0.23127  0.08859  1.0000
  C   C155      1.0  0.14109  0.15112  0.28278  1.0000
  H   H117      1.0  0.02559  0.99879  0.24617  1.0000
  H   H118      1.0  0.30791  0.18781  0.29264  1.0000
  H   H119      1.0  0.10852  0.24838  0.09597  1.0000
  C   C156      1.0  0.06595  0.16296  0.30579  1.0000
  H   H120      1.0  0.04411  0.20338  0.15242  1.0000
  H   H121      1.0  0.33594  0.21436  0.20586  1.0000
  C   C157      1.0  0.35678  0.25469  0.32699  1.0000
  H   H122      1.0  0.03471  0.99370  0.18430  1.0000
  C   C158      1.0  0.05178  0.16151  0.28564  1.0000
  H   H123      1.0  0.07578  0.20125  0.41425  1.0000
  C   C159      1.0  0.28979  0.00095  0.47181  1.0000
  C   C160      1.0  0.03973  0.08165  0.21266  1.0000
  C   C161      1.0  0.10339  0.19389  0.07892  1.0000
  H   H124      1.0  0.09660  0.19731  0.29469  1.0000
  H   H125      1.0  0.35219  0.14229  0.29187  1.0000
  H   H126      1.0  0.09686  0.09339  0.32782  1.0000
  C   C162      1.0  0.02226  0.19356  0.30085  1.0000
  C   C163      1.0  0.08648  0.12510  0.38848  1.0000
  C   C164      1.0  0.09619  0.21608  0.08849  1.0000
  H   H127      1.0  0.03994  0.27228  0.11528  1.0000
  C   C165      1.0  0.05219  0.27585  0.15216  1.0000
  H   H128      1.0  0.30509  0.10192  0.34462  1.0000
  H   H129      1.0  0.30967  0.14361  0.32533  1.0000
  H   H130      1.0  0.47390  0.04606  0.32061  1.0000
  H   H131      1.0  0.44462  0.01780  0.39837  1.0000
  H   H132      1.0  0.11707  0.28663  0.10445  1.0000
  C   C166      1.0  0.09022  0.04958  0.18018  1.0000
  C   C167      1.0  0.04357  0.18725  0.09102  1.0000
  C   C168      1.0  0.38093  0.09363  0.30845  1.0000
  H   H133      1.0  0.17584  0.25033  0.19768  1.0000
  H   H134      1.0  0.00965  0.99945  0.99019  1.0000
  C   C169      1.0  0.15987  0.16459  0.27352  1.0000
  C   C170      1.0  0.05149  0.26396  0.13031  1.0000
  C   C171      1.0  0.29202  0.04235  0.38124  1.0000
  C   C172      1.0  0.04064  0.19368  0.13708  1.0000
  H   H135      1.0  0.09079  0.18151  0.07881  1.0000
  H   H136      1.0  0.14480  0.13170  0.28464  1.0000
  H   H137      1.0  0.36889  0.25011  0.34230  1.0000
  H   H138      1.0  0.38307  0.26960  0.29750  1.0000
  C   C173      1.0  0.36820  0.20396  0.25694  1.0000
  C   C174      1.0  0.35516  0.17874  0.29733  1.0000
  C   C175      1.0  0.02730  0.27556  0.03377  1.0000
  C   C176      1.0  0.36508  0.16226  0.25550  1.0000
  H   H139      1.0  0.35708  0.21670  0.29452  1.0000
  H   H140      1.0  0.04375  0.07111  0.28863  1.0000
  P   P6        1.0  0.35563  0.02003  0.33866  1.0000
  C   C177      1.0  0.04403  0.05808  0.22565  1.0000
  Fe  Fe18      1.0  0.36979  0.12550  0.45061  1.0000
  H   H141      1.0  0.01461  0.24036  0.09219  1.0000
  C   C178      1.0  0.13263  0.20119  0.27844  1.0000
  H   H142      1.0  0.04116  0.29298  0.15399  1.0000
  H   H143      1.0  0.25634  0.04911  0.36909  1.0000
  H   H144      1.0  0.01834  0.28719  0.01815  1.0000
  C   C179      1.0  0.10660  0.05477  0.15796  1.0000
  C   C180      1.0  0.02533  0.24906  0.07550  1.0000
  Fe  Fe19      1.0  0.98998  0.98597  0.04826  1.0000
  H   H145      1.0  0.14110  0.28961  0.32307  1.0000
  C   C181      1.0  0.25605  0.02225  0.44924  1.0000
  H   H146      1.0  0.02667  0.06043  0.06779  1.0000
  C   C182      1.0  0.03228  0.16671  0.09871  1.0000
  C   C183      1.0  0.13255  0.30371  0.45652  1.0000
  H   H147      1.0  0.24039  0.02206  0.43920  1.0000
  C   C184      1.0  0.08096  0.24325  0.16991  1.0000
  P   P7        1.0  0.06513  0.22575  0.10018  1.0000
  C   C185      1.0  0.06546  0.24150  0.12824  1.0000
  C   C186      1.0  0.06930  0.04013  0.17755  1.0000
  C   C187      1.0  0.34864  0.02448  0.46462  1.0000
  C   C188      1.0  0.35992  0.20124  0.28400  1.0000
  H   H148      1.0  0.35271  0.09880  0.28277  1.0000
  H   H149      1.0  0.00030  0.06237  0.20594  1.0000
  C   C189      1.0  0.11738  0.25368  0.22347  1.0000
  C   C190      1.0  0.43870  0.05629  0.38904  1.0000
  C   C191      1.0  0.10105  0.13592  0.34207  1.0000
  C   C192      1.0  0.04854  0.20049  0.11022  1.0000
  C   C193      1.0  0.08019  0.23126  0.14822  1.0000
  C   C194      1.0  0.15571  0.18957  0.27190  1.0000
  H   H150      1.0  0.09079  0.21379  0.14725  1.0000
  C   C195      1.0  0.05410  0.30591  0.40170  1.0000
  C   C196      1.0  0.09716  0.11874  0.29159  1.0000
  C   C197      1.0  0.06691  0.26550  0.17192  1.0000
  C   C198      1.0  0.14105  0.24363  0.21709  1.0000
  C   C199      1.0  0.06400  0.25678  0.05227  1.0000
  C   C200      1.0  0.03684  0.10121  0.22693  1.0000
  H   H151      1.0  0.12951  0.22055  0.27733  1.0000
  C   C201      1.0  0.09884  0.12105  0.26380  1.0000
  H   H152      1.0  0.09202  0.23499  0.18549  1.0000
  C   C202      1.0  0.27508  0.04243  0.36371  1.0000
  P   P8        1.0  0.09525  0.14509  0.30781  1.0000
  C   C203      1.0  0.09995  0.07543  0.29344  1.0000
  C   C204      1.0  0.08196  0.13259  0.36207  1.0000
  C   C205      1.0  0.11811  0.16263  0.29100  1.0000
  C   C206      1.0  0.28309  0.04444  0.46528  1.0000
  H   H153      1.0  0.08081  0.30096  0.42930  1.0000
  C   C207      1.0  0.09771  0.09577  0.30639  1.0000
  C   C208      1.0  0.06555  0.31258  0.42167  1.0000
  H   H154      1.0  0.45816  0.08744  0.33030  1.0000
  S   S35       1.0  0.33375  0.14734  0.44385  1.0000
  S   S36       1.0  0.47341  0.00007  0.35260  1.0000
  H   H155      1.0  0.10341  0.06228  0.25554  1.0000
  C   C209      1.0  0.37075  0.18446  0.24267  1.0000
  H   H156      1.0  0.06288  0.28061  0.01535  1.0000
  H   H157      1.0  0.06696  0.27439  0.18917  1.0000
  C   C210      1.0  0.03596  0.19480  0.32126  1.0000
  H   H158      1.0  0.06357  0.13573  0.35730  1.0000
  C   C211      1.0  0.05053  0.24523  0.07405  1.0000
  S   S37       1.0  0.43545  0.09453  0.45503  1.0000
  C   C212      1.0  0.02039  0.02842  0.19650  1.0000
  C   C213      1.0  0.26285  0.04411  0.45244  1.0000
  H   H159      1.0  0.11637  0.17753  0.41401  1.0000
  H   H160      1.0  0.19485  0.27881  0.39433  1.0000
  C   C214      1.0  0.31632  0.03481  0.37399  1.0000
  H   H161      1.0  0.11362  0.11467  0.41551  1.0000
  C   C215      1.0  0.36194  0.08671  0.29790  1.0000
  C   C216      1.0  0.11394  0.18783  0.28830  1.0000
  C   C217      1.0  0.44791  0.03292  0.38366  1.0000
  C   C218      1.0  0.38727  0.02596  0.42444  1.0000
  H   H162      1.0  0.09145  0.28521  0.22084  1.0000
  H   H163      1.0  0.03890  0.08490  0.19139  1.0000
  H   H164      1.0  0.12263  0.06214  0.16012  1.0000
  H   H165      1.0  0.44980  0.03399  0.45041  1.0000
  C   C219      1.0  0.10041  0.10077  0.25108  1.0000
  Fe  Fe20      1.0  0.41769  0.12856  0.47002  1.0000
  H   H166      1.0  0.33964  0.05938  0.29893  1.0000
  H   H167      1.0  0.10464  0.24244  0.23408  1.0000
  C   C220      1.0  0.10127  0.07796  0.26577  1.0000
  C   C221      1.0  0.12475  0.13068  0.34881  1.0000
  H   H168      1.0  0.42879  0.05908  0.40811  1.0000
  H   H169      1.0  0.40794  0.00236  0.45282  1.0000
  H   H170      1.0  0.14759  0.11940  0.38017  1.0000
  C   C222      1.0  0.35446  0.06438  0.30726  1.0000
  H   H171      1.0  0.13992  0.13260  0.33390  1.0000
  H   H172      1.0  0.25261  0.06092  0.44467  1.0000
  H   H173      1.0  0.15197  0.19755  0.41288  1.0000
  H   H174      1.0  0.10105  0.05770  0.30481  1.0000
  C   C223      1.0  0.45524  0.07224  0.34520  1.0000
  C   C224      1.0  0.36584  0.04880  0.32736  1.0000
  C   C225      1.0  0.04532  0.05437  0.25322  1.0000
  C   C226      1.0  0.02519  0.15965  0.12553  1.0000
  H   H175      1.0  0.03010  0.20795  0.33483  1.0000
  H   H176      1.0  0.04893  0.02945  0.14913  1.0000
  C   C227      1.0  0.32392  0.02695  0.34921  1.0000
  H   H177      1.0  0.04883  0.03646  0.26379  1.0000
  H   H178      1.0  0.14281  0.30049  0.41545  1.0000
  H   H179      1.0  0.03401  0.11941  0.21667  1.0000
  H   H180      1.0  0.00585  0.20591  0.29839  1.0000
  H   H181      1.0  0.16336  0.29300  0.18397  1.0000
  C   C228      1.0  0.15035  0.28247  0.19556  1.0000
  H   H182      1.0  0.08344  0.25410  0.05057  1.0000
  H   H183      1.0  0.32242  0.31610  0.28526  1.0000
  C   C229      1.0  0.15759  0.25809  0.20337  1.0000
  H   H184      1.0  0.09890  0.13853  0.25190  1.0000
  C   C230      1.0  0.04240  0.07400  0.26745  1.0000
  Fe  Fe21      1.0  0.40117  0.08063  0.47265  1.0000
  C   C231      1.0  0.26947  0.00068  0.45899  1.0000
  C   C232      1.0  0.99996  0.04588  0.19803  1.0000
  C   C233      1.0  0.47034  0.15041  0.42517  1.0000
  C   C234      1.0  0.29878  0.31005  0.25752  1.0000
  C   C235      1.0  0.37129  0.01160  0.46910  1.0000
  H   H185      1.0  0.28802  0.06166  0.46735  1.0000
  C   C236      1.0  0.36500  0.03929  0.41996  1.0000
  H   H186      1.0  0.01702  0.14338  0.13147  1.0000
  H   H187      1.0  0.36295  0.05061  0.40123  1.0000
  H   H188      1.0  0.07766  0.03901  0.11052  1.0000
  H   H189      1.0  0.17671  0.31106  0.31694  1.0000
  C   C237      1.0  0.18296  0.28114  0.37891  1.0000
  H   H190      1.0  0.39003  0.99927  0.24975  1.0000
  C   C238      1.0  0.17280  0.29944  0.33527  1.0000
  C   C239      1.0  0.37851  0.99437  0.26771  1.0000
  C   C240      1.0  0.28243  0.03478  0.33890  1.0000
  H   H191      1.0  0.99752  0.98833  0.16685  1.0000
  H   H192      1.0  0.45813  0.16678  0.42763  1.0000
  H   H193      1.0  0.15021  0.23464  0.46996  1.0000
  C   C241      1.0  0.46904  0.13761  0.40430  1.0000
  C   C242      1.0  0.04477  0.99277  0.24438  1.0000
  C   C243      1.0  0.18783  0.29647  0.35543  1.0000
  H   H194      1.0  0.47306  0.06124  0.41863  1.0000
  C   C244      1.0  0.30677  0.02718  0.33157  1.0000
  C   C245      1.0  0.37244  0.00179  0.36404  1.0000
  C   C246      1.0  0.37510  0.00851  0.28835  1.0000
  C   C247      1.0  0.10759  0.29999  0.11645  1.0000
  C   C248      1.0  0.39767  0.99748  0.35972  1.0000
  S   S38       1.0  0.99315  0.02547  0.03889  1.0000
  H   H195      1.0  0.34130  0.99181  0.39042  1.0000
  H   H196      1.0  0.99433  0.26698  0.05661  1.0000
  H   H197      1.0  0.48192  0.10574  0.38635  1.0000
  C   C249      1.0  0.99807  0.00411  0.17614  1.0000
  S   S39       1.0  0.98934  0.04896  0.11144  1.0000
  H   H198      1.0  0.26927  0.03543  0.32510  1.0000
  C   C250      1.0  0.14613  0.25402  0.46610  1.0000
  H   H199      1.0  0.20329  0.30598  0.35275  1.0000
  H   H200      1.0  0.31213  0.02219  0.31188  1.0000
  H   H201      1.0  0.08115  0.31370  0.08929  1.0000
  C   C251      1.0  0.48411  0.11592  0.40189  1.0000
  C   C252      1.0  0.08753  0.31536  0.10788  1.0000
  C   C253      1.0  0.38567  0.13851  0.54753  1.0000
  C   C254      1.0  0.38006  0.00739  0.56311  1.0000
  H   H202      1.0  0.37999  0.02204  0.65051  1.0000
  C   C255      1.0  0.45424  1.00000  0.69966  1.0000
  H   H203      1.0  0.48198  0.01607  0.62724  1.0000
  H   H204      1.0  0.48289  0.27029  0.93802  1.0000
  C   C256      1.0  0.13691  0.26695  0.48722  1.0000
  C   C257      1.0  0.44881  0.98804  0.67970  1.0000
  H   H205      1.0  0.47148  0.22010  0.59333  1.0000
  C   C258      1.0  0.38969  0.03688  0.52529  1.0000
  H   H206      1.0  0.28648  0.04169  0.53028  1.0000
  C   C259      1.0  0.30572  0.09612  0.52372  1.0000
  C   C260      1.0  0.39218  0.01322  0.53794  1.0000
  C   C261      1.0  0.46714  0.11184  0.51022  1.0000
  H   H207      1.0  0.44734  0.05372  0.51355  1.0000
  C   C262      1.0  0.40351  0.12421  0.56151  1.0000
  C   C263      1.0  0.99042  0.99364  0.86169  1.0000
  H   H208      1.0  0.45630  0.10074  0.50294  1.0000
  H   H209      1.0  0.42553  0.08395  0.54028  1.0000
  C   C264      1.0  0.00940  0.98900  0.84198  1.0000
  H   H210      1.0  0.01955  0.98540  0.80061  1.0000
  H   H211      1.0  0.44707  0.99513  0.72005  1.0000
  C   C265      1.0  0.47456  0.15103  0.51730  1.0000
  C   C266      1.0  0.36511  0.02518  0.57571  1.0000
  H   H212      1.0  0.47012  0.01624  0.53544  1.0000
  C   C267      1.0  0.29188  0.07770  0.53309  1.0000
  H   H213      1.0  0.42284  0.05523  0.69366  1.0000
  C   C268      1.0  0.04426  0.98618  0.93327  1.0000
  H   H214      1.0  0.11772  0.02371  0.87774  1.0000
  H   H215      1.0  0.38186  0.98898  0.57247  1.0000
  C   C269      1.0  0.47581  0.02712  0.47866  1.0000
  H   H216      1.0  0.39674  0.02432  0.69227  1.0000
  C   C270      1.0  0.46033  0.13680  0.50797  1.0000
  S   S40       1.0  0.35008  0.01778  0.60738  1.0000
  C   C271      1.0  0.33227  0.06984  0.49615  1.0000
  H   H217      1.0  0.13445  0.25766  0.50726  1.0000
  H   H218      1.0  0.99430  0.03493  0.95942  1.0000
  H   H219      1.0  0.39013  0.04927  0.61011  1.0000
  C   C272      1.0  0.31822  0.05135  0.50513  1.0000
  H   H220      1.0  0.45397  0.30768  0.94059  1.0000
  H   H221      1.0  0.30086  0.11348  0.53067  1.0000
  H   H222      1.0  0.33596  0.10679  0.49737  1.0000
  H   H223      1.0  0.08246  0.01052  0.90628  1.0000
  H   H224      1.0  0.43267  0.08322  0.65367  1.0000
  H   H225      1.0  0.37278  0.07314  0.52829  1.0000
  H   H226      1.0  0.14768  0.99418  0.85574  1.0000
  H   H227      1.0  0.00439  0.30095  0.55887  1.0000
  H   H228      1.0  0.34805  0.14520  0.54212  1.0000
  H   H229      1.0  0.47354  0.08622  0.58239  1.0000
  H   H230      1.0  0.40340  0.99930  0.52818  1.0000
  C   C273      1.0  0.36175  0.13446  0.55344  1.0000
  C   C274      1.0  0.47376  0.01195  0.64728  1.0000
  C   C275      1.0  0.13211  0.98834  0.86816  1.0000
  C   C276      1.0  0.48291  0.11651  0.59689  1.0000
  H   H231      1.0  0.46396  0.20100  0.63994  1.0000
  C   C277      1.0  0.01695  0.02337  0.92510  1.0000
  H   H232      1.0  0.47065  0.00966  0.58389  1.0000
  C   C278      1.0  0.00812  0.02132  0.95202  1.0000
  C   C279      1.0  0.01680  0.00142  0.96940  1.0000
  C   C280      1.0  0.45832  0.99424  0.65335  1.0000
  H   H233      1.0  0.35039  0.06262  0.57250  1.0000
  C   C281      1.0  0.03476  0.00574  0.91569  1.0000
  C   C282      1.0  0.29786  0.05554  0.52352  1.0000
  H   H234      1.0  0.47257  0.02764  0.70890  1.0000
  C   C283      1.0  0.46874  0.01832  0.69337  1.0000
  S   S41       1.0  0.43532  0.15130  0.49186  1.0000
  C   C284      1.0  0.37475  0.05481  0.53785  1.0000
  C   C285      1.0  0.47873  0.02418  0.66722  1.0000
  C   C286      1.0  0.32955  0.99770  0.51510  1.0000
  C   C287      1.0  0.36219  0.04888  0.56292  1.0000
  C   C288      1.0  0.35564  0.11624  0.57358  1.0000
  H   H235      1.0  0.33716  0.11285  0.57797  1.0000
  H   H236      1.0  0.39058  0.15230  0.53155  1.0000
  C   C289      1.0  0.47126  0.30605  0.94810  1.0000
  C   C290      1.0  0.48189  0.19860  0.62950  1.0000
  H   H237      1.0  0.32161  0.01697  0.54950  1.0000
  C   C291      1.0  0.37344  0.10201  0.58778  1.0000
  C   C292      1.0  0.39757  0.10582  0.58177  1.0000
  S   S42       1.0  0.40533  0.04301  0.49369  1.0000
  P   P9        1.0  0.42130  0.08664  0.59822  1.0000
  C   C293      1.0  0.43596  0.06442  0.57774  1.0000
  C   C294      1.0  0.44259  0.10553  0.60353  1.0000
  C   C295      1.0  0.46688  0.10118  0.59337  1.0000
  H   H238      1.0  0.12232  0.30178  0.49862  1.0000
  C   C296      1.0  0.13008  0.29178  0.48241  1.0000
  C   C297      1.0  0.45079  0.14064  0.62080  1.0000
  C   C298      1.0  0.43463  0.12543  0.61717  1.0000
  C   C299      1.0  0.44871  0.04331  0.58973  1.0000
  C   C300      1.0  0.46090  0.02598  0.57446  1.0000
  C   C301      1.0  0.46058  0.02976  0.54702  1.0000
  C   C302      1.0  0.44786  0.05075  0.53484  1.0000
  C   C303      1.0  0.43543  0.06801  0.55014  1.0000
  C   C304      1.0  0.41077  0.06959  0.62913  1.0000
  C   C305      1.0  0.39635  0.05173  0.62853  1.0000
  C   C306      1.0  0.39090  0.03589  0.65137  1.0000
  C   C307      1.0  0.40024  0.03729  0.67490  1.0000
  C   C308      1.0  0.41486  0.05477  0.67567  1.0000
  C   C309      1.0  0.42022  0.07081  0.65288  1.0000
  H   H239      1.0  0.44916  0.04031  0.61096  1.0000
  S   S43       1.0  0.38453  0.11400  0.48998  1.0000
  H   H240      1.0  0.36821  0.08799  0.60312  1.0000
  H   H241      1.0  0.42207  0.12717  0.55600  1.0000
  C   C310      1.0  0.00478  0.98895  0.81585  1.0000
  H   H242      1.0  0.41590  0.12915  0.62488  1.0000
  C   C311      1.0  0.09498  0.99745  0.89641  1.0000
  H   H243      1.0  0.44454  0.15595  0.63133  1.0000
  C   C312      1.0  0.47493  0.13618  0.61062  1.0000
  H   H244      1.0  0.46945  0.17029  0.51554  1.0000
  H   H245      1.0  0.00996  0.03864  0.91157  1.0000
  H   H246      1.0  0.46594  0.01441  0.49177  1.0000
  H   H247      1.0  0.27632  0.08068  0.54749  1.0000
  C   C313      1.0  0.11514  0.00498  0.88046  1.0000
  H   H248      1.0  0.99448  0.99386  0.88175  1.0000
  H   H249      1.0  0.37460  0.00182  0.48837  1.0000
  H   H250      1.0  0.04112  0.00730  0.89471  1.0000
  C   C314      1.0  0.32572  0.09225  0.50511  1.0000
  P   P10       1.0  0.32368  0.02375  0.49045  1.0000
  H   H251      1.0  0.99078  0.31165  0.60417  1.0000
  H   H252      1.0  0.34810  0.06718  0.48207  1.0000
  C   C315      1.0  0.32649  0.99976  0.54237  1.0000
  C   C316      1.0  0.98546  0.30252  0.56618  1.0000
  H   H253      1.0  0.02775  0.98567  0.84693  1.0000
  C   C317      1.0  0.29685  0.02286  0.47502  1.0000
  Fe  Fe22      1.0  0.42724  0.42507  0.14373  1.0000
  S   S44       1.0  0.44712  0.42137  0.10353  1.0000
  S   S45       1.0  0.43635  0.44752  0.17285  1.0000
  Fe  Fe23      1.0  0.39378  0.38837  0.13962  1.0000
  S   S46       1.0  0.41104  0.38157  0.09897  1.0000
  S   S47       1.0  0.36585  0.36826  0.16572  1.0000
  Fe  Fe24      1.0  0.44610  0.38191  0.11475  1.0000
  C   C318      1.0  0.05700  0.35742  0.24526  1.0000
  Fe  Fe25      1.0  0.41043  0.42170  0.09118  1.0000
  S   S48       1.0  0.40202  0.44238  0.05173  1.0000
  S   S49       1.0  0.42902  0.38539  0.15618  1.0000
  S   S50       1.0  0.39036  0.42870  0.13057  1.0000
  C   C319      1.0  0.00538  0.60541  0.30061  1.0000
  Fe  Fe26      1.0  0.39595  0.61687  0.02180  1.0000
  H   H254      1.0  0.28554  0.37979  0.24434  1.0000
  C   C320      1.0  0.02568  0.34226  0.40245  1.0000
  Fe  Fe27      1.0  0.37063  0.57395  0.02075  1.0000
  C   C321      1.0  0.00870  0.41314  0.38844  1.0000
  S   S51       1.0  0.34897  0.54864  0.04841  1.0000
  C   C322      1.0  0.14089  0.33992  0.17781  1.0000
  P   P11       1.0  0.03668  0.40835  0.33967  1.0000
  S   S52       1.0  0.11597  0.32813  0.28791  1.0000
  S   S53       1.0  0.40714  0.57733  0.03088  1.0000
  S   S54       1.0  0.35832  0.61373  0.01477  1.0000
  H   H255      1.0  0.46595  0.46496  0.20431  1.0000
  H   H256      1.0  0.06077  0.34539  0.11620  1.0000
  H   H257      1.0  0.47142  0.53648  0.20187  1.0000
  H   H258      1.0  0.09430  0.47679  0.28299  1.0000
  S   S55       1.0  0.02912  0.40564  0.45575  1.0000
  H   H259      1.0  0.10697  0.53576  0.43420  1.0000
  Fe  Fe28      1.0  0.05417  0.43320  0.44737  1.0000
  S   S56       1.0  0.05129  0.45899  0.40953  1.0000
  C   C323      1.0  0.05150  0.34123  0.22974  1.0000
  H   H260      1.0  0.37168  0.47174  0.97838  1.0000
  H   H261      1.0  0.09636  0.33498  0.34897  1.0000
  C   C324      1.0  0.02238  0.47553  0.40985  1.0000
  C   C325      1.0  0.01517  0.48973  0.38669  1.0000
  C   C326      1.0  0.47222  0.47022  0.18372  1.0000
  C   C327      1.0  0.00643  0.47464  0.43312  1.0000
  H   H262      1.0  0.02739  0.49055  0.36865  1.0000
  H   H263      1.0  0.06698  0.59679  0.39186  1.0000
  H   H264      1.0  0.01167  0.46328  0.45087  1.0000
  H   H265      1.0  0.08492  0.37478  0.25581  1.0000
  C   C328      1.0  0.48065  0.58505  0.03461  1.0000
  C   C329      1.0  0.07128  0.54701  0.45281  1.0000
  C   C330      1.0  0.42219  0.63658  0.07035  1.0000
  H   H266      1.0  0.20440  0.40016  0.09950  1.0000
  H   H267      1.0  0.02050  0.36148  0.34569  1.0000
  H   H268      1.0  0.99882  0.34239  0.31783  1.0000
  C   C331      1.0  0.17721  0.35167  0.18956  1.0000
  C   C332      1.0  0.44852  0.60655  0.09620  1.0000
  C   C333      1.0  0.43282  0.61277  0.07632  1.0000
  H   H269      1.0  0.03367  0.33595  0.23236  1.0000
  C   C334      1.0  0.33846  0.52558  0.98758  1.0000
  H   H270      1.0  0.32795  0.34262  0.19137  1.0000
  H   H271      1.0  0.45642  0.58808  0.10099  1.0000
  H   H272      1.0  0.42889  0.59918  0.06565  1.0000
  H   H273      1.0  0.02720  0.62556  0.46283  1.0000
  C   C335      1.0  0.46067  0.46413  0.16362  1.0000
  C   C336      1.0  0.99800  0.57052  0.39787  1.0000
  H   H274      1.0  0.19007  0.35061  0.20379  1.0000
  Fe  Fe29      1.0  0.41806  0.57805  0.98736  1.0000
  H   H275      1.0  0.07583  0.34976  0.15808  1.0000
  C   C337      1.0  0.46896  0.47099  0.13699  1.0000
  H   H276      1.0  0.04350  0.36472  0.25996  1.0000
  C   C338      1.0  0.30781  0.33610  0.16080  1.0000
  H   H277      1.0  0.46031  0.46621  0.12134  1.0000
  C   C339      1.0  0.27774  0.34639  0.23483  1.0000
  C   C340      1.0  0.16105  0.33790  0.27102  1.0000
  C   C341      1.0  0.01539  0.37127  0.32702  1.0000
  H   H278      1.0  0.04280  0.52399  0.40810  1.0000
  H   H279      1.0  0.43043  0.39899  0.04167  1.0000
  C   C342      1.0  0.02304  0.56459  0.35677  1.0000
  C   C343      1.0  0.14482  0.35289  0.15239  1.0000
  C   C344      1.0  0.05735  0.33432  0.43173  1.0000
  H   H280      1.0  0.01024  0.35379  0.39520  1.0000
  C   C345      1.0  0.38870  0.47223  0.05272  1.0000
  C   C346      1.0  0.37031  0.47826  0.07257  1.0000
  C   C347      1.0  0.35846  0.50192  0.07157  1.0000
  C   C348      1.0  0.36537  0.51966  0.05117  1.0000
  C   C349      1.0  0.38456  0.51383  0.03214  1.0000
  C   C350      1.0  0.39579  0.49003  0.03253  1.0000
  H   H281      1.0  0.36469  0.46455  0.08811  1.0000
  H   H282      1.0  0.34376  0.50639  0.08639  1.0000
  H   H283      1.0  0.39019  0.52740  0.01645  1.0000
  H   H284      1.0  0.41011  0.48545  0.01724  1.0000
  C   C351      1.0  0.99199  0.50277  0.38676  1.0000
  H   H285      1.0  0.98741  0.41779  0.42592  1.0000
  H   H286      1.0  0.19702  0.37318  0.15879  1.0000
  H   H287      1.0  0.28242  0.63361  0.99606  1.0000
  H   H288      1.0  0.35391  0.36925  0.11172  1.0000
  C   C352      1.0  0.34319  0.35691  0.15265  1.0000
  C   C353      1.0  0.34104  0.36015  0.12541  1.0000
  C   C354      1.0  0.32220  0.35154  0.11592  1.0000
  C   C355      1.0  0.30091  0.39944  0.17718  1.0000
  C   C356      1.0  0.31966  0.40963  0.18420  1.0000
  C   C357      1.0  0.33107  0.42606  0.16576  1.0000
  C   C358      1.0  0.32371  0.43242  0.14029  1.0000
  C   C359      1.0  0.30506  0.42200  0.13293  1.0000
  C   C360      1.0  0.29378  0.40537  0.15163  1.0000
  P   P12       1.0  0.29579  0.43022  0.09985  1.0000
  C   C361      1.0  0.29436  0.46245  0.09194  1.0000
  C   C362      1.0  0.31706  0.41588  0.07560  1.0000
  C   C363      1.0  0.34184  0.41290  0.07766  1.0000
  C   C364      1.0  0.35816  0.40263  0.05824  1.0000
  C   C365      1.0  0.34998  0.39531  0.03662  1.0000
  C   C366      1.0  0.32539  0.39844  0.03422  1.0000
  C   C367      1.0  0.30899  0.40888  0.05347  1.0000
  C   C368      1.0  0.28499  0.47730  0.11148  1.0000
  C   C369      1.0  0.28446  0.50222  0.10578  1.0000
  C   C370      1.0  0.29323  0.51248  0.08055  1.0000
  C   C371      1.0  0.30236  0.49784  0.06097  1.0000
  C   C372      1.0  0.30303  0.47291  0.06659  1.0000
  C   C373      1.0  0.26664  0.42111  0.09936  1.0000
  C   C374      1.0  0.26479  0.39668  0.09997  1.0000
  C   C375      1.0  0.24243  0.38917  0.10018  1.0000
  C   C376      1.0  0.22170  0.40604  0.09943  1.0000
  C   C377      1.0  0.22336  0.43044  0.09856  1.0000
  C   C378      1.0  0.24574  0.43799  0.09855  1.0000
  H   H289      1.0  0.29270  0.38598  0.19108  1.0000
  H   H290      1.0  0.32613  0.40393  0.20347  1.0000
  H   H291      1.0  0.34628  0.43308  0.17095  1.0000
  H   H292      1.0  0.33289  0.44513  0.12623  1.0000
  H   H293      1.0  0.27978  0.39648  0.14669  1.0000
  H   H294      1.0  0.34878  0.41848  0.09408  1.0000
  H   H295      1.0  0.37725  0.40054  0.05982  1.0000
  H   H296      1.0  0.36278  0.38739  0.02168  1.0000
  H   H297      1.0  0.48014  0.62945  0.98237  1.0000
  H   H298      1.0  0.29007  0.41158  0.05087  1.0000
  H   H299      1.0  0.27827  0.46958  0.13117  1.0000
  H   H300      1.0  0.27746  0.51360  0.12096  1.0000
  H   H301      1.0  0.29342  0.53173  0.07620  1.0000
  C   C379      1.0  0.31006  0.32420  0.27100  1.0000
  H   H302      1.0  0.31067  0.46194  0.05124  1.0000
  H   H303      1.0  0.28064  0.38330  0.10066  1.0000
  H   H304      1.0  0.24133  0.37016  0.10104  1.0000
  C   C380      1.0  0.30554  0.33941  0.13356  1.0000
  H   H305      1.0  0.20728  0.44352  0.09790  1.0000
  H   H306      1.0  0.24658  0.45694  0.09788  1.0000
  S   S57       1.0  0.98642  0.60405  0.45748  1.0000
  H   H307      1.0  0.02218  0.60928  0.26026  1.0000
  H   H308      1.0  0.16814  0.37450  0.12582  1.0000
  C   C381      1.0  0.28921  0.36038  0.24805  1.0000
  C   C382      1.0  0.45342  0.62414  0.11031  1.0000
  H   H309      1.0  0.99951  0.58849  0.29900  1.0000
  S   S58       1.0  0.28158  0.32949  0.12114  1.0000
  H   H310      1.0  0.10944  0.34373  0.39050  1.0000
  C   C383      1.0  0.46428  0.64460  0.21012  1.0000
  C   C384      1.0  0.42592  0.63253  0.20596  1.0000
  C   C385      1.0  0.09160  0.49755  0.47121  1.0000
  H   H311      1.0  0.12996  0.43991  0.44802  1.0000
  C   C386      1.0  0.44504  0.38933  0.03010  1.0000
  H   H312      1.0  0.11619  0.35709  0.22412  1.0000
  H   H313      1.0  0.46442  0.33348  0.01343  1.0000
  H   H314      1.0  0.15474  0.35499  0.27815  1.0000
  C   C387      1.0  0.02139  0.39441  0.31863  1.0000
  H   H315      1.0  0.01731  0.42543  0.28849  1.0000
  C   C388      1.0  0.30536  0.34929  0.26612  1.0000
  C   C389      1.0  0.08813  0.35100  0.35753  1.0000
  C   C390      1.0  0.01367  0.40719  0.29487  1.0000
  H   H316      1.0  0.42716  0.52256  0.97631  1.0000
  S   S59       1.0  0.38249  0.57129  0.97753  1.0000
  H   H317      1.0  0.36694  0.63188  0.09810  1.0000
  H   H318      1.0  0.12640  0.32284  0.45276  1.0000
  H   H319      1.0  0.03988  0.49564  0.46644  1.0000
  H   H320      1.0  0.43105  0.35568  0.03971  1.0000
  C   C391      1.0  0.18503  0.33279  0.26058  1.0000
  C   C392      1.0  0.06661  0.42662  0.29637  1.0000
  S   S60       1.0  0.07219  0.34249  0.45651  1.0000
  H   H321      1.0  0.47252  0.58123  0.05476  1.0000
  H   H322      1.0  0.00771  0.54603  0.43240  1.0000
  C   C393      1.0  0.05644  0.45098  0.33225  1.0000
  C   C394      1.0  0.01216  0.55133  0.41131  1.0000
  H   H323      1.0  0.05267  0.53577  0.35979  1.0000
  S   S61       1.0  0.47286  0.61691  0.13536  1.0000
  C   C395      1.0  0.46430  0.35246  0.01382  1.0000
  H   H324      1.0  0.13275  0.35332  0.13755  1.0000
  C   C396      1.0  0.05897  0.38729  0.35642  1.0000
  C   C397      1.0  0.06744  0.39277  0.37907  1.0000
  C   C398      1.0  0.08555  0.37704  0.39130  1.0000
  C   C399      1.0  0.09574  0.35608  0.38068  1.0000
  H   H325      1.0  0.10394  0.56706  0.39528  1.0000
  H   H326      1.0  0.48336  0.39284  0.06585  1.0000
  H   H327      1.0  0.04785  0.45368  0.35195  1.0000
  H   H328      1.0  0.98580  0.36479  0.27541  1.0000
  C   C400      1.0  0.08031  0.36319  0.24286  1.0000
  C   C401      1.0  0.34877  0.50167  0.99336  1.0000
  H   H329      1.0  0.31425  0.36015  0.27637  1.0000
  C   C402      1.0  0.44613  0.63039  0.21960  1.0000
  H   H330      1.0  0.00095  0.45051  0.33067  1.0000
  C   C403      1.0  0.15719  0.33953  0.19632  1.0000
  H   H331      1.0  0.46389  0.42002  0.01851  1.0000
  H   H332      1.0  0.01953  0.39711  0.39668  1.0000
  C   C404      1.0  0.46393  0.40116  0.01707  1.0000
  C   C405      1.0  0.00087  0.39654  0.27931  1.0000
  H   H333      1.0  0.09085  0.44018  0.26358  1.0000
  H   H334      1.0  0.02726  0.56902  0.33560  1.0000
  H   H335      1.0  0.09893  0.46320  0.42075  1.0000
  H   H336      1.0  0.06014  0.40919  0.38734  1.0000
  H   H337      1.0  0.09147  0.38090  0.40927  1.0000
  H   H338      1.0  0.06582  0.41036  0.28808  1.0000
  H   H339      1.0  0.30953  0.50589  0.04163  1.0000
  H   H340      1.0  0.07441  0.49950  0.43532  1.0000
  C   C406      1.0  0.05388  0.43059  0.32106  1.0000
  C   C407      1.0  0.06830  0.58299  0.40887  1.0000
  C   C408      1.0  0.44535  0.36494  0.02876  1.0000
  C   C409      1.0  0.44859  0.52883  0.05365  1.0000
  C   C410      1.0  0.44972  0.50462  0.05094  1.0000
  C   C411      1.0  0.43829  0.48936  0.07085  1.0000
  C   C412      1.0  0.42527  0.49836  0.09321  1.0000
  C   C413      1.0  0.42379  0.52278  0.09597  1.0000
  C   C414      1.0  0.43601  0.53781  0.07626  1.0000
  P   P13       1.0  0.40770  0.53448  0.12524  1.0000
  C   C415      1.0  0.38389  0.51670  0.13841  1.0000
  C   C416      1.0  0.42823  0.53347  0.14967  1.0000
  C   C417      1.0  0.41993  0.53122  0.17689  1.0000
  C   C418      1.0  0.43548  0.53216  0.19569  1.0000
  C   C419      1.0  0.45921  0.53596  0.18742  1.0000
  C   C420      1.0  0.46738  0.53873  0.16038  1.0000
  C   C421      1.0  0.45207  0.53735  0.14156  1.0000
  C   C422      1.0  0.38918  0.49514  0.15515  1.0000
  C   C423      1.0  0.37124  0.48097  0.16555  1.0000
  C   C424      1.0  0.34771  0.48824  0.15923  1.0000
  C   C425      1.0  0.34224  0.50959  0.14238  1.0000
  C   C426      1.0  0.36022  0.52375  0.13193  1.0000
  C   C427      1.0  0.39504  0.56549  0.11679  1.0000
  C   C428      1.0  0.38212  0.57211  0.09470  1.0000
  C   C429      1.0  0.37149  0.59583  0.08845  1.0000
  C   C430      1.0  0.37435  0.61333  0.10373  1.0000
  C   C431      1.0  0.38765  0.60704  0.12550  1.0000
  C   C432      1.0  0.39787  0.58320  0.13214  1.0000
  H   H341      1.0  0.45714  0.54068  0.03791  1.0000
  H   H342      1.0  0.45920  0.49773  0.03327  1.0000
  H   H343      1.0  0.43905  0.47060  0.06861  1.0000
  H   H344      1.0  0.41643  0.48614  0.10816  1.0000
  H   H345      1.0  0.43557  0.55653  0.07820  1.0000
  H   H346      1.0  0.40143  0.52890  0.18361  1.0000
  H   H347      1.0  0.42914  0.52989  0.21666  1.0000
  H   H348      1.0  0.03563  0.56354  0.46628  1.0000
  C   C433      1.0  0.06995  0.36659  0.34531  1.0000
  H   H349      1.0  0.45895  0.53934  0.12077  1.0000
  H   H350      1.0  0.40733  0.48928  0.16003  1.0000
  H   H351      1.0  0.37584  0.46425  0.17828  1.0000
  H   H352      1.0  0.33377  0.47733  0.16726  1.0000
  H   H353      1.0  0.32412  0.51508  0.13706  1.0000
  H   H354      1.0  0.35545  0.53991  0.11862  1.0000
  H   H355      1.0  0.38023  0.55881  0.08235  1.0000
  H   H356      1.0  0.36144  0.60069  0.07141  1.0000
  H   H357      1.0  0.23900  0.64290  0.99042  1.0000
  H   H358      1.0  0.39061  0.62076  0.13676  1.0000
  H   H359      1.0  0.40830  0.57891  0.14889  1.0000
  H   H360      1.0  0.26505  0.35478  0.22091  1.0000
  C   C434      1.0  0.08095  0.44338  0.28256  1.0000
  C   C435      1.0  0.16490  0.36502  0.14563  1.0000
  H   H361      1.0  0.06481  0.36245  0.32707  1.0000
  S   S62       1.0  0.41001  0.61812  0.97885  1.0000
  C   C436      1.0  0.32655  0.34482  0.17026  1.0000
  H   H362      1.0  0.03310  0.59496  0.42761  1.0000
  C   C437      1.0  0.00312  0.57723  0.37045  1.0000
  C   C438      1.0  0.06930  0.33089  0.21172  1.0000
  C   C439      1.0  0.09282  0.33667  0.20906  1.0000
  C   C440      1.0  0.07079  0.46769  0.31843  1.0000
  H   H363      1.0  0.03097  0.36574  0.42977  1.0000
  H   H364      1.0  0.31903  0.39286  0.01739  1.0000
  C   C441      1.0  0.01315  0.42267  0.36166  1.0000
  C   C442      1.0  0.05065  0.56406  0.45090  1.0000
  H   H365      1.0  0.44797  0.61738  0.23725  1.0000
  C   C443      1.0  0.28253  0.32137  0.23954  1.0000
  C   C444      1.0  0.08295  0.46397  0.29353  1.0000
  H   H366      1.0  0.34679  0.49252  0.01352  1.0000
  C   C445      1.0  0.00282  0.36056  0.31136  1.0000
  C   C446      1.0  0.04922  0.58200  0.42902  1.0000
  C   C447      1.0  0.03200  0.53900  0.39762  1.0000
  C   C448      1.0  0.07604  0.33316  0.12308  1.0000
  C   C449      1.0  0.99805  0.44301  0.35135  1.0000
  C   C450      1.0  0.03750  0.54567  0.37038  1.0000
  C   C451      1.0  0.03741  0.34910  0.42204  1.0000
  H   H367      1.0  0.99901  0.62230  0.39463  1.0000
  C   C452      1.0  0.08903  0.56620  0.41075  1.0000
  C   C453      1.0  0.18113  0.36434  0.16418  1.0000
  C   C454      1.0  0.09816  0.35288  0.22486  1.0000
  S   S63       1.0  0.47830  0.35381  0.10912  1.0000
  C   C455      1.0  0.08808  0.48982  0.44736  1.0000
  C   C456      1.0  0.10205  0.46928  0.43889  1.0000
  H   H368      1.0  0.07279  0.48327  0.32737  1.0000
  H   H369      1.0  0.32063  0.35418  0.09482  1.0000
  C   C457      1.0  0.00794  0.63746  0.32595  1.0000
  H   H370      1.0  0.46141  0.62085  0.02815  1.0000
  H   H371      1.0  0.32858  0.53507  0.00331  1.0000
  H   H372      1.0  0.19710  0.34595  0.25967  1.0000
  C   C458      1.0  0.01827  0.61711  0.27862  1.0000
  C   C459      1.0  0.48321  0.38857  0.00275  1.0000
  H   H373      1.0  0.47848  0.36140  0.17463  1.0000
  S   S64       1.0  0.08682  0.40690  0.45672  1.0000
  H   H374      1.0  0.41214  0.62111  0.21294  1.0000
  H   H375      1.0  0.47029  0.40583  0.17007  1.0000
  C   C460      1.0  0.99555  0.37316  0.28749  1.0000
  C   C461      1.0  0.42362  0.64919  0.18309  1.0000
  C   C462      1.0  0.08448  0.33545  0.14696  1.0000
  H   H376      1.0  0.98636  0.51337  0.36870  1.0000
  C   C463      1.0  0.00003  0.61555  0.32443  1.0000
  H   H377      1.0  0.47993  0.64250  0.22079  1.0000
  C   C464      1.0  0.09062  0.54838  0.43275  1.0000
  C   C465      1.0  0.48314  0.36435  0.00015  1.0000
  C   C466      1.0  0.99030  0.42461  0.40500  1.0000
  C   C467      1.0  0.47443  0.60728  0.01961  1.0000
  C   C468      1.0  0.11961  0.45622  0.45415  1.0000
  H   H378      1.0  0.00409  0.64570  0.34401  1.0000
  C   C469      1.0  0.02598  0.63897  0.28027  1.0000
  C   C470      1.0  0.44240  0.64783  0.10468  1.0000
  H   H379      1.0  0.98855  0.36006  0.44881  1.0000
  H   H380      1.0  0.99501  0.40641  0.26093  1.0000
  H   H381      1.0  0.15464  0.32938  0.21582  1.0000
  H   H382      1.0  0.29488  0.32723  0.17462  1.0000
  C   C471      1.0  0.02085  0.64911  0.30393  1.0000
  H   H383      1.0  0.03587  0.64808  0.26319  1.0000
  Fe  Fe30      1.0  0.06108  0.37986  0.46805  1.0000
  C   C472      1.0  0.48494  0.61201  0.99349  1.0000
  P   P14       1.0  0.11600  0.32272  0.18628  1.0000
  S   S65       1.0  0.40278  0.64522  0.04530  1.0000
  H   H384      1.0  0.40814  0.65063  0.17227  1.0000
  C   C473      1.0  0.03423  0.32083  0.39189  1.0000
  C   C474      1.0  0.14545  0.32078  0.27315  1.0000
  C   C475      1.0  0.27488  0.65169  0.98857  1.0000
  C   C476      1.0  0.10411  0.31949  0.15613  1.0000
  C   C477      1.0  0.04574  0.47444  0.69356  1.0000
  C   C478      1.0  0.47046  0.62162  0.93288  1.0000
  P   P15       1.0  0.01716  0.42864  0.64061  1.0000
  S   S66       1.0  0.98728  0.42431  0.51641  1.0000
  Fe  Fe31      1.0  0.00886  0.54656  0.62956  1.0000
  S   S67       1.0  0.03719  0.52917  0.65578  1.0000
  H   H385      1.0  0.99977  0.53355  0.54448  1.0000
  Fe  Fe32      1.0  0.04400  0.56997  0.58826  1.0000
  S   S68       1.0  0.07533  0.55432  0.61090  1.0000
  S   S69       1.0  0.05077  0.59573  0.55112  1.0000
  Fe  Fe33      1.0  0.05858  0.52039  0.61745  1.0000
  S   S70       1.0  0.08318  0.48518  0.61692  1.0000
  Fe  Fe34      1.0  0.05148  0.56449  0.64698  1.0000
  S   S71       1.0  0.06827  0.58090  0.67646  1.0000
  S   S72       1.0  0.02912  0.53519  0.59171  1.0000
  S   S73       1.0  0.02136  0.58269  0.62386  1.0000
  H   H386      1.0  0.11430  0.56062  0.56101  1.0000
  C   C479      1.0  0.31612  0.61340  0.95039  1.0000
  C   C480      1.0  0.04289  0.41516  0.59353  1.0000
  H   H387      1.0  0.99981  0.48662  0.48670  1.0000
  Fe  Fe35      1.0  0.02456  0.41468  0.49730  1.0000
  C   C481      1.0  0.01298  0.46432  0.67337  1.0000
  C   C482      1.0  0.00355  0.35018  0.48593  1.0000
  S   S74       1.0  0.10533  0.41988  0.52405  1.0000
  C   C483      1.0  0.04408  0.63647  0.61216  1.0000
  C   C484      1.0  0.03218  0.59767  0.52586  1.0000
  C   C485      1.0  0.01227  0.58531  0.52922  1.0000
  C   C486      1.0  0.46318  0.53115  0.97400  1.0000
  H   H388      1.0  0.27930  0.60661  0.87617  1.0000
  H   H389      1.0  0.10245  0.59877  0.86088  1.0000
  C   C487      1.0  0.03739  0.61227  0.50195  1.0000
  H   H390      1.0  0.00826  0.57406  0.54773  1.0000
  C   C488      1.0  0.34186  0.53765  0.96179  1.0000
  C   C489      1.0  0.14450  0.63842  0.69088  1.0000
  C   C490      1.0  0.09791  0.43900  0.54897  1.0000
  C   C491      1.0  0.07626  0.45481  0.55121  1.0000
  C   C492      1.0  0.07123  0.46925  0.57200  1.0000
  C   C493      1.0  0.08793  0.46793  0.59035  1.0000
  C   C494      1.0  0.10930  0.45199  0.58805  1.0000
  C   C495      1.0  0.11434  0.43781  0.56741  1.0000
  H   H391      1.0  0.06335  0.45581  0.53716  1.0000
  H   H392      1.0  0.05451  0.48130  0.57381  1.0000
  H   H393      1.0  0.12216  0.45071  0.60226  1.0000
  H   H394      1.0  0.13099  0.42561  0.56594  1.0000
  C   C496      1.0  0.02134  0.47767  0.69013  1.0000
  H   H395      1.0  0.06637  0.43248  0.65263  1.0000
  H   H396      1.0  0.08863  0.36739  0.62967  1.0000
  H   H397      1.0  0.46469  0.34147  0.95973  1.0000
  C   C497      1.0  0.99073  0.48631  0.58978  1.0000
  H   H398      1.0  0.09996  0.61846  0.58278  1.0000
  C   C498      1.0  0.08218  0.62860  0.58538  1.0000
  H   H399      1.0  0.41084  0.52268  0.91478  1.0000
  C   C499      1.0  0.04382  0.51854  0.49535  1.0000
  H   H400      1.0  0.40498  0.50845  0.82934  1.0000
  C   C500      1.0  0.07769  0.38451  0.59188  1.0000
  H   H401      1.0  0.39701  0.53705  0.86216  1.0000
  C   C501      1.0  0.24300  0.64355  0.77125  1.0000
  S   S75       1.0  0.04723  0.44431  0.48806  1.0000
  C   C502      1.0  0.00103  0.38405  0.65648  1.0000
  C   C503      1.0  0.07157  0.62535  0.68890  1.0000
  C   C504      1.0  0.05628  0.61028  0.68276  1.0000
  C   C505      1.0  0.03170  0.61853  0.68275  1.0000
  H   H402      1.0  0.16267  0.62555  0.81247  1.0000
  H   H403      1.0  0.02145  0.34457  0.47683  1.0000
  H   H404      1.0  0.09060  0.61910  0.68880  1.0000
  H   H405      1.0  0.01972  0.60695  0.67828  1.0000
  C   C506      1.0  0.08875  0.52273  0.53152  1.0000
  H   H406      1.0  0.05233  0.48543  0.70577  1.0000
  H   H407      1.0  0.33452  0.55645  0.95790  1.0000
  C   C507      1.0  0.42906  0.55285  0.91549  1.0000
  C   C508      1.0  0.40900  0.54206  0.91326  1.0000
  H   H408      1.0  0.44231  0.58595  0.91721  1.0000
  H   H409      1.0  0.09216  0.37461  0.58027  1.0000
  C   C509      1.0  0.99749  0.50931  0.51694  1.0000
  C   C510      1.0  0.98780  0.37836  0.58519  1.0000
  C   C511      1.0  0.27937  0.62811  0.92953  1.0000
  H   H410      1.0  0.00351  0.64794  0.68919  1.0000
  C   C512      1.0  0.07062  0.64666  0.88834  1.0000
  C   C513      1.0  0.33768  0.58090  0.87740  1.0000
  C   C514      1.0  0.09888  0.53132  0.55100  1.0000
  C   C515      1.0  0.10945  0.48431  0.48630  1.0000
  C   C516      1.0  0.99554  0.39196  0.56122  1.0000
  S   S76       1.0  0.45522  0.56236  0.97241  1.0000
  C   C517      1.0  0.06374  0.63174  0.78187  1.0000
  H   H411      1.0  0.11102  0.58488  0.51682  1.0000
  C   C518      1.0  0.09559  0.55845  0.50094  1.0000
  C   C519      1.0  0.03959  0.64207  0.78374  1.0000
  C   C520      1.0  0.02337  0.63419  0.76982  1.0000
  C   C521      1.0  0.03212  0.52927  0.51739  1.0000
  H   H412      1.0  0.15410  0.64763  0.67366  1.0000
  H   H413      1.0  0.11272  0.48934  0.50484  1.0000
  C   C522      1.0  0.44611  0.51560  0.97493  1.0000
  H   H414      1.0  0.05588  0.39070  0.65586  1.0000
  H   H415      1.0  0.16551  0.60392  0.68706  1.0000
  C   C523      1.0  0.45500  0.63837  0.91794  1.0000
  C   C524      1.0  0.00897  0.52483  0.52792  1.0000
  H   H416      1.0  0.01946  0.47785  0.61453  1.0000
  H   H417      1.0  0.00075  0.36644  0.59648  1.0000
  C   C525      1.0  0.29101  0.64575  0.91320  1.0000
  C   C526      1.0  0.10714  0.55363  0.54561  1.0000
  S   S77       1.0  0.24911  0.62604  0.92704  1.0000
  H   H418      1.0  0.00898  0.49113  0.69968  1.0000
  C   C527      1.0  0.36280  0.48991  0.97347  1.0000
  H   H419      1.0  0.08089  0.45650  0.68137  1.0000
  H   H420      1.0  0.40284  0.61107  0.91198  1.0000
  H   H421      1.0  0.99473  0.50426  0.58275  1.0000
  H   H422      1.0  0.27380  0.57294  0.91188  1.0000
  C   C528      1.0  0.45377  0.49105  0.97311  1.0000
  S   S78       1.0  0.05404  0.38611  0.51083  1.0000
  H   H423      1.0  0.98997  0.62378  0.60134  1.0000
  H   H424      1.0  0.99428  0.46800  0.66981  1.0000
  H   H425      1.0  0.35533  0.58327  0.86730  1.0000
  C   C529      1.0  0.10541  0.56722  0.52063  1.0000
  C   C530      1.0  0.02875  0.44683  0.66078  1.0000
  H   H426      1.0  0.08069  0.62940  0.89470  1.0000
  C   C531      1.0  0.05735  0.39397  0.63436  1.0000
  C   C532      1.0  0.98787  0.36779  0.67320  1.0000
  C   C533      1.0  0.40472  0.59187  0.91165  1.0000
  H   H427      1.0  0.07376  0.61058  0.62482  1.0000
  H   H428      1.0  0.01870  0.60974  0.74326  1.0000
  C   C534      1.0  0.29475  0.59389  0.88180  1.0000
  C   C535      1.0  0.07577  0.38062  0.61963  1.0000
  C   C536      1.0  0.02295  0.61432  0.48131  1.0000
  H   H429      1.0  0.01441  0.39046  0.55402  1.0000
  C   C537      1.0  0.47841  0.48216  0.97077  1.0000
  H   H430      1.0  0.24929  0.62490  0.77795  1.0000
  C   C538      1.0  0.04102  0.41165  0.62140  1.0000
  C   C539      1.0  0.31515  0.64722  0.91547  1.0000
  C   C540      1.0  0.03173  0.50366  0.48382  1.0000
  C   C541      1.0  0.42694  0.57775  0.91458  1.0000
  P   P16       1.0  0.07369  0.52452  0.48158  1.0000
  H   H431      1.0  0.03054  0.42846  0.58281  1.0000
  H   H432      1.0  0.98893  0.34962  0.66874  1.0000
  Fe  Fe36      1.0  0.37339  0.61151  0.97244  1.0000
  C   C542      1.0  0.32758  0.63136  0.93436  1.0000
  C   C543      1.0  0.06106  0.40152  0.57895  1.0000
  C   C544      1.0  0.36612  0.50187  0.94761  1.0000
  C   C545      1.0  0.33488  0.56242  0.89863  1.0000
  C   C546      1.0  0.31160  0.55902  0.91028  1.0000
  P   P17       1.0  0.36075  0.54166  0.90850  1.0000
  C   C547      1.0  0.36704  0.52086  0.88440  1.0000
  C   C548      1.0  0.38664  0.55616  0.90992  1.0000
  H   H433      1.0  0.04066  0.54132  0.52635  1.0000
  C   C549      1.0  0.38456  0.58112  0.90966  1.0000
  C   C550      1.0  0.35234  0.50295  0.88547  1.0000
  C   C551      1.0  0.35685  0.48688  0.86668  1.0000
  C   C552      1.0  0.37590  0.48878  0.84654  1.0000
  C   C553      1.0  0.39034  0.50685  0.84508  1.0000
  C   C554      1.0  0.38586  0.52296  0.86384  1.0000
  C   C555      1.0  0.35527  0.52571  0.94146  1.0000
  C   C556      1.0  0.99934  0.34886  0.51354  1.0000
  C   C557      1.0  0.99779  0.58722  0.50842  1.0000
  C   C558      1.0  0.08733  0.53598  0.50623  1.0000
  C   C559      1.0  0.99920  0.40792  0.66154  1.0000
  H   H434      1.0  0.09988  0.52083  0.57047  1.0000
  H   H435      1.0  0.30869  0.54431  0.92583  1.0000
  C   C560      1.0  0.29167  0.57488  0.90207  1.0000
  H   H436      1.0  0.36732  0.59233  0.90901  1.0000
  H   H437      1.0  0.33741  0.50142  0.90087  1.0000
  H   H438      1.0  0.34553  0.47300  0.86770  1.0000
  H   H439      1.0  0.37938  0.47632  0.83198  1.0000
  H   H440      1.0  0.07621  0.63895  0.79181  1.0000
  H   H441      1.0  0.46291  0.60838  0.94771  1.0000
  H   H442      1.0  0.44608  0.54186  0.91895  1.0000
  H   H443      1.0  0.09400  0.56954  0.48200  1.0000
  C   C561      1.0  0.47726  0.32505  0.95921  1.0000
  C   C562      1.0  0.11006  0.52589  0.77861  1.0000
  C   C563      1.0  0.10659  0.51969  0.75412  1.0000
  C   C564      1.0  0.10247  0.53762  0.73271  1.0000
  C   C565      1.0  0.10184  0.56170  0.73578  1.0000
  C   C566      1.0  0.10512  0.56818  0.76034  1.0000
  C   C567      1.0  0.10927  0.55005  0.78178  1.0000
  P   P18       1.0  0.10300  0.59962  0.76407  1.0000
  C   C568      1.0  0.07171  0.61287  0.76661  1.0000
  C   C569      1.0  0.11574  0.60360  0.79349  1.0000
  C   C570      1.0  0.10330  0.59820  0.81874  1.0000
  C   C571      1.0  0.11226  0.60259  0.84149  1.0000
  C   C572      1.0  0.13371  0.61235  0.83922  1.0000
  C   C573      1.0  0.14631  0.61751  0.81422  1.0000
  C   C574      1.0  0.13735  0.61332  0.79141  1.0000
  C   C575      1.0  0.05338  0.44427  0.66366  1.0000
  C   C576      1.0  0.00326  0.60167  0.48439  1.0000
  C   C577      1.0  0.06179  0.45800  0.68003  1.0000
  C   C578      1.0  0.03112  0.61552  0.75456  1.0000
  C   C579      1.0  0.05512  0.60485  0.75301  1.0000
  C   C580      1.0  0.11922  0.61473  0.73534  1.0000
  C   C581      1.0  0.13849  0.60206  0.72075  1.0000
  C   C582      1.0  0.15091  0.61385  0.69846  1.0000
  H   H444      1.0  0.05271  0.62194  0.49936  1.0000
  C   C583      1.0  0.31773  0.59683  0.86936  1.0000
  H   H445      1.0  0.08180  0.50578  0.53617  1.0000
  H   H446      1.0  0.11324  0.51197  0.79520  1.0000
  H   H447      1.0  0.10701  0.50102  0.75169  1.0000
  H   H448      1.0  0.09951  0.53302  0.71369  1.0000
  H   H449      1.0  0.09857  0.57534  0.71892  1.0000
  H   H450      1.0  0.11195  0.55438  0.80090  1.0000
  H   H451      1.0  0.08643  0.59103  0.82073  1.0000
  C   C584      1.0  0.99861  0.44838  0.61816  1.0000
  H   H452      1.0  0.14037  0.61647  0.85672  1.0000
  H   H453      1.0  0.13653  0.45329  0.48998  1.0000
  H   H454      1.0  0.14710  0.61831  0.77227  1.0000
  H   H455      1.0  0.37764  0.49266  0.93267  1.0000
  H   H456      1.0  0.06264  0.40472  0.55750  1.0000
  C   C585      1.0  0.29211  0.61160  0.94773  1.0000
  C   C586      1.0  0.00438  0.47140  0.60820  1.0000
  H   H457      1.0  0.06056  0.59085  0.74052  1.0000
  H   H458      1.0  0.14398  0.58309  0.72651  1.0000
  Fe  Fe37      1.0  0.07719  0.41543  0.49860  1.0000
  C   C587      1.0  0.11330  0.63949  0.72798  1.0000
  C   C588      1.0  0.00887  0.49869  0.49499  1.0000
  H   H459      1.0  0.32569  0.60105  0.96493  1.0000
  H   H460      1.0  0.01216  0.37798  0.63934  1.0000
  H   H461      1.0  0.24854  0.63922  0.72975  1.0000
  H   H462      1.0  0.44070  0.47901  0.97337  1.0000
  H   H463      1.0  0.28321  0.59775  0.96017  1.0000
  H   H464      1.0  0.01400  0.34259  0.52562  1.0000
  C   C589      1.0  0.06734  0.62401  0.60901  1.0000
  H   H465      1.0  0.00493  0.64292  0.77033  1.0000
  H   H466      1.0  0.05461  0.63366  0.85829  1.0000
  H   H467      1.0  0.32006  0.61168  0.85376  1.0000
  H   H468      1.0  0.03287  0.63274  0.63056  1.0000
  C   C590      1.0  0.02254  0.64174  0.68886  1.0000
  S   S79       1.0  0.35735  0.63455  0.93762  1.0000
  C   C591      1.0  0.06238  0.64857  0.69495  1.0000
  H   H469      1.0  0.08529  0.64927  0.54658  1.0000
  H   H470      1.0  0.09909  0.64984  0.73941  1.0000
  H   H471      1.0  0.43576  0.63797  0.92145  1.0000
  C   C592      1.0  0.07388  0.64594  0.56501  1.0000
  H   H472      1.0  0.01196  0.64094  0.55230  1.0000
  H   H473      1.0  0.98864  0.64192  0.51478  1.0000
  C   C593      1.0  0.05599  0.64906  0.86783  1.0000
  C   C594      1.0  0.12336  0.46381  0.47774  1.0000
  C   C595      1.0  0.12581  0.65122  0.70571  1.0000
  C   C596      1.0  0.24254  0.65162  0.74413  1.0000
  C   C597      1.0  0.26833  0.74417  0.99388  1.0000
  C   C598      1.0  0.00776  0.90307  0.98427  1.0000
  C   C599      1.0  0.42695  0.65406  0.08470  1.0000
  Fe  Fe38      1.0  0.48256  0.97592  0.39012  1.0000
  C   C600      1.0  0.01534  0.93592  0.01737  1.0000
  H   H474      1.0  0.24290  0.76517  0.01925  1.0000
  H   H475      1.0  0.11458  0.76058  0.00569  1.0000
  H   H476      1.0  0.36988  0.96288  0.25431  1.0000
  H   H477      1.0  0.11560  0.90111  0.00012  1.0000
  H   H478      1.0  0.05299  0.92483  0.00660  1.0000
  C   C601      1.0  0.36828  0.69381  0.00240  1.0000
  C   C602      1.0  0.44166  0.66353  0.17367  1.0000
  H   H479      1.0  0.00695  0.88217  0.12072  1.0000
  H   H480      1.0  0.10787  0.94514  0.00149  1.0000
  C   C603      1.0  0.25397  0.76526  0.00033  1.0000
  H   H481      1.0  0.46128  0.71806  0.13972  1.0000
  C   C604      1.0  0.07845  0.96395  0.25842  1.0000
  H   H482      1.0  0.15654  0.74057  0.99920  1.0000
  H   H483      1.0  0.47133  0.95042  0.33924  1.0000
  H   H484      1.0  0.48122  0.69735  0.06182  1.0000
  C   C605      1.0  0.34914  0.98145  0.31427  1.0000
  C   C606      1.0  0.17676  0.80757  0.98170  1.0000
  C   C607      1.0  0.36720  0.97384  0.27030  1.0000
  C   C608      1.0  0.46804  0.70768  0.21260  1.0000
  Fe  Fe39      1.0  0.46509  0.95088  0.44427  1.0000
  S   S80       1.0  0.47038  0.93998  0.40338  1.0000
  H   H485      1.0  0.47407  0.90757  0.35908  1.0000
  H   H486      1.0  0.45872  0.72596  0.09131  1.0000
  C   C609      1.0  0.47192  0.70589  0.12699  1.0000
  C   C610      1.0  0.32660  0.70822  0.97656  1.0000
  H   H487      1.0  0.18728  0.80150  0.99824  1.0000
  H   H488      1.0  0.45887  0.69297  0.22267  1.0000
  S   S81       1.0  0.02069  0.95797  0.03583  1.0000
  H   H489      1.0  0.99575  0.85448  0.02991  1.0000
  H   H490      1.0  0.30890  0.66455  0.98260  1.0000
  C   C611      1.0  0.48297  0.69430  0.08293  1.0000
  H   H491      1.0  0.08542  0.94779  0.27074  1.0000
  C   C612      1.0  0.98823  0.91602  0.99806  1.0000
  C   C613      1.0  0.39908  0.97164  0.40179  1.0000
  C   C614      1.0  0.25038  0.65695  0.98556  1.0000
  H   H492      1.0  0.43035  0.97981  0.37548  1.0000
  H   H493      1.0  0.09681  0.69206  0.99151  1.0000
  C   C615      1.0  0.14700  0.74778  0.98213  1.0000
  H   H494      1.0  0.33792  0.97612  0.33234  1.0000
  H   H495      1.0  0.47480  0.76455  0.22059  1.0000
  C   C616      1.0  0.10133  0.93757  0.98609  1.0000
  H   H496      1.0  0.02676  0.66608  0.30520  1.0000
  C   C617      1.0  0.46240  0.66095  0.18674  1.0000
  C   C618      1.0  0.28988  0.66942  0.98087  1.0000
  C   C619      1.0  0.34995  0.71058  0.01245  1.0000
  H   H497      1.0  0.35179  0.71768  0.03043  1.0000
  C   C620      1.0  0.99200  0.93213  0.01487  1.0000
  H   H498      1.0  0.40939  0.96034  0.41656  1.0000
  H   H499      1.0  0.36499  0.96652  0.42395  1.0000
  C   C621      1.0  0.03488  0.92234  0.00432  1.0000
  C   C622      1.0  0.35259  0.96735  0.29361  1.0000
  C   C623      1.0  0.37400  0.97519  0.40593  1.0000
  C   C624      1.0  0.46526  0.72889  0.22409  1.0000
  H   H500      1.0  0.34399  0.95132  0.29573  1.0000
  H   H501      1.0  0.14270  0.80708  0.00599  1.0000
  H   H502      1.0  0.26410  0.98371  0.45666  1.0000
  C   C625      1.0  0.03111  0.90594  0.98782  1.0000
  C   C626      1.0  0.47698  0.74815  0.21161  1.0000
  C   C627      1.0  0.98872  0.89145  0.12112  1.0000
  C   C628      1.0  0.32912  0.71777  0.99961  1.0000
  H   H503      1.0  0.41876  0.67249  0.08025  1.0000
  C   C629      1.0  0.36588  0.68429  0.97945  1.0000
  H   H504      1.0  0.43957  0.67617  0.15588  1.0000
  H   H505      1.0  0.26813  0.72789  0.00794  1.0000
  H   H506      1.0  0.45403  0.73037  0.24275  1.0000
  H   H507      1.0  0.24220  0.80255  0.98712  1.0000
  C   C630      1.0  0.10564  0.91280  0.98536  1.0000
  H   H508      1.0  0.31503  0.73050  0.00791  1.0000
  C   C631      1.0  0.09419  0.97692  0.24074  1.0000
  C   C632      1.0  0.05375  0.97188  0.26023  1.0000
  H   H509      1.0  0.38423  0.68792  0.01258  1.0000
  H   H510      1.0  0.11336  0.97084  0.23936  1.0000
  H   H511      1.0  0.04155  0.96186  0.27398  1.0000
  C   C633      1.0  0.24070  0.68015  0.97555  1.0000
  C   C634      1.0  0.12324  0.75910  0.98580  1.0000
  H   H512      1.0  0.99819  0.92095  0.09170  1.0000
  H   H513      1.0  0.04623  0.89577  0.97756  1.0000
  S   S82       1.0  0.42828  0.95107  0.46697  1.0000
  C   C635      1.0  0.48259  0.70561  0.18847  1.0000
  C   C636      1.0  0.25353  0.78629  0.98222  1.0000
  C   C637      1.0  0.41088  0.98269  0.37866  1.0000
  C   C638      1.0  0.47032  0.71039  0.09959  1.0000
  C   C639      1.0  0.15166  0.81077  0.98611  1.0000
  H   H514      1.0  0.44625  0.66152  0.11530  1.0000
  Fe  Fe40      1.0  0.03312  0.86102  0.94167  1.0000
  S   S83       1.0  0.07028  0.85096  0.95380  1.0000
  C   C640      1.0  0.13626  0.82531  0.85258  1.0000
  Fe  Fe41      1.0  0.04555  0.83550  0.89192  1.0000
  S   S84       1.0  0.08404  0.82377  0.89982  1.0000
  S   S85       1.0  0.03081  0.83344  0.85353  1.0000
  Fe  Fe42      1.0  0.06831  0.81494  0.94199  1.0000
  C   C641      1.0  0.25918  0.76810  0.89118  1.0000
  Fe  Fe43      1.0  0.08266  0.86072  0.91069  1.0000
  S   S86       1.0  0.11276  0.88288  0.89777  1.0000
  S   S87       1.0  0.02966  0.82400  0.93346  1.0000
  S   S88       1.0  0.04563  0.87327  0.89940  1.0000
  Fe  Fe44      1.0  0.05012  0.73044  0.76971  1.0000
  S   S89       1.0  0.08592  0.74247  0.75560  1.0000
  S   S90       1.0  0.03000  0.73483  0.81022  1.0000
  Fe  Fe45      1.0  0.04976  0.70602  0.72065  1.0000
  S   S91       1.0  0.08566  0.71599  0.70214  1.0000
  Fe  Fe46      1.0  0.09680  0.70588  0.74332  1.0000
  Fe  Fe47      1.0  0.07227  0.75183  0.71570  1.0000
  S   S92       1.0  0.08058  0.78643  0.69119  1.0000
  S   S93       1.0  0.06219  0.69273  0.76075  1.0000
  S   S94       1.0  0.03511  0.74310  0.73074  1.0000
  S   S95       1.0  0.18719  0.71711  0.87803  1.0000
  S   S96       1.0  0.21957  0.66529  0.86521  1.0000
  Fe  Fe48      1.0  0.22572  0.70347  0.86529  1.0000
  S   S97       1.0  0.25141  0.72073  0.83348  1.0000
  Fe  Fe49      1.0  0.18194  0.67828  0.88178  1.0000
  C   C642      1.0  0.33066  0.97944  0.56111  1.0000
  Fe  Fe50      1.0  0.16594  0.87750  0.75886  1.0000
  S   S98       1.0  0.20126  0.88920  0.76264  1.0000
  S   S99       1.0  0.12957  0.89643  0.77281  1.0000
  Fe  Fe51      1.0  0.18862  0.83597  0.72917  1.0000
  S   S100      1.0  0.22595  0.84415  0.73016  1.0000
  S   S101      1.0  0.18430  0.80317  0.71145  1.0000
  Fe  Fe52      1.0  0.21381  0.84963  0.77244  1.0000
  S   S102      1.0  0.23721  0.83401  0.80505  1.0000
  Fe  Fe53      1.0  0.21036  0.88263  0.72007  1.0000
  S   S103      1.0  0.22771  0.90763  0.68734  1.0000
  S   S104      1.0  0.17775  0.83845  0.77240  1.0000
  S   S105      1.0  0.17389  0.87398  0.71543  1.0000
  Fe  Fe54      1.0  0.39513  0.93417  0.61658  1.0000
  H   H515      1.0  0.05996  0.75038  0.94213  1.0000
  S   S106      1.0  0.41253  0.90827  0.58816  1.0000
  Fe  Fe55      1.0  0.35867  0.93709  0.66558  1.0000
  H   H516      1.0  0.04445  0.67188  0.55224  1.0000
  S   S107      1.0  0.33658  0.91479  0.69685  1.0000
  H   H517      1.0  0.45969  0.95530  0.59968  1.0000
  S   S108      1.0  0.35546  0.94658  0.62184  1.0000
  C   C643      1.0  0.01487  0.74103  0.59217  1.0000
  C   C644      1.0  0.08972  0.76903  0.83168  1.0000
  C   C645      1.0  0.23728  0.80779  0.88081  1.0000
  S   S109      1.0  0.39761  0.92183  0.65990  1.0000
  H   H518      1.0  0.24995  0.79689  0.74641  1.0000
  H   H519      1.0  0.20061  0.84684  0.84761  1.0000
  C   C646      1.0  0.20343  0.89908  0.87079  1.0000
  H   H520      1.0  0.27888  0.84109  0.77002  1.0000
  C   C647      1.0  0.25782  0.91004  0.69014  1.0000
  C   C648      1.0  0.27106  0.92339  0.66968  1.0000
  C   C649      1.0  0.29518  0.92544  0.67164  1.0000
  C   C650      1.0  0.30603  0.91423  0.69419  1.0000
  C   C651      1.0  0.29273  0.90099  0.71460  1.0000
  C   C652      1.0  0.26875  0.89873  0.71255  1.0000
  H   H521      1.0  0.26264  0.93216  0.65231  1.0000
  H   H522      1.0  0.30536  0.93559  0.65575  1.0000
  H   H523      1.0  0.30102  0.89248  0.73209  1.0000
  H   H524      1.0  0.25867  0.88844  0.72842  1.0000
  C   C653      1.0  0.24714  0.75230  0.82640  1.0000
  C   C654      1.0  0.26488  0.76367  0.80994  1.0000
  C   C655      1.0  0.26168  0.78873  0.80323  1.0000
  C   C656      1.0  0.24022  0.80248  0.81192  1.0000
  C   C657      1.0  0.22237  0.79112  0.82828  1.0000
  C   C658      1.0  0.22617  0.76615  0.83619  1.0000
  H   H525      1.0  0.28120  0.75308  0.80245  1.0000
  H   H526      1.0  0.27573  0.79741  0.79105  1.0000
  H   H527      1.0  0.20602  0.80177  0.83554  1.0000
  H   H528      1.0  0.21292  0.75761  0.84981  1.0000
  C   C659      1.0  0.16084  0.67870  0.79183  1.0000
  C   C660      1.0  0.10914  0.95649  0.88820  1.0000
  H   H529      1.0  0.10621  0.67145  0.84480  1.0000
  H   H530      1.0  0.17614  0.68023  0.77703  1.0000
  H   H531      1.0  0.01632  0.78788  0.87949  1.0000
  C   C661      1.0  0.10944  0.79156  0.69609  1.0000
  C   C662      1.0  0.12670  0.77212  0.70336  1.0000
  C   C663      1.0  0.14949  0.77608  0.70798  1.0000
  C   C664      1.0  0.15509  0.79941  0.70616  1.0000
  C   C665      1.0  0.13776  0.81899  0.69917  1.0000
  C   C666      1.0  0.11507  0.81503  0.69365  1.0000
  H   H532      1.0  0.12259  0.75396  0.70522  1.0000
  H   H533      1.0  0.16273  0.76099  0.71332  1.0000
  H   H534      1.0  0.14197  0.83709  0.69759  1.0000
  H   H535      1.0  0.10174  0.83013  0.68809  1.0000
  C   C667      1.0  0.11654  0.89007  0.86307  1.0000
  C   C668      1.0  0.13914  0.89419  0.85017  1.0000
  C   C669      1.0  0.14341  0.89601  0.82237  1.0000
  C   C670      1.0  0.12456  0.89549  0.80742  1.0000
  C   C671      1.0  0.10144  0.89364  0.82028  1.0000
  C   C672      1.0  0.09759  0.89020  0.84808  1.0000
  H   H536      1.0  0.15369  0.89444  0.86178  1.0000
  H   H537      1.0  0.16124  0.89775  0.81250  1.0000
  H   H538      1.0  0.08668  0.89392  0.80879  1.0000
  H   H539      1.0  0.08003  0.88740  0.85778  1.0000
  C   C673      1.0  0.12915  0.96407  0.87215  1.0000
  C   C674      1.0  0.12203  0.76658  0.93818  1.0000
  C   C675      1.0  0.16933  0.81332  0.87969  1.0000
  P   P19       1.0  0.21566  0.72294  0.74310  1.0000
  H   H540      1.0  0.15164  0.84952  0.87126  1.0000
  H   H541      1.0  0.13058  0.73826  0.78004  1.0000
  H   H542      1.0  0.11237  0.77359  0.92116  1.0000
  H   H543      1.0  0.15390  0.75174  0.91488  1.0000
  C   C676      1.0  0.07972  0.94291  0.94708  1.0000
  C   C677      1.0  0.03143  0.80551  0.84228  1.0000
  C   C678      1.0  0.32638  0.73175  0.91326  1.0000
  C   C679      1.0  0.02207  0.76464  0.84884  1.0000
  C   C680      1.0  0.03046  0.76219  0.82222  1.0000
  C   C681      1.0  0.03917  0.78151  0.80562  1.0000
  C   C682      1.0  0.03957  0.80309  0.81565  1.0000
  H   H544      1.0  0.11857  0.82033  0.96810  1.0000
  C   C683      1.0  0.31996  0.72384  0.86968  1.0000
  H   H545      1.0  0.04569  0.77982  0.78509  1.0000
  H   H546      1.0  0.04675  0.81771  0.80282  1.0000
  C   C684      1.0  0.29613  0.70736  0.90887  1.0000
  H   H547      1.0  0.28263  0.69629  0.91758  1.0000
  C   C685      1.0  0.13633  0.80141  0.84929  1.0000
  C   C686      1.0  0.15814  0.74497  0.95658  1.0000
  C   C687      1.0  0.25806  0.79126  0.87733  1.0000
  C   C688      1.0  0.25555  0.69804  0.96822  1.0000
  H   H548      1.0  0.16252  0.72658  0.74628  1.0000
  C   C689      1.0  0.29465  0.84058  0.75560  1.0000
  C   C690      1.0  0.31556  0.84795  0.76140  1.0000
  C   C691      1.0  0.33566  0.84805  0.74247  1.0000
  C   C692      1.0  0.33488  0.84071  0.71778  1.0000
  C   C693      1.0  0.31377  0.83361  0.71167  1.0000
  C   C694      1.0  0.29379  0.83328  0.73093  1.0000
  P   P20       1.0  0.31281  0.82376  0.67993  1.0000
  C   C695      1.0  0.28199  0.82944  0.67213  1.0000
  C   C696      1.0  0.33120  0.84091  0.65486  1.0000
  C   C697      1.0  0.34593  0.83011  0.63444  1.0000
  C   C698      1.0  0.36087  0.84353  0.61604  1.0000
  C   C699      1.0  0.36126  0.86772  0.61795  1.0000
  C   C700      1.0  0.34656  0.87855  0.63810  1.0000
  C   C701      1.0  0.33153  0.86528  0.65631  1.0000
  C   C702      1.0  0.26714  0.81129  0.67871  1.0000
  C   C703      1.0  0.24308  0.81588  0.67361  1.0000
  C   C704      1.0  0.23354  0.83867  0.66218  1.0000
  C   C705      1.0  0.24810  0.85686  0.65576  1.0000
  C   C706      1.0  0.27217  0.85236  0.66086  1.0000
  H   H549      1.0  0.31591  0.85421  0.78029  1.0000
  H   H550      1.0  0.35162  0.85453  0.74660  1.0000
  H   H551      1.0  0.35059  0.84112  0.70332  1.0000
  H   H552      1.0  0.34616  0.81138  0.63274  1.0000
  H   H553      1.0  0.37233  0.83519  0.60040  1.0000
  H   H554      1.0  0.37305  0.87810  0.60396  1.0000
  H   H555      1.0  0.34695  0.89720  0.63995  1.0000
  H   H556      1.0  0.23152  0.80206  0.67935  1.0000
  H   H557      1.0  0.21466  0.84245  0.65914  1.0000
  H   H558      1.0  0.24049  0.87476  0.64769  1.0000
  H   H559      1.0  0.28270  0.86707  0.65661  1.0000
  C   C707      1.0  0.27781  0.76716  0.74059  1.0000
  C   C708      1.0  0.28286  0.74278  0.73774  1.0000
  C   C709      1.0  0.26407  0.72935  0.73818  1.0000
  C   C710      1.0  0.17925  0.71339  0.68230  1.0000
  C   C711      1.0  0.18362  0.73296  0.66317  1.0000
  C   C712      1.0  0.19864  0.74887  0.66775  1.0000
  C   C713      1.0  0.20909  0.74541  0.69159  1.0000
  H   H560      1.0  0.30131  0.73418  0.73572  1.0000
  H   H561      1.0  0.26830  0.71041  0.73640  1.0000
  H   H562      1.0  0.26700  0.80248  0.94347  1.0000
  H   H563      1.0  0.17485  0.73618  0.64513  1.0000
  H   H564      1.0  0.20135  0.76454  0.65339  1.0000
  H   H565      1.0  0.21966  0.75863  0.69523  1.0000
  H   H566      1.0  0.02457  0.77253  0.96479  1.0000
  C   C714      1.0  0.12537  0.69731  0.96012  1.0000
  C   C715      1.0  0.02213  0.81095  0.71973  1.0000
  C   C716      1.0  0.03828  0.82678  0.72132  1.0000
  C   C717      1.0  0.03587  0.83955  0.74310  1.0000
  C   C718      1.0  0.01673  0.83652  0.76312  1.0000
  P   P21       1.0  0.05908  0.85680  0.74715  1.0000
  C   C719      1.0  0.08327  0.83685  0.76192  1.0000
  C   C720      1.0  0.07169  0.87119  0.71563  1.0000
  C   C721      1.0  0.09541  0.87645  0.71257  1.0000
  C   C722      1.0  0.10537  0.88729  0.68818  1.0000
  C   C723      1.0  0.09170  0.89319  0.66670  1.0000
  C   C724      1.0  0.06793  0.88849  0.66969  1.0000
  C   C725      1.0  0.05788  0.87769  0.69411  1.0000
  C   C726      1.0  0.09793  0.84573  0.77704  1.0000
  C   C727      1.0  0.11862  0.83157  0.78549  1.0000
  C   C728      1.0  0.12522  0.80848  0.77846  1.0000
  C   C729      1.0  0.11046  0.79924  0.76391  1.0000
  C   C730      1.0  0.08940  0.81323  0.75590  1.0000
  C   C731      1.0  0.04624  0.87992  0.76751  1.0000
  C   C732      1.0  0.03686  0.90283  0.75578  1.0000
  C   C733      1.0  0.02598  0.92035  0.77165  1.0000
  C   C734      1.0  0.02423  0.91507  0.79933  1.0000
  C   C735      1.0  0.03361  0.89233  0.81114  1.0000
  C   C736      1.0  0.04458  0.87487  0.79530  1.0000
  H   H567      1.0  0.12335  0.83935  0.84368  1.0000
  C   C737      1.0  0.01159  0.69854  0.60414  1.0000
  H   H568      1.0  0.02480  0.80051  0.70328  1.0000
  H   H569      1.0  0.05323  0.82835  0.70602  1.0000
  H   H570      1.0  0.01471  0.84561  0.78054  1.0000
  H   H571      1.0  0.10644  0.87214  0.72886  1.0000
  H   H572      1.0  0.12379  0.89098  0.68601  1.0000
  H   H573      1.0  0.09958  0.90140  0.64776  1.0000
  H   H574      1.0  0.05735  0.89308  0.65302  1.0000
  H   H575      1.0  0.03941  0.87430  0.69612  1.0000
  H   H576      1.0  0.09411  0.86408  0.78109  1.0000
  H   H577      1.0  0.13003  0.83912  0.79642  1.0000
  H   H578      1.0  0.14199  0.79798  0.78378  1.0000
  H   H579      1.0  0.11573  0.78152  0.75804  1.0000
  H   H580      1.0  0.07868  0.80586  0.74401  1.0000
  H   H581      1.0  0.03786  0.90719  0.73440  1.0000
  C   C738      1.0  0.99906  0.75685  0.94729  1.0000
  S   S110      1.0  0.40638  0.97004  0.61828  1.0000
  H   H582      1.0  0.03245  0.88793  0.83258  1.0000
  H   H583      1.0  0.05172  0.85739  0.80483  1.0000
  H   H584      1.0  0.45496  0.91105  0.49825  1.0000
  C   C739      1.0  0.01632  0.72789  0.91743  1.0000
  C   C740      1.0  0.04224  0.74739  0.93870  1.0000
  C   C741      1.0  0.04579  0.69154  0.87104  1.0000
  H   H585      1.0  0.13989  0.75184  0.82097  1.0000
  H   H586      1.0  0.32260  0.74407  0.64932  1.0000
  C   C742      1.0  0.33838  0.95693  0.55287  1.0000
  S   S111      1.0  0.14786  0.66761  0.87200  1.0000
  C   C743      1.0  0.08921  0.70823  0.92589  1.0000
  H   H587      1.0  0.37984  0.67087  0.97196  1.0000
  H   H588      1.0  0.34640  0.72349  0.68572  1.0000
  H   H589      1.0  0.01357  0.71562  0.90432  1.0000
  H   H590      1.0  0.34179  0.79005  0.71701  1.0000
  H   H591      1.0  0.08574  0.71001  0.84881  1.0000
  P   P22       1.0  0.00582  0.67031  0.59603  1.0000
  C   C744      1.0  0.02084  0.69901  0.62819  1.0000
  H   H592      1.0  0.16702  0.70145  0.67919  1.0000
  C   C745      1.0  0.19331  0.86845  0.90717  1.0000
  C   C746      1.0  0.20461  0.88266  0.85278  1.0000
  H   H593      1.0  0.02386  0.68276  0.64215  1.0000
  C   C747      1.0  0.07647  0.76085  0.87857  1.0000
  C   C748      1.0  0.44973  0.97108  0.56121  1.0000
  H   H594      1.0  0.24049  0.74366  0.91976  1.0000
  H   H595      1.0  0.18538  0.69509  0.72112  1.0000
  H   H596      1.0  0.18100  0.77500  0.88652  1.0000
  C   C749      1.0  0.45259  0.87764  0.63012  1.0000
  H   H597      1.0  0.38856  0.94962  0.55749  1.0000
  C   C750      1.0  0.34014  0.74258  0.68457  1.0000
  C   C751      1.0  0.32675  0.75417  0.66407  1.0000
  C   C752      1.0  0.15248  0.83114  0.86801  1.0000
  C   C753      1.0  0.13126  0.70317  0.93284  1.0000
  H   H598      1.0  0.20892  0.88801  0.83166  1.0000
  H   H599      1.0  0.12396  0.79698  0.83709  1.0000
  C   C754      1.0  0.99079  0.67267  0.56653  1.0000
  C   C755      1.0  0.21888  0.77800  0.91240  1.0000
  S   S112      1.0  0.18758  0.72936  0.95314  1.0000
  C   C756      1.0  0.31870  0.77882  0.66254  1.0000
  C   C757      1.0  0.40622  0.95003  0.51754  1.0000
  C   C758      1.0  0.16879  0.78924  0.87699  1.0000
  H   H600      1.0  0.28147  0.65807  0.89863  1.0000
  C   C759      1.0  0.46347  0.89708  0.61653  1.0000
  C   C760      1.0  0.04928  0.94699  0.90274  1.0000
  C   C761      1.0  0.13776  0.68094  0.78387  1.0000
  C   C762      1.0  0.20454  0.72598  0.71106  1.0000
  H   H601      1.0  0.03695  0.70898  0.86320  1.0000
  C   C763      1.0  0.25398  0.77817  0.74356  1.0000
  H   H602      1.0  0.27737  0.82784  0.72680  1.0000
  H   H603      1.0  0.27383  0.79373  0.68836  1.0000
  C   C764      1.0  0.17462  0.81833  0.93421  1.0000
  C   C765      1.0  0.02850  0.93804  0.91572  1.0000
  C   C766      1.0  0.14941  0.82212  0.93890  1.0000
  C   C767      1.0  0.04357  0.67152  0.85921  1.0000
  H   H604      1.0  0.09587  0.73850  0.81022  1.0000
  C   C768      1.0  0.09153  0.97321  0.89985  1.0000
  S   S113      1.0  0.13384  0.68685  0.74998  1.0000
  H   H605      1.0  0.47832  0.95676  0.50222  1.0000
  P   P23       1.0  0.06599  0.96265  0.92059  1.0000
  H   H606      1.0  0.09334  0.78179  0.81429  1.0000
  C   C769      1.0  0.02056  0.92583  0.87474  1.0000
  C   C770      1.0  0.23519  0.76487  0.74383  1.0000
  C   C771      1.0  0.18976  0.70981  0.70607  1.0000
  C   C772      1.0  0.00918  0.71961  0.58586  1.0000
  H   H607      1.0  0.04037  0.96827  0.97388  1.0000
  H   H608      1.0  0.15123  0.76466  0.86082  1.0000
  C   C773      1.0  0.24008  0.74029  0.74144  1.0000
  C   C774      1.0  0.41790  0.92091  0.55486  1.0000
  H   H609      1.0  0.44820  0.89427  0.54602  1.0000
  C   C775      1.0  0.11800  0.67869  0.80302  1.0000
  H   H610      1.0  0.13840  0.82762  0.92267  1.0000
  H   H611      1.0  0.29226  0.77749  0.74094  1.0000
  C   C776      1.0  0.02274  0.78617  0.85895  1.0000
  C   C777      1.0  0.46432  0.65563  0.89868  1.0000
  C   C778      1.0  0.48329  0.93927  0.56835  1.0000
  C   C779      1.0  0.02646  0.72042  0.63445  1.0000
  C   C780      1.0  0.34214  0.95475  0.52581  1.0000
  H   H612      1.0  0.22169  0.69579  0.79601  1.0000
  H   H613      1.0  0.23671  0.82524  0.86899  1.0000
  C   C781      1.0  0.19463  0.85184  0.88919  1.0000
  P   P24       1.0  0.06599  0.71602  0.90391  1.0000
  H   H614      1.0  0.20680  0.91729  0.86362  1.0000
  H   H615      1.0  0.21682  0.77373  0.74640  1.0000
  Fe  Fe56      1.0  0.19764  0.70719  0.91942  1.0000
  H   H616      1.0  0.01298  0.75727  0.57807  1.0000
  C   C782      1.0  0.19764  0.89202  0.89795  1.0000
  H   H617      1.0  0.32044  0.87397  0.67188  1.0000
  S   S114      1.0  0.18974  0.66930  0.92424  1.0000
  Fe  Fe57      1.0  0.22787  0.65958  0.90755  1.0000
  S   S115      1.0  0.23663  0.69670  0.90647  1.0000
  C   C783      1.0  0.43662  0.90997  0.53809  1.0000
  H   H618      1.0  0.30836  0.78760  0.64651  1.0000
  H   H619      1.0  0.12113  0.67038  0.70022  1.0000
  C   C784      1.0  0.33743  0.78030  0.70210  1.0000
  H   H620      1.0  0.08141  0.79593  0.85794  1.0000
  C   C785      1.0  0.09094  0.74479  0.82930  1.0000
  S   S116      1.0  0.02585  0.68579  0.70263  1.0000
  C   C786      1.0  0.32383  0.79204  0.68165  1.0000
  H   H621      1.0  0.99143  0.79477  0.73915  1.0000
  H   H622      1.0  0.35596  0.74670  0.71940  1.0000
  H   H623      1.0  0.00341  0.71949  0.56658  1.0000
  C   C787      1.0  0.08288  0.77699  0.85636  1.0000
  C   C788      1.0  0.33230  0.73450  0.88567  1.0000
  C   C789      1.0  0.16734  0.73283  0.76344  1.0000
  C   C790      1.0  0.34551  0.75565  0.70354  1.0000
  H   H624      1.0  0.23439  0.68168  0.71446  1.0000
  C   C791      1.0  0.11335  0.70852  0.91573  1.0000
  H   H625      1.0  0.23611  0.65346  0.81076  1.0000
  H   H626      1.0  0.99870  0.91985  0.91207  1.0000
  C   C792      1.0  0.08474  0.72859  0.85141  1.0000
  H   H627      1.0  0.07077  0.76760  0.89732  1.0000
  C   C793      1.0  0.14562  0.75437  0.93457  1.0000
  C   C794      1.0  0.19140  0.73340  0.76695  1.0000
  C   C795      1.0  0.03542  0.65347  0.59161  1.0000
  H   H628      1.0  0.00982  0.91701  0.86424  1.0000
  C   C796      1.0  0.02211  0.76006  0.95162  1.0000
  C   C797      1.0  0.22601  0.69177  0.75411  1.0000
  C   C798      1.0  0.14888  0.73958  0.78277  1.0000
  C   C799      1.0  0.19652  0.74129  0.78999  1.0000
  H   H629      1.0  0.21490  0.74171  0.79337  1.0000
  C   C800      1.0  0.03783  0.65676  0.69510  1.0000
  C   C801      1.0  0.07662  0.73659  0.87606  1.0000
  C   C802      1.0  0.40296  0.94115  0.54462  1.0000
  C   C803      1.0  0.42514  0.93945  0.50082  1.0000
  C   C804      1.0  0.44047  0.91944  0.51113  1.0000
  C   C805      1.0  0.22719  0.68366  0.78127  1.0000
  C   C806      1.0  0.17795  0.74823  0.80917  1.0000
  H   H630      1.0  0.08515  0.66454  0.91521  1.0000
  C   C807      1.0  0.12137  0.67406  0.83005  1.0000
  C   C808      1.0  0.30791  0.71847  0.92500  1.0000
  H   H631      1.0  0.18177  0.67436  0.82499  1.0000
  C   C809      1.0  0.00340  0.80771  0.73994  1.0000
  C   C810      1.0  0.26757  0.78627  0.95770  1.0000
  Fe  Fe58      1.0  0.40514  0.95892  0.66213  1.0000
  H   H632      1.0  0.18210  0.75414  0.82683  1.0000
  C   C811      1.0  0.18823  0.81152  0.95585  1.0000
  C   C812      1.0  0.45500  0.97159  0.53380  1.0000
  C   C813      1.0  0.06053  0.68936  0.89157  1.0000
  P   P25       1.0  0.18928  0.82128  0.90062  1.0000
  H   H633      1.0  0.39421  0.96531  0.50959  1.0000
  H   H634      1.0  0.01561  0.92856  0.81157  1.0000
  C   C814      1.0  0.03957  0.73126  0.92138  1.0000
  H   H635      1.0  0.01512  0.74984  0.86168  1.0000
  C   C815      1.0  0.15416  0.74711  0.80575  1.0000
  C   C816      1.0  0.19995  0.85924  0.86190  1.0000
  C   C817      1.0  0.99617  0.74073  0.93026  1.0000
  H   H636      1.0  0.07422  0.66025  0.69935  1.0000
  H   H637      1.0  0.27490  0.75510  0.88767  1.0000
  H   H638      1.0  0.29239  0.70181  0.86898  1.0000
  H   H639      1.0  0.20369  0.77236  0.92562  1.0000
  H   H640      1.0  0.07787  0.91018  0.93113  1.0000
  C   C818      1.0  0.34521  0.69155  0.96649  1.0000
  H   H641      1.0  0.32429  0.72612  0.84829  1.0000
  H   H642      1.0  0.34641  0.74493  0.87665  1.0000
  H   H643      1.0  0.11847  0.71295  0.89464  1.0000
  C   C819      1.0  0.23974  0.76160  0.90901  1.0000
  H   H644      1.0  0.18876  0.86332  0.92822  1.0000
  H   H645      1.0  0.43357  0.88028  0.63700  1.0000
  H   H646      1.0  0.33602  0.74014  0.92543  1.0000
  H   H647      1.0  0.19639  0.90485  0.91185  1.0000
  H   H648      1.0  0.45230  0.66862  0.88714  1.0000
  C   C820      1.0  0.30198  0.71015  0.88131  1.0000
  H   H649      1.0  0.03363  0.65689  0.79515  1.0000
  C   C821      1.0  0.46388  0.95514  0.57846  1.0000
  H   H650      1.0  0.20765  0.80870  0.95270  1.0000
  H   H651      1.0  0.02347  0.93900  0.93673  1.0000
  C   C822      1.0  0.08875  0.95263  0.96677  1.0000
  C   C823      1.0  0.47447  0.95631  0.52353  1.0000
  S   S117      1.0  0.36629  0.97349  0.67102  1.0000
  H   H652      1.0  0.08615  0.97185  0.96714  1.0000
  C   C824      1.0  0.28203  0.76523  0.95124  1.0000
  C   C825      1.0  0.15209  0.78331  0.86211  1.0000
  C   C826      1.0  0.04156  0.93412  0.86184  1.0000
  C   C827      1.0  0.16402  0.67540  0.81893  1.0000
  S   S118      1.0  0.00224  0.88421  0.96209  1.0000
  C   C828      1.0  0.21731  0.80116  0.89807  1.0000
  C   C829      1.0  0.02340  0.74146  0.61652  1.0000
  C   C830      1.0  0.01419  0.92757  0.90172  1.0000
  H   H653      1.0  0.01887  0.93799  0.76242  1.0000
  H   H654      1.0  0.34906  0.93742  0.51945  1.0000
  C   C831      1.0  0.11072  0.76868  0.96391  1.0000
  S   S119      1.0  0.08065  0.78209  0.96976  1.0000
  C   C832      1.0  0.14426  0.67295  0.83805  1.0000
  C   C833      1.0  0.00062  0.82060  0.76155  1.0000
  C   C834      1.0  0.07297  0.66671  0.90013  1.0000
  C   C835      1.0  0.05572  0.94491  0.87566  1.0000
  H   H655      1.0  0.10733  0.93751  0.89135  1.0000
  H   H656      1.0  0.10118  0.88399  0.96438  1.0000
  H   H657      1.0  0.27284  0.79615  0.86292  1.0000
  C   C836      1.0  0.08412  0.91805  0.94649  1.0000
  H   H658      1.0  0.10020  0.68008  0.79703  1.0000
  C   C837      1.0  0.23431  0.67569  0.73555  1.0000
  H   H659      1.0  0.34127  0.97303  0.48611  1.0000
  C   C838      1.0  0.46607  0.85496  0.63450  1.0000
  H   H660      1.0  0.03271  0.67372  0.84283  1.0000
  H   H661      1.0  0.32418  0.66082  0.90275  1.0000
  H   H662      1.0  0.45271  0.91454  0.61368  1.0000
  C   C839      1.0  0.10140  0.69644  0.97034  1.0000
  H   H663      1.0  0.45748  0.83997  0.64493  1.0000
  C   C840      1.0  0.33772  0.97501  0.50700  1.0000
  H   H664      1.0  0.04720  0.93188  0.84123  1.0000
  H   H665      1.0  0.02795  0.75798  0.62141  1.0000
  H   H666      1.0  0.34347  0.68363  0.94898  1.0000
  C   C841      1.0  0.09726  0.90310  0.96542  1.0000
  C   C842      1.0  0.23549  0.65961  0.78976  1.0000
  H   H667      1.0  0.14968  0.70432  0.92493  1.0000
  H   H668      1.0  0.29241  0.76569  0.93199  1.0000
  H   H669      1.0  0.34216  0.94128  0.56743  1.0000
  H   H670      1.0  0.03339  0.72057  0.65322  1.0000
  C   C843      1.0  0.05064  0.65850  0.56817  1.0000
  C   C844      1.0  0.13803  0.81825  0.96475  1.0000
  H   H671      1.0  0.14236  0.95103  0.86286  1.0000
  H   H672      1.0  0.07158  0.95153  0.86493  1.0000
  H   H673      1.0  0.29979  0.98403  0.47913  1.0000
  C   C845      1.0  0.28032  0.69280  0.97066  1.0000
  S   S120      1.0  0.43183  0.96416  0.68900  1.0000
  C   C846      1.0  0.28234  0.74391  0.96917  1.0000
  C   C847      1.0  0.08335  0.70167  0.95326  1.0000
  H   H674      1.0  0.24765  0.71582  0.96023  1.0000
  P   P26       1.0  0.29940  0.71601  0.96046  1.0000
  H   H675      1.0  0.22172  0.68421  0.97296  1.0000
  H   H676      1.0  0.06485  0.70095  0.96146  1.0000
  C   C848      1.0  0.99711  0.65522  0.54918  1.0000
  C   C849      1.0  0.98679  0.65480  0.62181  1.0000
  H   H677      1.0  0.13943  0.69380  0.97325  1.0000
  Fe  Fe59      1.0  0.36672  0.98178  0.62667  1.0000
  H   H678      1.0  0.32851  0.98137  0.58206  1.0000
  H   H679      1.0  0.43461  0.98313  0.56896  1.0000
  H   H680      1.0  0.98652  0.81760  0.77761  1.0000
  C   C850      1.0  0.03455  0.98379  0.96006  1.0000
  H   H681      1.0  0.44385  0.98366  0.52044  1.0000
  H   H682      1.0  0.45458  0.98474  0.63792  1.0000
  C   C851      1.0  0.56335  0.05417  0.43034  1.0000
  C   C852      1.0  0.86877  0.04123  0.05402  1.0000
  Fe  Fe60      1.0  0.95462  0.02922  0.03033  1.0000
  C   C853      1.0  0.50984  0.04923  0.46790  1.0000
  S   S121      1.0  0.93958  0.03447  0.07209  1.0000
  H   H683      1.0  0.86577  0.07907  0.99116  1.0000
  Fe  Fe61      1.0  0.97813  0.02786  0.08138  1.0000
  Fe  Fe62      1.0  0.94056  0.99438  0.07848  1.0000
  H   H684      1.0  0.96209  0.01981  0.16853  1.0000
  H   H685      1.0  0.56432  0.98795  0.35778  1.0000
  C   C854      1.0  0.77824  0.01981  0.00643  1.0000
  C   C855      1.0  0.76703  0.03035  0.05090  1.0000
  H   H686      1.0  0.52602  0.04359  0.31904  1.0000
  H   H687      1.0  0.52611  0.10133  0.36430  1.0000
  C   C856      1.0  0.74752  0.04642  0.04193  1.0000
  H   H688      1.0  0.72857  0.06202  0.00812  1.0000
  H   H689      1.0  0.83491  0.00512  0.99213  1.0000
  C   C857      1.0  0.87387  0.01655  0.05308  1.0000
  H   H690      1.0  0.75559  0.03822  0.97677  1.0000
  S   S122      1.0  0.94143  0.05479  0.99522  1.0000
  H   H691      1.0  0.77856  0.10793  0.99020  1.0000
  C   C858      1.0  0.75868  0.03585  0.99755  1.0000
  H   H692      1.0  0.95525  0.31290  0.40522  1.0000
  H   H693      1.0  0.79438  0.06558  0.98549  1.0000
  P   P27       1.0  0.80874  0.99764  0.04490  1.0000
  C   C859      1.0  0.48669  0.14150  0.44367  1.0000
  C   C860      1.0  0.83192  0.01496  0.04887  1.0000
  H   H694      1.0  0.81194  0.22657  0.99517  1.0000
  C   C861      1.0  0.84820  0.17472  0.01418  1.0000
  P   P28       1.0  0.85907  0.13044  0.99439  1.0000
  H   H695      1.0  0.91281  0.01569  0.00863  1.0000
  H   H696      1.0  0.90681  0.10264  0.00218  1.0000
  H   H697      1.0  0.89205  0.00750  0.05454  1.0000
  S   S123      1.0  0.95284  0.98957  0.03595  1.0000
  C   C862      1.0  0.90803  0.09496  0.04415  1.0000
  C   C863      1.0  0.89569  0.09696  0.06933  1.0000
  C   C864      1.0  0.87225  0.10913  0.07176  1.0000
  C   C865      1.0  0.86127  0.11958  0.04901  1.0000
  C   C866      1.0  0.87386  0.11828  0.02367  1.0000
  C   C867      1.0  0.89709  0.10527  0.02141  1.0000
  C   C868      1.0  0.91740  0.04738  0.98083  1.0000
  H   H698      1.0  0.54870  0.11507  0.42302  1.0000
  C   C869      1.0  0.83816  0.10999  0.99230  1.0000
  C   C870      1.0  0.84678  0.08564  0.99093  1.0000
  C   C871      1.0  0.83097  0.06961  0.98883  1.0000
  C   C872      1.0  0.80647  0.07772  0.98824  1.0000
  C   C873      1.0  0.79760  0.10167  0.99070  1.0000
  C   C874      1.0  0.81330  0.11773  0.99299  1.0000
  C   C875      1.0  0.84442  0.16100  0.99487  1.0000
  H   H699      1.0  0.59012  0.11212  0.43418  1.0000
  S   S124      1.0  0.97771  0.98792  0.09147  1.0000
  H   H700      1.0  0.56813  0.00177  0.39875  1.0000
  C   C876      1.0  0.59659  0.07348  0.43788  1.0000
  H   H701      1.0  0.77009  0.02847  0.07162  1.0000
  C   C877      1.0  0.78277  0.01715  0.03315  1.0000
  C   C878      1.0  0.81797  0.19514  0.97519  1.0000
  H   H702      1.0  0.67113  0.10988  0.98692  1.0000
  H   H703      1.0  0.52011  0.01574  0.36073  1.0000
  C   C879      1.0  0.52666  0.07420  0.33911  1.0000
  H   H704      1.0  0.92603  0.08509  0.04214  1.0000
  H   H705      1.0  0.90424  0.08875  0.08689  1.0000
  H   H706      1.0  0.86255  0.11030  0.09130  1.0000
  H   H707      1.0  0.84293  0.12854  0.05114  1.0000
  C   C880      1.0  0.50179  0.05860  0.44318  1.0000
  H   H708      1.0  0.56921  0.98592  0.26329  1.0000
  H   H709      1.0  0.88310  0.05128  0.05581  1.0000
  H   H710      1.0  0.64242  0.01214  0.38948  1.0000
  C   C881      1.0  0.54899  0.07655  0.42639  1.0000
  C   C882      1.0  0.53903  0.31195  0.04645  1.0000
  H   H711      1.0  0.90144  0.15495  0.98179  1.0000
  H   H712      1.0  0.80573  0.13605  0.99516  1.0000
  H   H713      1.0  0.50507  0.31566  0.03101  1.0000
  C   C883      1.0  0.58698  0.05261  0.43632  1.0000
  C   C884      1.0  0.74345  0.04929  0.01522  1.0000
  C   C885      1.0  0.97803  0.02181  0.17718  1.0000
  H   H714      1.0  0.84135  0.07202  0.05314  1.0000
  C   C886      1.0  0.62841  0.00117  0.39718  1.0000
  H   H715      1.0  0.60014  0.02680  0.38064  1.0000
  C   C887      1.0  0.52172  0.03436  0.36150  1.0000
  H   H716      1.0  0.78977  0.00983  0.99219  1.0000
  H   H717      1.0  0.80890  0.04926  0.04868  1.0000
  H   H718      1.0  0.83925  0.20874  0.02938  1.0000
  H   H719      1.0  0.66373  0.15304  0.99302  1.0000
  C   C888      1.0  0.90676  0.02688  0.99116  1.0000
  H   H720      1.0  0.51724  0.03015  0.40401  1.0000
  H   H721      1.0  0.52921  0.08640  0.32091  1.0000
  H   H722      1.0  0.73565  0.05681  0.05564  1.0000
  C   C889      1.0  0.85560  0.00351  0.05026  1.0000
  C   C890      1.0  0.52502  0.05009  0.33802  1.0000
  C   C891      1.0  0.58665  0.99524  0.40213  1.0000
  H   H723      1.0  0.55605  0.03788  0.42930  1.0000
  C   C892      1.0  0.52275  0.00127  0.22544  1.0000
  C   C893      1.0  0.88851  0.02059  0.97860  1.0000
  C   C894      1.0  0.84526  0.05284  0.05260  1.0000
  H   H724      1.0  0.59763  0.03515  0.44020  1.0000
  H   H725      1.0  0.83775  0.05095  0.98731  1.0000
  C   C895      1.0  0.82685  0.03978  0.05009  1.0000
  H   H726      1.0  0.61476  0.07226  0.44295  1.0000
  C   C896      1.0  0.50079  0.10700  0.42025  1.0000
  H   H727      1.0  0.52611  0.05385  0.47353  1.0000
  C   C897      1.0  0.51970  0.04275  0.38607  1.0000
  C   C898      1.0  0.52049  0.06714  0.38733  1.0000
  C   C899      1.0  0.52469  0.08265  0.36370  1.0000
  P   P29       1.0  0.51848  0.07786  0.41909  1.0000
  C   C900      1.0  0.55901  0.09751  0.42705  1.0000
  H   H728      1.0  0.86019  0.16739  0.02911  1.0000
  H   H729      1.0  0.55337  0.01810  0.22957  1.0000
  C   C901      1.0  0.60467  0.00940  0.39212  1.0000
  H   H730      1.0  0.53351  0.30027  0.06417  1.0000
  C   C902      1.0  0.82125  0.20842  0.99493  1.0000
  C   C903      1.0  0.54388  0.00275  0.23612  1.0000
  C   C904      1.0  0.58267  0.09592  0.43304  1.0000
  H   H731      1.0  0.57424  0.31255  0.05778  1.0000
  H   H732      1.0  0.96350  0.05648  0.18856  1.0000
  H   H733      1.0  0.88051  0.00461  0.98670  1.0000
  H   H734      1.0  0.48723  0.15111  0.46024  1.0000
  H   H735      1.0  0.51583  0.01550  0.21065  1.0000
  H   H736      1.0  0.51290  0.11229  0.45717  1.0000
  C   C905      1.0  0.83653  0.19830  0.01426  1.0000
  S   S125      1.0  0.53798  0.99324  0.44852  1.0000
  C   C906      1.0  0.97890  0.04257  0.18834  1.0000
  C   C907      1.0  0.50146  0.11962  0.44163  1.0000
  C   C908      1.0  0.83349  0.98614  0.99693  1.0000
  Fe  Fe63      1.0  0.83847  0.10288  0.87674  1.0000
  S   S126      1.0  0.86594  0.12804  0.86318  1.0000
  Fe  Fe64      1.0  0.80832  0.06681  0.86579  1.0000
  S   S127      1.0  0.79541  0.04934  0.83463  1.0000
  S   S128      1.0  0.79982  0.10618  0.86923  1.0000
  S   S129      1.0  0.84779  0.06434  0.86973  1.0000
  Fe  Fe65      1.0  0.69166  0.12718  0.71480  1.0000
  S   S130      1.0  0.67315  0.09573  0.73373  1.0000
  S   S131      1.0  0.71722  0.12066  0.67842  1.0000
  Fe  Fe66      1.0  0.66327  0.16040  0.75253  1.0000
  S   S132      1.0  0.64250  0.13161  0.77417  1.0000
  S   S133      1.0  0.65647  0.19855  0.76209  1.0000
  Fe  Fe67      1.0  0.67819  0.10793  0.77201  1.0000
  S   S134      1.0  0.68830  0.08190  0.80788  1.0000
  Fe  Fe68      1.0  0.63962  0.12240  0.73368  1.0000
  S   S135      1.0  0.60417  0.11558  0.72272  1.0000
  S   S136      1.0  0.69942  0.13743  0.75322  1.0000
  S   S137      1.0  0.65768  0.15311  0.71198  1.0000
  Fe  Fe69      1.0  0.66454  0.23670  0.89371  1.0000
  S   S138      1.0  0.64017  0.21217  0.88391  1.0000
  Fe  Fe70      1.0  0.71086  0.23882  0.91721  1.0000
  H   H737      1.0  0.86583  0.10972  0.94408  1.0000
  C   C909      1.0  0.58012  0.16912  0.67896  1.0000
  H   H738      1.0  0.65194  0.05354  0.71947  1.0000
  S   S139      1.0  0.67302  0.23594  0.93558  1.0000
  S   S140      1.0  0.70297  0.23593  0.87619  1.0000
  Fe  Fe71      1.0  0.83808  0.20702  0.73104  1.0000
  S   S141      1.0  0.80885  0.18470  0.73121  1.0000
  S   S142      1.0  0.87109  0.19477  0.75229  1.0000
  Fe  Fe72      1.0  0.81472  0.24918  0.69467  1.0000
  S   S143      1.0  0.78303  0.23054  0.69252  1.0000
  H   H739      1.0  0.71805  0.14125  0.94602  1.0000
  Fe  Fe73      1.0  0.78448  0.21915  0.73608  1.0000
  C   C910      1.0  0.86795  0.29511  0.57471  1.0000
  Fe  Fe74      1.0  0.81006  0.19807  0.68771  1.0000
  S   S144      1.0  0.80789  0.17547  0.65600  1.0000
  S   S145      1.0  0.81359  0.24086  0.73904  1.0000
  S   S146      1.0  0.84187  0.21726  0.68674  1.0000
  Fe  Fe75      1.0  0.57620  0.05425  0.60819  1.0000
  S   S147      1.0  0.55889  0.02150  0.62472  1.0000
  S   S148      1.0  0.61037  0.06260  0.62102  1.0000
  Fe  Fe76      1.0  0.53874  0.07238  0.56929  1.0000
  S   S149      1.0  0.51772  0.04157  0.58264  1.0000
  S   S150      1.0  0.75031  0.21667  0.76289  1.0000
  Fe  Fe77      1.0  0.52402  0.04633  0.62380  1.0000
  Fe  Fe78      1.0  0.79310  0.09357  0.91294  1.0000
  Fe  Fe79      1.0  0.55415  0.01911  0.58238  1.0000
  C   C911      1.0  0.96212  0.99884  0.82889  1.0000
  S   S151      1.0  0.54179  0.07932  0.61058  1.0000
  S   S152      1.0  0.57478  0.04955  0.56567  1.0000
  C   C912      1.0  0.72824  0.31126  0.74731  1.0000
  C   C913      1.0  0.95635  0.99854  0.95772  1.0000
  C   C914      1.0  0.49702  0.03320  0.48544  1.0000
  C   C915      1.0  0.66991  0.04731  0.68134  1.0000
  H   H740      1.0  0.82092  0.25217  0.79505  1.0000
  H   H741      1.0  0.60767  0.23353  0.93996  1.0000
  H   H742      1.0  0.89433  0.25056  0.76095  1.0000
  C   C916      1.0  0.50071  0.18453  0.64222  1.0000
  C   C917      1.0  0.67317  0.11694  0.94421  1.0000
  H   H743      1.0  0.71299  0.20511  0.73431  1.0000
  P   P30       1.0  0.67590  0.12632  0.88869  1.0000
  H   H744      1.0  0.49704  0.17621  0.66250  1.0000
  C   C918      1.0  0.52390  0.18101  0.62864  1.0000
  H   H745      1.0  0.72393  0.10941  0.90335  1.0000
  C   C919      1.0  0.71688  0.09425  0.89829  1.0000
  H   H746      1.0  0.71275  0.15467  0.89692  1.0000
  C   C920      1.0  0.71851  0.18086  0.83301  1.0000
  H   H747      1.0  0.50753  0.15200  0.53349  1.0000
  H   H748      1.0  0.60957  0.11004  0.56954  1.0000
  H   H749      1.0  0.78734  0.30367  0.75958  1.0000
  H   H750      1.0  0.69332  0.03947  0.87907  1.0000
  H   H751      1.0  0.73552  0.26319  0.71324  1.0000
  H   H752      1.0  0.88496  0.27395  0.63661  1.0000
  C   C921      1.0  0.71684  0.24131  0.79495  1.0000
  C   C922      1.0  0.95344  0.31064  0.60118  1.0000
  H   H753      1.0  0.70566  0.22804  0.79298  1.0000
  H   H754      1.0  0.68998  0.26027  0.82072  1.0000
  C   C923      1.0  0.65102  0.20238  0.79596  1.0000
  C   C924      1.0  0.64207  0.18469  0.81501  1.0000
  C   C925      1.0  0.63835  0.18799  0.84195  1.0000
  C   C926      1.0  0.64433  0.20853  0.85007  1.0000
  C   C927      1.0  0.65269  0.22646  0.83101  1.0000
  C   C928      1.0  0.65554  0.22362  0.80398  1.0000
  H   H755      1.0  0.63798  0.16850  0.80906  1.0000
  H   H756      1.0  0.63122  0.17447  0.85655  1.0000
  H   H757      1.0  0.65647  0.24271  0.83717  1.0000
  H   H758      1.0  0.66175  0.23773  0.78939  1.0000
  C   C929      1.0  0.74128  0.13751  0.67171  1.0000
  C   C930      1.0  0.75839  0.13332  0.65005  1.0000
  C   C931      1.0  0.77859  0.14536  0.64508  1.0000
  C   C932      1.0  0.78164  0.16186  0.66157  1.0000
  C   C933      1.0  0.76403  0.16691  0.68255  1.0000
  C   C934      1.0  0.74388  0.15459  0.68775  1.0000
  H   H759      1.0  0.75629  0.12030  0.63747  1.0000
  H   H760      1.0  0.79210  0.14152  0.62875  1.0000
  H   H761      1.0  0.76631  0.17972  0.69532  1.0000
  H   H762      1.0  0.73057  0.15805  0.70434  1.0000
  C   C935      1.0  0.60580  0.10195  0.69368  1.0000
  C   C936      1.0  0.62745  0.09807  0.67746  1.0000
  C   C937      1.0  0.62849  0.08649  0.65486  1.0000
  C   C938      1.0  0.60792  0.07882  0.64828  1.0000
  C   C939      1.0  0.58601  0.08380  0.66377  1.0000
  C   C940      1.0  0.58503  0.09504  0.68661  1.0000
  H   H763      1.0  0.64351  0.10363  0.68252  1.0000
  H   H764      1.0  0.64536  0.08324  0.64257  1.0000
  H   H765      1.0  0.56996  0.07845  0.65853  1.0000
  H   H766      1.0  0.56823  0.09803  0.69904  1.0000
  C   C941      1.0  0.86858  0.17559  0.78267  1.0000
  C   C942      1.0  0.88765  0.17198  0.79828  1.0000
  C   C943      1.0  0.88645  0.15730  0.82278  1.0000
  C   C944      1.0  0.86645  0.14548  0.83168  1.0000
  C   C945      1.0  0.84753  0.14839  0.81583  1.0000
  C   C946      1.0  0.84857  0.16357  0.79131  1.0000
  H   H767      1.0  0.90329  0.18089  0.79154  1.0000
  H   H768      1.0  0.90113  0.15512  0.83490  1.0000
  H   H769      1.0  0.83197  0.13936  0.82261  1.0000
  H   H770      1.0  0.83394  0.16590  0.77915  1.0000
  C   C947      1.0  0.76624  0.06012  0.82563  1.0000
  C   C948      1.0  0.75210  0.07946  0.83648  1.0000
  C   C949      1.0  0.72876  0.08744  0.82930  1.0000
  C   C950      1.0  0.71919  0.07571  0.81180  1.0000
  C   C951      1.0  0.73341  0.05651  0.80074  1.0000
  C   C952      1.0  0.75690  0.04885  0.80749  1.0000
  H   H771      1.0  0.75899  0.08810  0.85069  1.0000
  H   H772      1.0  0.71785  0.10222  0.83798  1.0000
  H   H773      1.0  0.72600  0.04709  0.78757  1.0000
  H   H774      1.0  0.76761  0.03376  0.79916  1.0000
  C   C953      1.0  0.62557  0.13554  0.89401  1.0000
  C   C954      1.0  0.55618  0.00652  0.48982  1.0000
  H   H775      1.0  0.70602  0.14517  0.61327  1.0000
  H   H776      1.0  0.68239  0.15981  0.65305  1.0000
  H   H777      1.0  0.51671  0.04512  0.71317  1.0000
  H   H778      1.0  0.58302  0.12850  0.85565  1.0000
  C   C955      1.0  0.92712  0.08853  0.86512  1.0000
  C   C956      1.0  0.64558  0.03869  0.79324  1.0000
  H   H779      1.0  0.67630  0.09806  0.94194  1.0000
  H   H780      1.0  0.56620  0.12059  0.56473  1.0000
  C   C957      1.0  0.82660  0.30840  0.67968  1.0000
  C   C958      1.0  0.88130  0.24600  0.77766  1.0000
  H   H781      1.0  0.72811  0.19407  0.82025  1.0000
  C   C959      1.0  0.70713  0.22016  0.71983  1.0000
  C   C960      1.0  0.56617  0.03205  0.74695  1.0000
  H   H782      1.0  0.82658  0.29193  0.72038  1.0000
  C   C961      1.0  0.60283  0.13621  0.88581  1.0000
  C   C962      1.0  0.89764  0.12132  0.92235  1.0000
  C   C963      1.0  0.77950  0.24910  0.86161  1.0000
  H   H783      1.0  0.85921  0.00595  0.78586  1.0000
  C   C964      1.0  0.80345  0.25166  0.85210  1.0000
  C   C965      1.0  0.60758  0.12783  0.60416  1.0000
  H   H784      1.0  0.53671  0.15885  0.70322  1.0000
  C   C966      1.0  0.86382  0.18467  0.90502  1.0000
  H   H785      1.0  0.96632  0.04356  0.89361  1.0000
  C   C967      1.0  0.53546  0.04094  0.71674  1.0000
  C   C968      1.0  0.91646  0.13464  0.92188  1.0000
  C   C969      1.0  0.57622  0.21879  0.66453  1.0000
  H   H786      1.0  0.61247  0.99268  0.51354  1.0000
  C   C970      1.0  0.68458  0.25959  0.70982  1.0000
  H   H787      1.0  0.89123  0.01741  0.89773  1.0000
  H   H788      1.0  0.53510  0.28752  0.84797  1.0000
  C   C971      1.0  0.50929  0.20652  0.58988  1.0000
  C   C972      1.0  0.90951  0.06169  0.95798  1.0000
  C   C973      1.0  0.89098  0.05559  0.94557  1.0000
  H   H789      1.0  0.77356  0.23162  0.86637  1.0000
  H   H790      1.0  0.73399  0.28192  0.63865  1.0000
  H   H791      1.0  0.68675  0.24034  0.74932  1.0000
  C   C974      1.0  0.88570  0.28535  0.67430  1.0000
  H   H792      1.0  0.90035  0.22953  0.57833  1.0000
  C   C975      1.0  0.88046  0.03499  0.95589  1.0000
  C   C976      1.0  0.53497  0.14045  0.66946  1.0000
  H   H793      1.0  0.94395  0.00326  0.82340  1.0000
  C   C977      1.0  0.58732  0.28403  0.89959  1.0000
  H   H794      1.0  0.60392  0.26323  0.97174  1.0000
  H   H795      1.0  0.48745  0.14800  0.61311  1.0000
  H   H796      1.0  0.89640  0.11199  0.90575  1.0000
  C   C978      1.0  0.55843  0.13907  0.59929  1.0000
  H   H797      1.0  0.83927  0.28170  0.56018  1.0000
  C   C979      1.0  0.51648  0.10390  0.68039  1.0000
  C   C980      1.0  0.98115  0.99392  0.80930  1.0000
  C   C981      1.0  0.55319  0.03869  0.69533  1.0000
  C   C982      1.0  0.57201  0.27074  0.85070  1.0000
  C   C983      1.0  0.54842  0.27229  0.84413  1.0000
  C   C984      1.0  0.54177  0.25412  0.83214  1.0000
  C   C985      1.0  0.55859  0.23432  0.82650  1.0000
  C   C986      1.0  0.58205  0.23264  0.83290  1.0000
  C   C987      1.0  0.58870  0.25069  0.84500  1.0000
  H   H798      1.0  0.52877  0.11834  0.64089  1.0000
  S   S153      1.0  0.65555  0.27672  0.88584  1.0000
  S   S154      1.0  0.49722  0.04694  0.66026  1.0000
  C   C988      1.0  0.69313  0.14702  0.86637  1.0000
  H   H799      1.0  0.91801  0.07731  0.94970  1.0000
  C   C989      1.0  0.67079  0.03530  0.65929  1.0000
  C   C990      1.0  0.52106  0.12650  0.71534  1.0000
  H   H800      1.0  0.52817  0.03945  0.75918  1.0000
  H   H801      1.0  0.52359  0.25545  0.82706  1.0000
  H   H802      1.0  0.55355  0.22031  0.81705  1.0000
  H   H803      1.0  0.59522  0.21742  0.82835  1.0000
  H   H804      1.0  0.60705  0.24914  0.84961  1.0000
  C   C991      1.0  0.81275  0.07765  0.66052  1.0000
  C   C992      1.0  0.78833  0.07543  0.66255  1.0000
  C   C993      1.0  0.77360  0.07935  0.68599  1.0000
  C   C994      1.0  0.78314  0.08584  0.70726  1.0000
  C   C995      1.0  0.80751  0.08882  0.70509  1.0000
  C   C996      1.0  0.82239  0.08402  0.68184  1.0000
  P   P31       1.0  0.82011  0.09613  0.73295  1.0000
  C   C997      1.0  0.79701  0.11250  0.75337  1.0000
  C   C998      1.0  0.83275  0.06788  0.75012  1.0000
  C   C999      1.0  0.81755  0.05279  0.76577  1.0000
  C   C1000     1.0  0.82712  0.03053  0.77858  1.0000
  C   C1001     1.0  0.85189  0.02307  0.77560  1.0000
  C   C1002     1.0  0.86710  0.03774  0.75944  1.0000
  C   C1003     1.0  0.85756  0.06000  0.74654  1.0000
  C   C1004     1.0  0.79531  0.10791  0.78117  1.0000
  C   C1005     1.0  0.77742  0.12133  0.79637  1.0000
  C   C1006     1.0  0.76128  0.13942  0.78402  1.0000
  C   C1007     1.0  0.76348  0.14464  0.75641  1.0000
  C   C1008     1.0  0.78137  0.13127  0.74117  1.0000
  C   C1009     1.0  0.84195  0.11657  0.72320  1.0000
  C   C1010     1.0  0.84192  0.13152  0.69875  1.0000
  C   C1011     1.0  0.85789  0.14847  0.69215  1.0000
  C   C1012     1.0  0.87370  0.15085  0.71007  1.0000
  C   C1013     1.0  0.87355  0.13629  0.73461  1.0000
  C   C1014     1.0  0.85752  0.11943  0.74134  1.0000
  H   H805      1.0  0.82418  0.07455  0.64237  1.0000
  H   H806      1.0  0.78072  0.07086  0.64596  1.0000
  H   H807      1.0  0.75460  0.07786  0.68754  1.0000
  H   H808      1.0  0.77135  0.08869  0.72526  1.0000
  H   H809      1.0  0.84139  0.08543  0.68012  1.0000
  H   H810      1.0  0.79831  0.05837  0.76838  1.0000
  H   H811      1.0  0.81526  0.01934  0.79128  1.0000
  C   C1015     1.0  0.63398  0.06197  0.79541  1.0000
  H   H812      1.0  0.88627  0.03187  0.75689  1.0000
  H   H813      1.0  0.86954  0.07094  0.73373  1.0000
  H   H814      1.0  0.80768  0.09411  0.79123  1.0000
  H   H815      1.0  0.77610  0.11764  0.81777  1.0000
  H   H816      1.0  0.74724  0.14962  0.79576  1.0000
  H   H817      1.0  0.75145  0.15918  0.74687  1.0000
  H   H818      1.0  0.78321  0.13554  0.71981  1.0000
  H   H819      1.0  0.82905  0.13078  0.68512  1.0000
  H   H820      1.0  0.85736  0.16033  0.67351  1.0000
  H   H821      1.0  0.88546  0.16457  0.70539  1.0000
  H   H822      1.0  0.88523  0.13880  0.74884  1.0000
  H   H823      1.0  0.85683  0.10912  0.76096  1.0000
  C   C1016     1.0  0.69386  0.09709  0.88997  1.0000
  C   C1017     1.0  0.64638  0.12650  0.87846  1.0000
  P   P32       1.0  0.94210  0.00564  0.88028  1.0000
  C   C1018     1.0  0.58418  0.02965  0.72550  1.0000
  H   H824      1.0  0.50384  0.02524  0.50404  1.0000
  C   C1019     1.0  0.62112  0.11857  0.84669  1.0000
  C   C1020     1.0  0.64386  0.11796  0.85478  1.0000
  C   C1021     1.0  0.68516  0.07696  0.88383  1.0000
  C   C1022     1.0  0.69971  0.05464  0.88497  1.0000
  Fe  Fe80      1.0  0.66690  0.27624  0.92633  1.0000
  C   C1023     1.0  0.69034  0.15200  0.83911  1.0000
  P   P33       1.0  0.58110  0.29446  0.86558  1.0000
  H   H825      1.0  0.79437  0.14102  0.93058  1.0000
  S   S155      1.0  0.64672  0.29860  0.95701  1.0000
  H   H826      1.0  0.61947  0.11205  0.82829  1.0000
  H   H827      1.0  0.65950  0.11073  0.84254  1.0000
  H   H828      1.0  0.66740  0.07827  0.87781  1.0000
  H   H829      1.0  0.68620  0.19927  0.66474  1.0000
  C   C1024     1.0  0.72271  0.17732  0.60143  1.0000
  H   H830      1.0  0.70018  0.17311  0.80171  1.0000
  H   H831      1.0  0.67834  0.14331  0.83037  1.0000
  H   H832      1.0  0.85325  0.18029  0.86751  1.0000
  C   C1025     1.0  0.89142  0.24790  0.57702  1.0000
  H   H833      1.0  0.55155  0.21430  0.63781  1.0000
  C   C1026     1.0  0.77303  0.17583  0.93192  1.0000
  C   C1027     1.0  0.91615  0.99201  0.87682  1.0000
  C   C1028     1.0  0.95085  0.99354  0.91280  1.0000
  H   H834      1.0  0.85544  0.99929  0.89335  1.0000
  H   H835      1.0  0.66128  0.18435  0.95366  1.0000
  C   C1029     1.0  0.89096  0.30310  0.68790  1.0000
  C   C1030     1.0  0.72190  0.17561  0.85987  1.0000
  P   P34       1.0  0.61522  0.02044  0.73193  1.0000
  C   C1031     1.0  0.62151  0.03586  0.75810  1.0000
  H   H836      1.0  0.77523  0.29271  0.63104  1.0000
  C   C1032     1.0  0.66775  0.15891  0.92559  1.0000
  C   C1033     1.0  0.87305  0.99130  0.88533  1.0000
  C   C1034     1.0  0.61621  0.07224  0.77900  1.0000
  C   C1035     1.0  0.61008  0.05931  0.76034  1.0000
  P   P35       1.0  0.90455  0.31152  0.59632  1.0000
  C   C1036     1.0  0.69413  0.17113  0.64032  1.0000
  S   S156      1.0  0.79903  0.05436  0.90898  1.0000
  C   C1037     1.0  0.74018  0.24001  0.78206  1.0000
  H   H837      1.0  0.63467  0.27342  0.61484  1.0000
  S   S157      1.0  0.71135  0.29752  0.83541  1.0000
  H   H838      1.0  0.51894  0.12863  0.73621  1.0000
  C   C1038     1.0  0.89929  0.30783  0.63221  1.0000
  H   H839      1.0  0.53643  0.30130  0.90090  1.0000
  C   C1039     1.0  0.52696  0.12076  0.66157  1.0000
  H   H840      1.0  0.74413  0.26713  0.87178  1.0000
  H   H841      1.0  0.60770  0.09057  0.78002  1.0000
  H   H842      1.0  0.59695  0.06796  0.74707  1.0000
  C   C1040     1.0  0.75468  0.25716  0.78473  1.0000
  C   C1041     1.0  0.70288  0.16894  0.82259  1.0000
  H   H843      1.0  0.80998  0.26194  0.62145  1.0000
  H   H844      1.0  0.60147  0.21791  0.69302  1.0000
  C   C1042     1.0  0.72360  0.29015  0.73926  1.0000
  C   C1043     1.0  0.65258  0.04350  0.70301  1.0000
  C   C1044     1.0  0.70741  0.16289  0.61778  1.0000
  H   H845      1.0  0.92343  0.10798  0.86155  1.0000
  C   C1045     1.0  0.72237  0.27643  0.81364  1.0000
  C   C1046     1.0  0.53144  0.14349  0.69650  1.0000
  C   C1047     1.0  0.97785  0.30840  0.59172  1.0000
  H   H846      1.0  0.87314  0.16656  0.90798  1.0000
  H   H847      1.0  0.59710  0.24630  0.89484  1.0000
  C   C1048     1.0  0.56306  0.20523  0.65259  1.0000
  C   C1049     1.0  0.69668  0.19342  0.64709  1.0000
  C   C1050     1.0  0.59498  0.25967  0.90808  1.0000
  H   H848      1.0  0.79860  0.31277  0.84657  1.0000
  Fe  Fe81      1.0  0.83752  0.05593  0.91350  1.0000
  C   C1051     1.0  0.74900  0.26837  0.63403  1.0000
  H   H849      1.0  0.60477  0.17375  0.70578  1.0000
  C   C1052     1.0  0.60077  0.25218  0.93403  1.0000
  C   C1053     1.0  0.54195  0.03772  0.74257  1.0000
  H   H850      1.0  0.87781  0.27009  0.68521  1.0000
  C   C1054     1.0  0.73107  0.07180  0.90014  1.0000
  S   S158      1.0  0.70542  0.27912  0.91167  1.0000
  P   P36       1.0  0.82535  0.22546  0.84799  1.0000
  H   H851      1.0  0.73294  0.17092  0.58391  1.0000
  H   H852      1.0  0.65490  0.01030  0.64174  1.0000
  S   S159      1.0  0.83077  0.09418  0.92099  1.0000
  C   C1055     1.0  0.56044  0.00494  0.51637  1.0000
  H   H853      1.0  0.58188  0.14989  0.68467  1.0000
  H   H854      1.0  0.62675  0.14264  0.91215  1.0000
  C   C1056     1.0  0.76521  0.22714  0.62875  1.0000
  C   C1057     1.0  0.63936  0.02562  0.77471  1.0000
  C   C1058     1.0  0.88975  0.28771  0.64656  1.0000
  C   C1059     1.0  0.77225  0.27461  0.62956  1.0000
  C   C1060     1.0  0.79191  0.25725  0.62419  1.0000
  H   H855      1.0  0.72614  0.20413  0.68659  1.0000
  C   C1061     1.0  0.78594  0.16975  0.85985  1.0000
  H   H856      1.0  0.84955  0.23528  0.93489  1.0000
  H   H857      1.0  0.53939  0.14272  0.59720  1.0000
  C   C1062     1.0  0.70962  0.15852  0.87632  1.0000
  H   H858      1.0  0.59068  0.03170  0.68251  1.0000
  H   H859      1.0  0.75703  0.28842  0.80310  1.0000
  H   H860      1.0  0.92993  0.13562  0.90485  1.0000
  H   H861      1.0  0.64896  0.29591  0.79356  1.0000
  C   C1063     1.0  0.71274  0.20765  0.63134  1.0000
  C   C1064     1.0  0.72502  0.19983  0.60790  1.0000
  C   C1065     1.0  0.78838  0.23356  0.62382  1.0000
  C   C1066     1.0  0.56488  0.18024  0.65982  1.0000
  H   H862      1.0  0.78450  0.18303  0.79307  1.0000
  H   H863      1.0  0.76319  0.20839  0.62998  1.0000
  H   H864      1.0  0.54806  0.04150  0.67533  1.0000
  C   C1067     1.0  0.59318  0.18265  0.69089  1.0000
  H   H865      1.0  0.66686  0.17277  0.90867  1.0000
  C   C1068     1.0  0.75752  0.29161  0.70548  1.0000
  H   H866      1.0  0.80374  0.21990  0.62082  1.0000
  C   C1069     1.0  0.84732  0.23269  0.82019  1.0000
  H   H867      1.0  0.64898  0.00787  0.77295  1.0000
  H   H868      1.0  0.60041  0.14494  0.63916  1.0000
  C   C1070     1.0  0.57744  0.03300  0.69960  1.0000
  H   H869      1.0  0.68363  0.03895  0.64210  1.0000
  C   C1071     1.0  0.85703  0.27730  0.56680  1.0000
  H   H870      1.0  0.68212  0.06024  0.68130  1.0000
  C   C1072     1.0  0.78025  0.16855  0.83448  1.0000
  C   C1073     1.0  0.63768  0.01481  0.68104  1.0000
  C   C1074     1.0  0.65462  0.01914  0.65911  1.0000
  C   C1075     1.0  0.74525  0.24468  0.63306  1.0000
  C   C1076     1.0  0.69174  0.25902  0.68270  1.0000
  C   C1077     1.0  0.51367  0.10665  0.70729  1.0000
  C   C1078     1.0  0.59255  0.14043  0.62278  1.0000
  H   H871      1.0  0.56979  0.01805  0.52244  1.0000
  H   H872      1.0  0.97760  0.99432  0.78893  1.0000
  H   H873      1.0  0.76862  0.15597  0.83188  1.0000
  S   S160      1.0  0.85719  0.02680  0.94097  1.0000
  C   C1079     1.0  0.74572  0.27547  0.80052  1.0000
  C   C1080     1.0  0.60784  0.30514  0.84729  1.0000
  C   C1081     1.0  0.83988  0.24661  0.79690  1.0000
  H   H874      1.0  0.73662  0.21096  0.59477  1.0000
  H   H875      1.0  0.82216  0.29474  0.78524  1.0000
  C   C1082     1.0  0.89078  0.28944  0.58380  1.0000
  C   C1083     1.0  0.96860  0.29921  0.54990  1.0000
  C   C1084     1.0  0.61859  0.29635  0.82367  1.0000
  C   C1085     1.0  0.78905  0.18394  0.81277  1.0000
  S   S161      1.0  0.53220  0.10458  0.53829  1.0000
  H   H876      1.0  0.80982  0.21261  0.79941  1.0000
  C   C1086     1.0  0.85241  0.19248  0.88205  1.0000
  C   C1087     1.0  0.59857  0.26883  0.95192  1.0000
  Fe  Fe82      1.0  0.69481  0.27611  0.87185  1.0000
  H   H877      1.0  0.72258  0.27166  0.59075  1.0000
  C   C1088     1.0  0.59807  0.12069  0.58328  1.0000
  H   H878      1.0  0.90783  0.22600  0.80194  1.0000
  C   C1089     1.0  0.80350  0.20073  0.81648  1.0000
  P   P37       1.0  0.71506  0.23708  0.63916  1.0000
  C   C1090     1.0  0.70796  0.25947  0.81064  1.0000
  H   H879      1.0  0.90545  0.03963  0.85238  1.0000
  C   C1091     1.0  0.73339  0.15091  0.94194  1.0000
  H   H880      1.0  0.57474  0.23806  0.65895  1.0000
  H   H881      1.0  0.87837  0.21443  0.83938  1.0000
  H   H882      1.0  0.77274  0.25623  0.77489  1.0000
  H   H883      1.0  0.93933  0.02629  0.93058  1.0000
  C   C1092     1.0  0.65387  0.27322  0.60984  1.0000
  H   H884      1.0  0.77871  0.15807  0.87670  1.0000
  C   C1093     1.0  0.55325  0.98603  0.53481  1.0000
  C   C1094     1.0  0.95101  0.05206  0.88337  1.0000
  C   C1095     1.0  0.91686  0.04974  0.86035  1.0000
  C   C1096     1.0  0.69476  0.25755  0.61921  1.0000
  C   C1097     1.0  0.70347  0.27224  0.59659  1.0000
  S   S162      1.0  0.76033  0.10696  0.93910  1.0000
  C   C1098     1.0  0.86873  0.25371  0.56798  1.0000
  C   C1099     1.0  0.71442  0.21960  0.69282  1.0000
  C   C1100     1.0  0.66986  0.25784  0.62547  1.0000
  H   H885      1.0  0.66284  0.24608  0.64241  1.0000
  C   C1101     1.0  0.80038  0.18641  0.86362  1.0000
  C   C1102     1.0  0.80933  0.20205  0.84200  1.0000
  H   H886      1.0  0.89747  0.08375  0.84508  1.0000
  H   H887      1.0  0.86009  0.23984  0.56224  1.0000
  H   H888      1.0  0.61072  0.28371  0.81494  1.0000
  S   S163      1.0  0.74609  0.22008  0.93115  1.0000
  H   H889      1.0  0.62649  0.12270  0.60653  1.0000
  C   C1103     1.0  0.87200  0.22546  0.82194  1.0000
  C   C1104     1.0  0.70627  0.23871  0.67402  1.0000
  H   H890      1.0  0.91971  0.26072  0.59260  1.0000
  H   H891      1.0  0.80391  0.18752  0.88357  1.0000
  H   H892      1.0  0.73419  0.03494  0.89344  1.0000
  C   C1105     1.0  0.90238  0.26565  0.58497  1.0000
  H   H893      1.0  0.88503  0.06665  0.92787  1.0000
  C   C1106     1.0  0.72269  0.05207  0.89308  1.0000
  H   H894      1.0  0.93126  0.29962  0.54615  1.0000
  H   H895      1.0  0.73388  0.18499  0.86807  1.0000
  H   H896      1.0  0.65987  0.03113  0.80549  1.0000
  C   C1107     1.0  0.85683  0.25333  0.77578  1.0000
  H   H897      1.0  0.80618  0.20308  0.96013  1.0000
  C   C1108     1.0  0.59127  0.20750  0.68369  1.0000
  C   C1109     1.0  0.94646  0.07717  0.87885  1.0000
  C   C1110     1.0  0.68742  0.28762  0.58100  1.0000
  C   C1111     1.0  0.81243  0.31265  0.78311  1.0000
  H   H898      1.0  0.82890  0.27708  0.84037  1.0000
  H   H899      1.0  0.97452  0.29508  0.52992  1.0000
  C   C1112     1.0  0.83990  0.21579  0.87789  1.0000
  C   C1113     1.0  0.89335  0.00164  0.88770  1.0000
  S   S164      1.0  0.81791  0.28407  0.66764  1.0000
  C   C1114     1.0  0.86301  0.20014  0.92396  1.0000
  C   C1115     1.0  0.91772  0.14681  0.94332  1.0000
  C   C1116     1.0  0.76943  0.29225  0.85941  1.0000
  H   H900      1.0  0.63922  0.07224  0.80935  1.0000
  C   C1117     1.0  0.48613  0.20943  0.60328  1.0000
  C   C1118     1.0  0.85048  0.22337  0.92006  1.0000
  C   C1119     1.0  0.88888  0.23212  0.80074  1.0000
  C   C1120     1.0  0.76263  0.26932  0.86504  1.0000
  C   C1121     1.0  0.81039  0.27474  0.84706  1.0000
  C   C1122     1.0  0.83889  0.23120  0.89712  1.0000
  H   H901      1.0  0.57086  0.02931  0.76714  1.0000
  H   H902      1.0  0.82911  0.24918  0.89456  1.0000
  H   H903      1.0  0.68594  0.27439  0.66869  1.0000
  C   C1123     1.0  0.60060  0.12778  0.86213  1.0000
  H   H904      1.0  0.87184  0.19401  0.94179  1.0000
  H   H905      1.0  0.54603  0.19052  0.59192  1.0000
  H   H906      1.0  0.95793  0.08783  0.88594  1.0000
  H   H907      1.0  0.76903  0.28385  0.68950  1.0000
  H   H908      1.0  0.74883  0.06998  0.90640  1.0000
  C   C1124     1.0  0.93583  0.03811  0.87483  1.0000
  C   C1125     1.0  0.67248  0.13462  0.92186  1.0000
  C   C1126     1.0  0.91242  0.07482  0.85581  1.0000
  C   C1127     1.0  0.63626  0.02723  0.70303  1.0000
  H   H909      1.0  0.88730  0.30157  0.70933  1.0000
  H   H910      1.0  0.51067  0.08860  0.67406  1.0000
  H   H911      1.0  0.49408  0.08211  0.52225  1.0000
  C   C1128     1.0  0.69222  0.24011  0.72832  1.0000
  H   H912      1.0  0.85104  0.26378  0.75767  1.0000
  H   H913      1.0  0.94814  0.31535  0.62097  1.0000
  P   P38       1.0  0.54810  0.16230  0.64472  1.0000
  C   C1129     1.0  0.94412  0.30178  0.55918  1.0000
  C   C1130     1.0  0.72994  0.17612  0.93929  1.0000
  H   H914      1.0  0.67319  0.27509  0.71660  1.0000
  C   C1131     1.0  0.50323  0.11585  0.52937  1.0000
  H   H915      1.0  0.93232  0.15712  0.94300  1.0000
  C   C1132     1.0  0.56780  0.14625  0.62050  1.0000
  C   C1133     1.0  0.74979  0.18860  0.93426  1.0000
  C   C1134     1.0  0.58552  0.30067  0.91770  1.0000
  C   C1135     1.0  0.77642  0.15072  0.93326  1.0000
  C   C1136     1.0  0.66264  0.28818  0.58767  1.0000
  C   C1137     1.0  0.54363  0.98997  0.48181  1.0000
  C   C1138     1.0  0.82975  0.30766  0.70644  1.0000
  C   C1139     1.0  0.75655  0.13827  0.93812  1.0000
  C   C1140     1.0  0.48849  0.10129  0.52124  1.0000
  C   C1141     1.0  0.73842  0.28015  0.71861  1.0000
  H   H916      1.0  0.50150  0.11325  0.58857  1.0000
  H   H917      1.0  0.89435  0.31612  0.52017  1.0000
  C   C1142     1.0  0.94796  0.00790  0.93328  1.0000
  C   C1143     1.0  0.51595  0.30195  0.96729  1.0000
  C   C1144     1.0  0.88015  0.12008  0.94420  1.0000
  C   C1145     1.0  0.93634  0.30738  0.58500  1.0000
  H   H918      1.0  0.51258  0.21493  0.56954  1.0000
  C   C1146     1.0  0.57356  0.12647  0.58074  1.0000
  H   H919      1.0  0.58697  0.14362  0.89767  1.0000
  C   C1147     1.0  0.79336  0.29497  0.85063  1.0000
  C   C1148     1.0  0.66456  0.16550  0.95114  1.0000
  H   H920      1.0  0.70917  0.28092  0.74990  1.0000
  C   C1149     1.0  0.52817  0.19257  0.60258  1.0000
  H   H921      1.0  0.52274  0.99068  0.62197  1.0000
  C   C1150     1.0  0.50996  0.28303  0.95605  1.0000
  H   H922      1.0  0.78838  0.18545  0.92839  1.0000
  H   H923      1.0  0.71198  0.18590  0.94139  1.0000
  C   C1151     1.0  0.96659  0.99830  0.85532  1.0000
  C   C1152     1.0  0.76226  0.31268  0.71345  1.0000
  H   H924      1.0  0.85831  0.31307  0.57400  1.0000
  H   H925      1.0  0.69423  0.29898  0.56360  1.0000
  C   C1153     1.0  0.59064  0.29301  0.94385  1.0000
  H   H926      1.0  0.50577  0.09338  0.72182  1.0000
  H   H927      1.0  0.65024  0.30004  0.57551  1.0000
  C   C1154     1.0  0.64019  0.30358  0.81104  1.0000
  H   H928      1.0  0.62552  0.00196  0.68070  1.0000
  C   C1155     1.0  0.49609  0.14066  0.52751  1.0000
  H   H929      1.0  0.53355  0.30026  0.97410  1.0000
  C   C1156     1.0  0.62040  0.98830  0.74153  1.0000
  H   H930      1.0  0.58977  0.30598  0.95755  1.0000
  H   H931      1.0  0.52275  0.26685  0.95465  1.0000
  H   H932      1.0  0.65896  0.98548  0.73119  1.0000
  H   H933      1.0  0.75602  0.30782  0.86181  1.0000
  C   C1157     1.0  0.48757  0.28502  0.94660  1.0000
  C   C1158     1.0  0.53712  0.31732  0.88654  1.0000
  H   H934      1.0  0.82730  0.16177  0.95914  1.0000
  C   C1159     1.0  0.90020  0.14557  0.96523  1.0000
  C   C1160     1.0  0.79267  0.31789  0.76843  1.0000
  H   H935      1.0  0.71695  0.31808  0.76394  1.0000
  C   C1161     1.0  0.88138  0.13201  0.96588  1.0000
  H   H936      1.0  0.95497  0.00981  0.97322  1.0000
  H   H937      1.0  0.56224  0.02091  0.47565  1.0000
  C   C1162     1.0  0.66589  0.14785  0.97325  1.0000
  C   C1163     1.0  0.67010  0.12357  0.96980  1.0000
  C   C1164     1.0  0.82981  0.17168  0.97486  1.0000
  Fe  Fe83      1.0  0.55910  0.57953  0.13296  1.0000
  S   S165      1.0  0.53865  0.60634  0.10457  1.0000
  S   S166      1.0  0.58823  0.58722  0.15567  1.0000
  H   H938      1.0  0.81266  0.62321  0.45907  1.0000
  H   H939      1.0  0.68666  0.62835  0.32599  1.0000
  C   C1165     1.0  0.81819  0.55768  0.47245  1.0000
  Fe  Fe84      1.0  0.54228  0.57635  0.07991  1.0000
  S   S167      1.0  0.55484  0.58567  0.03686  1.0000
  P   P39       1.0  0.93705  0.37762  0.46241  1.0000
  S   S168      1.0  0.56508  0.55045  0.10685  1.0000
  S   S169      1.0  0.52571  0.56696  0.15569  1.0000
  Fe  Fe85      1.0  0.56428  0.41724  0.00646  1.0000
  H   H940      1.0  0.58623  0.58042  0.98961  1.0000
  C   C1166     1.0  0.96179  0.34698  0.38330  1.0000
  C   C1167     1.0  0.97929  0.45406  0.36780  1.0000
  C   C1168     1.0  0.62359  0.57603  0.02905  1.0000
  H   H941      1.0  0.52618  0.43601  0.18584  1.0000
  Fe  Fe86      1.0  0.93803  0.54174  0.44121  1.0000
  H   H942      1.0  0.49520  0.48890  0.11004  1.0000
  C   C1169     1.0  0.62219  0.36798  0.11063  1.0000
  S   S170      1.0  0.96211  0.54160  0.47253  1.0000
  H   H943      1.0  0.96324  0.55528  0.37113  1.0000
  C   C1170     1.0  0.53055  0.39952  0.15108  1.0000
  S   S171      1.0  0.93556  0.58142  0.42882  1.0000
  C   C1171     1.0  0.81168  0.58445  0.43139  1.0000
  C   C1172     1.0  0.71313  0.60527  0.43912  1.0000
  C   C1173     1.0  0.61732  0.64136  0.10726  1.0000
  H   H944      1.0  0.84307  0.63413  0.14566  1.0000
  C   C1174     1.0  0.58001  0.56335  0.99663  1.0000
  C   C1175     1.0  0.84738  0.55459  0.43384  1.0000
  H   H945      1.0  0.93381  0.62685  0.35758  1.0000
  H   H946      1.0  0.53447  0.62139  0.98896  1.0000
  C   C1176     1.0  0.96076  0.58637  0.34093  1.0000
  C   C1177     1.0  0.83974  0.54671  0.46030  1.0000
  C   C1178     1.0  0.94440  0.36616  0.43076  1.0000
  C   C1179     1.0  0.93069  0.58747  0.31072  1.0000
  H   H947      1.0  0.75177  0.64640  0.42166  1.0000
  C   C1180     1.0  0.88552  0.60385  0.39570  1.0000
  C   C1181     1.0  0.88808  0.61111  0.36821  1.0000
  C   C1182     1.0  0.87861  0.63432  0.35769  1.0000
  C   C1183     1.0  0.93699  0.55367  0.34515  1.0000
  C   C1184     1.0  0.75373  0.58549  0.42941  1.0000
  H   H948      1.0  0.89247  0.58573  0.40354  1.0000
  H   H949      1.0  0.89724  0.59864  0.35510  1.0000
  H   H950      1.0  0.53710  0.45714  0.21975  1.0000
  H   H951      1.0  0.83483  0.61720  0.37434  1.0000
  H   H952      1.0  0.51964  0.40641  0.03846  1.0000
  Fe  Fe87      1.0  0.90312  0.58392  0.45857  1.0000
  C   C1185     1.0  0.60453  0.61129  0.14305  1.0000
  C   C1186     1.0  0.60458  0.62184  0.11657  1.0000
  H   H953      1.0  0.51971  0.41621  0.10010  1.0000
  H   H954      1.0  0.85075  0.53238  0.47150  1.0000
  H   H955      1.0  0.61751  0.33551  0.98332  1.0000
  C   C1187     1.0  0.61764  0.62011  0.16000  1.0000
  H   H956      1.0  0.59469  0.61505  0.10332  1.0000
  C   C1188     1.0  0.50080  0.48915  0.15079  1.0000
  H   H957      1.0  0.91090  0.55731  0.31718  1.0000
  H   H958      1.0  0.61806  0.61176  0.18039  1.0000
  C   C1189     1.0  0.56437  0.56066  0.01993  1.0000
  C   C1190     1.0  0.55640  0.53840  0.02893  1.0000
  C   C1191     1.0  0.56374  0.51907  0.01409  1.0000
  C   C1192     1.0  0.50351  0.36468  0.09026  1.0000
  H   H959      1.0  0.78793  0.58521  0.46808  1.0000
  C   C1193     1.0  0.84432  0.65124  0.18012  1.0000
  H   H960      1.0  0.54417  0.53628  0.04690  1.0000
  H   H961      1.0  0.55693  0.50219  0.02041  1.0000
  H   H962      1.0  0.72285  0.56694  0.44097  1.0000
  H   H963      1.0  0.52028  0.48465  0.05184  1.0000
  C   C1194     1.0  0.68493  0.64530  0.31306  1.0000
  C   C1195     1.0  0.54421  0.47726  0.08247  1.0000
  C   C1196     1.0  0.55262  0.46076  0.10352  1.0000
  C   C1197     1.0  0.54347  0.43888  0.11063  1.0000
  P   P40       1.0  0.55407  0.41763  0.13804  1.0000
  C   C1198     1.0  0.58104  0.39867  0.12724  1.0000
  C   C1199     1.0  0.59463  0.38388  0.14605  1.0000
  C   C1200     1.0  0.60883  0.38281  0.09189  1.0000
  C   C1201     1.0  0.58844  0.39824  0.10018  1.0000
  C   C1202     1.0  0.56139  0.43366  0.16322  1.0000
  C   C1203     1.0  0.55053  0.45197  0.20383  1.0000
  C   C1204     1.0  0.57381  0.45763  0.20252  1.0000
  C   C1205     1.0  0.59089  0.45150  0.18155  1.0000
  C   C1206     1.0  0.58465  0.43985  0.16180  1.0000
  C   C1207     1.0  0.50818  0.57238  0.99761  1.0000
  H   H964      1.0  0.55071  0.49449  0.07775  1.0000
  H   H965      1.0  0.56566  0.46547  0.11471  1.0000
  H   H966      1.0  0.58907  0.38394  0.16710  1.0000
  H   H967      1.0  0.61395  0.38214  0.07082  1.0000
  H   H968      1.0  0.57823  0.40959  0.08547  1.0000
  H   H969      1.0  0.57847  0.46714  0.21750  1.0000
  H   H970      1.0  0.60881  0.45630  0.18024  1.0000
  H   H971      1.0  0.59794  0.43581  0.14532  1.0000
  H   H972      1.0  0.50503  0.44535  0.06314  1.0000
  H   H973      1.0  0.49812  0.39789  0.99381  1.0000
  C   C1208     1.0  0.94225  0.42280  0.47427  1.0000
  P   P41       1.0  0.50806  0.34814  0.98147  1.0000
  C   C1209     1.0  0.72140  0.62759  0.43364  1.0000
  H   H974      1.0  0.96174  0.45419  0.40764  1.0000
  C   C1210     1.0  0.52958  0.33676  0.00509  1.0000
  H   H975      1.0  0.90338  0.45835  0.42051  1.0000
  C   C1211     1.0  0.86634  0.65024  0.37481  1.0000
  H   H976      1.0  0.62543  0.35701  0.15230  1.0000
  C   C1212     1.0  0.80081  0.63743  0.42046  1.0000
  C   C1213     1.0  0.52661  0.43325  0.09554  1.0000
  C   C1214     1.0  0.95470  0.56424  0.35391  1.0000
  C   C1215     1.0  0.96104  0.37148  0.38429  1.0000
  C   C1216     1.0  0.98354  0.48831  0.43343  1.0000
  H   H977      1.0  0.61718  0.64955  0.08678  1.0000
  H   H978      1.0  0.96776  0.38298  0.36695  1.0000
  H   H979      1.0  0.70886  0.64392  0.43502  1.0000
  C   C1217     1.0  0.63005  0.63986  0.15082  1.0000
  C   C1218     1.0  0.96800  0.62201  0.37401  1.0000
  C   C1219     1.0  0.74584  0.62891  0.42615  1.0000
  S   S172      1.0  0.50754  0.56311  0.09748  1.0000
  C   C1220     1.0  0.58023  0.52169  0.99131  1.0000
  S   S173      1.0  0.90368  0.54392  0.46864  1.0000
  C   C1221     1.0  0.53999  0.62186  0.18605  1.0000
  H   H980      1.0  0.86443  0.54652  0.42461  1.0000
  H   H981      1.0  0.97129  0.48755  0.45149  1.0000
  H   H982      1.0  0.55728  0.64969  0.07342  1.0000
  C   C1222     1.0  0.49760  0.56768  0.02368  1.0000
  H   H983      1.0  0.58593  0.34123  0.01867  1.0000
  C   C1223     1.0  0.51828  0.44972  0.07445  1.0000
  H   H984      1.0  0.50263  0.55057  0.03542  1.0000
  C   C1224     1.0  0.92503  0.56523  0.32352  1.0000
  H   H985      1.0  0.55806  0.35674  0.98543  1.0000
  H   H986      1.0  0.95302  0.39979  0.40836  1.0000
  H   H987      1.0  0.54268  0.60272  0.18503  1.0000
  H   H988      1.0  0.55274  0.36503  0.14826  1.0000
  C   C1225     1.0  0.91416  0.44833  0.43557  1.0000
  C   C1226     1.0  0.62991  0.65058  0.12440  1.0000
  C   C1227     1.0  0.83963  0.65086  0.15405  1.0000
  C   C1228     1.0  0.63213  0.55408  0.01977  1.0000
  C   C1229     1.0  0.93213  0.41018  0.45805  1.0000
  C   C1230     1.0  0.83342  0.57329  0.41939  1.0000
  C   C1231     1.0  0.82070  0.61357  0.36388  1.0000
  H   H989      1.0  0.90942  0.41383  0.42634  1.0000
  C   C1232     1.0  0.91777  0.42316  0.43882  1.0000
  C   C1233     1.0  0.94849  0.59801  0.31936  1.0000
  S   S174      1.0  0.52832  0.50090  0.14366  1.0000
  C   C1234     1.0  0.55254  0.34388  0.00190  1.0000
  C   C1235     1.0  0.61516  0.36860  0.13774  1.0000
  H   H990      1.0  0.52844  0.33829  0.11104  1.0000
  H   H991      1.0  0.56460  0.35310  0.08543  1.0000
  C   C1236     1.0  0.95257  0.38099  0.40792  1.0000
  C   C1237     1.0  0.60002  0.46831  0.05060  1.0000
  C   C1238     1.0  0.61134  0.44482  0.05626  1.0000
  C   C1239     1.0  0.63005  0.43997  0.07242  1.0000
  C   C1240     1.0  0.63777  0.45869  0.08247  1.0000
  C   C1241     1.0  0.62685  0.48249  0.07631  1.0000
  C   C1242     1.0  0.60740  0.48707  0.06092  1.0000
  P   P42       1.0  0.63749  0.50688  0.08830  1.0000
  C   C1243     1.0  0.66947  0.49936  0.09053  1.0000
  C   C1244     1.0  0.63200  0.53409  0.06524  1.0000
  C   C1245     1.0  0.63611  0.53316  0.03774  1.0000
  C   C1246     1.0  0.51640  0.36063  0.16258  1.0000
  H   H992      1.0  0.57493  0.62154  0.19826  1.0000
  C   C1247     1.0  0.61926  0.57713  0.05632  1.0000
  C   C1248     1.0  0.62355  0.55632  0.07439  1.0000
  C   C1249     1.0  0.68626  0.50688  0.06946  1.0000
  C   C1250     1.0  0.71091  0.50094  0.07153  1.0000
  C   C1251     1.0  0.71902  0.48744  0.09459  1.0000
  C   C1252     1.0  0.70247  0.47978  0.11560  1.0000
  C   C1253     1.0  0.67780  0.48567  0.11360  1.0000
  C   C1254     1.0  0.62290  0.51145  0.12097  1.0000
  C   C1255     1.0  0.60135  0.50239  0.13073  1.0000
  C   C1256     1.0  0.58945  0.50753  0.15533  1.0000
  C   C1257     1.0  0.59900  0.52155  0.17036  1.0000
  C   C1258     1.0  0.62069  0.53023  0.16099  1.0000
  C   C1259     1.0  0.63265  0.52517  0.13643  1.0000
  H   H993      1.0  0.58562  0.47190  0.03794  1.0000
  H   H994      1.0  0.60557  0.43043  0.04799  1.0000
  H   H995      1.0  0.63878  0.42171  0.07682  1.0000
  H   H996      1.0  0.65246  0.45453  0.09466  1.0000
  H   H997      1.0  0.59818  0.50514  0.05638  1.0000
  H   H998      1.0  0.64220  0.51623  0.03010  1.0000
  H   H999      1.0  0.92220  0.48018  0.44893  1.0000
  C   C1260     1.0  0.58847  0.54379  0.98285  1.0000
  H   H1000     1.0  0.61214  0.59407  0.06350  1.0000
  H   H1001     1.0  0.61975  0.55781  0.09535  1.0000
  H   H1002     1.0  0.68052  0.51736  0.05141  1.0000
  H   H1003     1.0  0.72374  0.50689  0.05522  1.0000
  H   H1004     1.0  0.73813  0.48292  0.09616  1.0000
  H   H1005     1.0  0.70875  0.46931  0.13349  1.0000
  H   H1006     1.0  0.66523  0.47951  0.13005  1.0000
  H   H1007     1.0  0.59312  0.49230  0.11899  1.0000
  H   H1008     1.0  0.57234  0.50132  0.16234  1.0000
  H   H1009     1.0  0.58922  0.52636  0.18884  1.0000
  H   H1010     1.0  0.62762  0.54186  0.17220  1.0000
  H   H1011     1.0  0.64899  0.53281  0.12902  1.0000
  C   C1261     1.0  0.52647  0.35335  0.09548  1.0000
  C   C1262     1.0  0.53510  0.37430  0.15379  1.0000
  H   H1012     1.0  0.50471  0.62718  0.17350  1.0000
  C   C1263     1.0  0.54435  0.43996  0.18436  1.0000
  H   H1013     1.0  0.98294  0.57990  0.40897  1.0000
  H   H1014     1.0  0.76598  0.56906  0.42734  1.0000
  C   C1264     1.0  0.92468  0.46069  0.45161  1.0000
  Fe  Fe88      1.0  0.52995  0.53984  0.12723  1.0000
  C   C1265     1.0  0.97562  0.44502  0.39468  1.0000
  H   H1015     1.0  0.93222  0.53674  0.35563  1.0000
  C   C1266     1.0  0.49246  0.48222  0.17734  1.0000
  H   H1016     1.0  0.92069  0.59698  0.29472  1.0000
  H   H1017     1.0  0.63784  0.35588  0.10409  1.0000
  C   C1267     1.0  0.50696  0.41072  0.15675  1.0000
  H   H1018     1.0  0.84003  0.57911  0.39912  1.0000
  Fe  Fe89      1.0  0.95646  0.58156  0.46301  1.0000
  H   H1019     1.0  0.50178  0.48600  0.19303  1.0000
  S   S175      1.0  0.87134  0.61112  0.44750  1.0000
  C   C1268     1.0  0.56862  0.33490  0.02071  1.0000
  S   S176      1.0  0.88220  0.64297  0.32318  1.0000
  C   C1269     1.0  0.52699  0.47178  0.06798  1.0000
  H   H1020     1.0  0.50278  0.43009  0.15359  1.0000
  C   C1270     1.0  0.52158  0.39174  0.05448  1.0000
  S   S177      1.0  0.94674  0.51723  0.40968  1.0000
  H   H1021     1.0  0.96806  0.47015  0.36003  1.0000
  C   C1271     1.0  0.87376  0.61988  0.41291  1.0000
  H   H1022     1.0  0.69418  0.60429  0.44487  1.0000
  H   H1023     1.0  0.84158  0.61810  0.32565  1.0000
  C   C1272     1.0  0.86411  0.64305  0.40239  1.0000
  C   C1273     1.0  0.72929  0.58423  0.43697  1.0000
  S   S178      1.0  0.57067  0.39000  0.04198  1.0000
  C   C1274     1.0  0.94393  0.63201  0.37175  1.0000
  Fe  Fe90      1.0  0.50574  0.59111  0.12455  1.0000
  C   C1275     1.0  0.76223  0.60783  0.42422  1.0000
  P   P43       1.0  0.79368  0.60931  0.41340  1.0000
  C   C1276     1.0  0.67729  0.64652  0.28793  1.0000
  H   H1024     1.0  0.76933  0.60470  0.32475  1.0000
  H   H1025     1.0  0.76264  0.60221  0.37346  1.0000
  H   H1026     1.0  0.57301  0.63541  0.99026  1.0000
  C   C1277     1.0  0.54453  0.38063  0.06019  1.0000
  C   C1278     1.0  0.80428  0.57655  0.45814  1.0000
  C   C1279     1.0  0.78013  0.60527  0.36356  1.0000
  C   C1280     1.0  0.78385  0.60645  0.33588  1.0000
  H   H1027     1.0  0.95208  0.61561  0.30974  1.0000
  C   C1281     1.0  0.55822  0.63250  0.19352  1.0000
  C   C1282     1.0  0.54690  0.36168  0.08094  1.0000
  C   C1283     1.0  0.80913  0.63900  0.44473  1.0000
  C   C1284     1.0  0.50106  0.38406  0.06992  1.0000
  H   H1028     1.0  0.63982  0.64667  0.16414  1.0000
  H   H1029     1.0  0.80862  0.61252  0.30073  1.0000
  C   C1285     1.0  0.80603  0.61089  0.32225  1.0000
  C   C1286     1.0  0.82452  0.61421  0.33628  1.0000
  C   C1287     1.0  0.79860  0.60886  0.37782  1.0000
  C   C1288     1.0  0.48879  0.48381  0.13059  1.0000
  H   H1030     1.0  0.85145  0.63487  0.19195  1.0000
  H   H1031     1.0  0.67304  0.63058  0.28137  1.0000
  S   S179      1.0  0.54320  0.45403  0.00602  1.0000
  C   C1289     1.0  0.96883  0.64654  0.40878  1.0000
  H   H1032     1.0  0.61969  0.59210  0.01514  1.0000
  C   C1290     1.0  0.93232  0.64865  0.38831  1.0000
  P   P44       1.0  0.98316  0.60043  0.35265  1.0000
  H   H1033     1.0  0.63496  0.55311  0.99861  1.0000
  C   C1291     1.0  0.98047  0.62972  0.39240  1.0000
  C   C1292     1.0  0.97619  0.50214  0.41017  1.0000
  H   H1034     1.0  0.55692  0.64849  0.12217  1.0000
  C   C1293     1.0  0.51850  0.63583  0.17957  1.0000
  C   C1294     1.0  0.95391  0.33202  0.40589  1.0000
  H   H1035     1.0  0.94005  0.32942  0.44692  1.0000
  S   S180      1.0  0.59595  0.42936  0.98001  1.0000
  H   H1036     1.0  0.52167  0.55886  0.98978  1.0000
  H   H1037     1.0  0.51976  0.34126  0.16377  1.0000
  C   C1295     1.0  0.48841  0.39700  0.16583  1.0000
  C   C1296     1.0  0.49308  0.37198  0.16862  1.0000
  C   C1297     1.0  0.50136  0.59427  0.98201  1.0000
  C   C1298     1.0  0.94525  0.34152  0.42952  1.0000
  H   H1038     1.0  0.97832  0.65167  0.42363  1.0000
  H   H1039     1.0  0.96916  0.33942  0.36527  1.0000
  C   C1299     1.0  0.93863  0.44789  0.47103  1.0000
  Fe  Fe91      1.0  0.57323  0.46542  0.97610  1.0000
  C   C1300     1.0  0.98483  0.35902  0.47018  1.0000
  C   C1301     1.0  0.56195  0.31887  0.04289  1.0000
  H   H1040     1.0  0.48585  0.54126  0.15397  1.0000
  C   C1302     1.0  0.52291  0.32086  0.02765  1.0000
  H   H1041     1.0  0.50084  0.53385  0.97158  1.0000
  C   C1303     1.0  0.72563  0.35118  0.79294  1.0000
  H   H1042     1.0  0.67801  0.39039  0.81449  1.0000
  C   C1304     1.0  0.87098  0.55941  0.55471  1.0000
  S   S181      1.0  0.59777  0.40272  0.91390  1.0000
  H   H1043     1.0  0.92410  0.35161  0.56054  1.0000
  C   C1305     1.0  0.55723  0.34003  0.84854  1.0000
  C   C1306     1.0  0.87414  0.61409  0.63249  1.0000
  C   C1307     1.0  0.91300  0.58889  0.58763  1.0000
  H   H1044     1.0  0.86751  0.63851  0.66176  1.0000
  Fe  Fe92      1.0  0.92769  0.54705  0.49930  1.0000
  S   S182      1.0  0.92823  0.52952  0.54153  1.0000
  C   C1308     1.0  0.50463  0.63942  0.90938  1.0000
  S   S183      1.0  0.48861  0.45198  0.96700  1.0000
  S   S184      1.0  0.86902  0.43448  0.66985  1.0000
  C   C1309     1.0  0.88874  0.38158  0.48428  1.0000
  Fe  Fe93      1.0  0.92169  0.38926  0.64233  1.0000
  S   S185      1.0  0.88364  0.38851  0.63543  1.0000
  H   H1045     1.0  0.84131  0.36425  0.65634  1.0000
  Fe  Fe94      1.0  0.88132  0.42861  0.62746  1.0000
  S   S186      1.0  0.86506  0.44808  0.59090  1.0000
  Fe  Fe95      1.0  0.87464  0.39408  0.67817  1.0000
  S   S187      1.0  0.85126  0.37202  0.70824  1.0000
  C   C1310     1.0  0.84179  0.34768  0.69694  1.0000
  H   H1046     1.0  0.56231  0.52217  0.93158  1.0000
  C   C1311     1.0  0.91061  0.50671  0.55419  1.0000
  C   C1312     1.0  0.90887  0.49897  0.58154  1.0000
  C   C1313     1.0  0.89477  0.48113  0.59272  1.0000
  C   C1314     1.0  0.88210  0.47100  0.57666  1.0000
  C   C1315     1.0  0.88330  0.47908  0.54929  1.0000
  C   C1316     1.0  0.89769  0.49689  0.53800  1.0000
  H   H1047     1.0  0.91831  0.50692  0.59423  1.0000
  H   H1048     1.0  0.89346  0.47548  0.61392  1.0000
  H   H1049     1.0  0.87351  0.47125  0.53682  1.0000
  H   H1050     1.0  0.89894  0.50287  0.51688  1.0000
  H   H1051     1.0  0.84987  0.54506  0.60539  1.0000
  H   H1052     1.0  0.60455  0.63337  0.95181  1.0000
  C   C1317     1.0  0.83632  0.63951  0.64135  1.0000
  C   C1318     1.0  0.83831  0.34847  0.67029  1.0000
  C   C1319     1.0  0.89274  0.33432  0.50995  1.0000
  C   C1320     1.0  0.49521  0.49765  0.97079  1.0000
  C   C1321     1.0  0.95989  0.59979  0.57268  1.0000
  H   H1053     1.0  0.62900  0.36673  0.88758  1.0000
  H   H1054     1.0  0.81342  0.36792  0.80027  1.0000
  C   C1322     1.0  0.49942  0.32290  0.96945  1.0000
  C   C1323     1.0  0.61203  0.37413  0.92606  1.0000
  C   C1324     1.0  0.60880  0.36528  0.95309  1.0000
  H   H1055     1.0  0.98257  0.57739  0.51091  1.0000
  H   H1056     1.0  0.49397  0.53835  0.90045  1.0000
  H   H1057     1.0  0.94681  0.45735  0.48363  1.0000
  C   C1325     1.0  0.62635  0.35981  0.90842  1.0000
  H   H1058     1.0  0.59789  0.37624  0.96688  1.0000
  H   H1059     1.0  0.50470  0.37220  0.87120  1.0000
  C   C1326     1.0  0.93980  0.47754  0.68044  1.0000
  C   C1327     1.0  0.95435  0.40965  0.55632  1.0000
  H   H1060     1.0  0.83270  0.60512  0.59357  1.0000
  C   C1328     1.0  0.94065  0.61831  0.57424  1.0000
  C   C1329     1.0  0.56127  0.61004  0.92766  1.0000
  C   C1330     1.0  0.88144  0.55474  0.61874  1.0000
  C   C1331     1.0  0.98187  0.63205  0.61863  1.0000
  H   H1061     1.0  0.85668  0.61902  0.50822  1.0000
  C   C1332     1.0  0.53921  0.39331  0.90605  1.0000
  C   C1333     1.0  0.55166  0.37114  0.91555  1.0000
  C   C1334     1.0  0.54205  0.35741  0.93823  1.0000
  S   S188      1.0  0.59191  0.49796  0.97306  1.0000
  H   H1062     1.0  0.72993  0.36714  0.69891  1.0000
  H   H1063     1.0  0.86418  0.40768  0.56156  1.0000
  C   C1335     1.0  0.54216  0.55666  0.93769  1.0000
  C   C1336     1.0  0.89535  0.38085  0.55843  1.0000
  C   C1337     1.0  0.89581  0.52868  0.65727  1.0000
  C   C1338     1.0  0.54767  0.62078  0.97169  1.0000
  H   H1064     1.0  0.54738  0.40448  0.88933  1.0000
  H   H1065     1.0  0.56922  0.36510  0.90584  1.0000
  C   C1339     1.0  0.51658  0.40125  0.91851  1.0000
  H   H1066     1.0  0.93185  0.47340  0.64151  1.0000
  H   H1067     1.0  0.73633  0.33449  0.80012  1.0000
  H   H1068     1.0  0.86865  0.61982  0.55286  1.0000
  H   H1069     1.0  0.81250  0.55182  0.49312  1.0000
  C   C1340     1.0  0.87164  0.38916  0.56742  1.0000
  C   C1341     1.0  0.86233  0.51957  0.63762  1.0000
  C   C1342     1.0  0.96336  0.38077  0.59481  1.0000
  C   C1343     1.0  0.52089  0.57250  0.93392  1.0000
  H   H1070     1.0  0.66795  0.32529  0.81195  1.0000
  S   S189      1.0  0.91306  0.39160  0.68577  1.0000
  H   H1071     1.0  0.90613  0.39304  0.54564  1.0000
  Fe  Fe96      1.0  0.90853  0.43153  0.67384  1.0000
  C   C1344     1.0  0.95049  0.49131  0.69490  1.0000
  C   C1345     1.0  0.54611  0.53456  0.92792  1.0000
  H   H1072     1.0  0.96374  0.60172  0.63555  1.0000
  C   C1346     1.0  0.63979  0.32987  0.84405  1.0000
  H   H1073     1.0  0.90248  0.62745  0.58197  1.0000
  S   S190      1.0  0.55673  0.45925  0.94052  1.0000
  S   S191      1.0  0.92465  0.45405  0.69774  1.0000
  C   C1347     1.0  0.51902  0.35725  0.86975  1.0000
  C   C1348     1.0  0.94671  0.39639  0.58034  1.0000
  H   H1074     1.0  0.91130  0.55992  0.63893  1.0000
  H   H1075     1.0  0.96166  0.36288  0.70724  1.0000
  H   H1076     1.0  0.87631  0.54255  0.56659  1.0000
  H   H1077     1.0  0.90826  0.52428  0.67222  1.0000
  S   S192      1.0  0.92026  0.42888  0.63095  1.0000
  H   H1078     1.0  0.95092  0.44924  0.58349  1.0000
  H   H1079     1.0  0.94970  0.50925  0.61905  1.0000
  C   C1349     1.0  0.96691  0.61961  0.63792  1.0000
  H   H1080     1.0  0.55836  0.60255  0.91030  1.0000
  C   C1350     1.0  0.87872  0.51364  0.65654  1.0000
  H   H1081     1.0  0.84906  0.50789  0.63709  1.0000
  C   C1351     1.0  0.86463  0.60486  0.61280  1.0000
  C   C1352     1.0  0.86325  0.54039  0.61925  1.0000
  H   H1082     1.0  0.68686  0.41097  0.76872  1.0000
  C   C1353     1.0  0.87210  0.58124  0.56374  1.0000
  C   C1354     1.0  0.96173  0.36663  0.48211  1.0000
  H   H1083     1.0  0.60115  0.54590  0.96524  1.0000
  H   H1084     1.0  0.92786  0.39839  0.58777  1.0000
  H   H1085     1.0  0.85767  0.33928  0.60824  1.0000
  C   C1355     1.0  0.83043  0.32898  0.66180  1.0000
  C   C1356     1.0  0.85851  0.58062  0.51305  1.0000
  C   C1357     1.0  0.63736  0.33668  0.91775  1.0000
  H   H1086     1.0  0.97059  0.56142  0.57702  1.0000
  H   H1087     1.0  0.92956  0.55174  0.58935  1.0000
  H   H1088     1.0  0.89239  0.60770  0.63706  1.0000
  C   C1358     1.0  0.89744  0.54894  0.63828  1.0000
  H   H1089     1.0  0.85384  0.58037  0.49326  1.0000
  H   H1090     1.0  0.64830  0.34251  0.85220  1.0000
  C   C1359     1.0  0.69761  0.39417  0.77538  1.0000
  C   C1360     1.0  0.86687  0.60281  0.54682  1.0000
  P   P45       1.0  0.88268  0.58189  0.59540  1.0000
  H   H1091     1.0  0.97952  0.50589  0.52504  1.0000
  C   C1361     1.0  0.51836  0.33637  0.88797  1.0000
  C   C1362     1.0  0.94032  0.48356  0.65287  1.0000
  C   C1363     1.0  0.58323  0.61809  0.92854  1.0000
  C   C1364     1.0  0.91723  0.61291  0.58141  1.0000
  C   C1365     1.0  0.78755  0.35917  0.77724  1.0000
  H   H1092     1.0  0.94392  0.63681  0.56974  1.0000
  C   C1366     1.0  0.70667  0.36116  0.80995  1.0000
  C   C1367     1.0  0.93238  0.57042  0.58543  1.0000
  H   H1093     1.0  0.80733  0.40028  0.68411  1.0000
  C   C1368     1.0  0.86404  0.55910  0.52957  1.0000
  H   H1094     1.0  0.55222  0.34055  0.94565  1.0000
  S   S193      1.0  0.95343  0.36521  0.62538  1.0000
  C   C1369     1.0  0.86003  0.60246  0.52160  1.0000
  H   H1095     1.0  0.87833  0.49734  0.67060  1.0000
  C   C1370     1.0  0.84065  0.61266  0.60798  1.0000
  H   H1096     1.0  0.70290  0.35211  0.82995  1.0000
  H   H1097     1.0  0.86383  0.54208  0.52263  1.0000
  Fe  Fe97      1.0  0.57717  0.42208  0.94691  1.0000
  S   S194      1.0  0.54718  0.40713  0.97377  1.0000
  H   H1098     1.0  0.85240  0.38520  0.50331  1.0000
  H   H1099     1.0  0.96078  0.48988  0.56687  1.0000
  C   C1371     1.0  0.82660  0.63005  0.62212  1.0000
  H   H1100     1.0  0.50352  0.33514  0.90351  1.0000
  C   C1372     1.0  0.97152  0.47826  0.58090  1.0000
  C   C1373     1.0  0.95774  0.36537  0.50986  1.0000
  P   P46       1.0  0.75527  0.34899  0.74546  1.0000
  C   C1374     1.0  0.73055  0.36242  0.76685  1.0000
  C   C1375     1.0  0.78032  0.34134  0.76504  1.0000
  C   C1376     1.0  0.90005  0.32333  0.67377  1.0000
  H   H1101     1.0  0.97302  0.35522  0.54688  1.0000
  C   C1377     1.0  0.61835  0.32243  0.85697  1.0000
  H   H1102     1.0  0.95706  0.40535  0.71549  1.0000
  C   C1378     1.0  0.58741  0.62748  0.95095  1.0000
  C   C1379     1.0  0.71653  0.38415  0.75824  1.0000
  H   H1103     1.0  0.77886  0.41027  0.64985  1.0000
  H   H1104     1.0  0.79760  0.37417  0.72529  1.0000
  C   C1380     1.0  0.97874  0.40757  0.54677  1.0000
  C   C1381     1.0  0.53844  0.35908  0.85006  1.0000
  C   C1382     1.0  0.76251  0.36930  0.71575  1.0000
  C   C1383     1.0  0.74666  0.37466  0.69605  1.0000
  C   C1384     1.0  0.75243  0.38953  0.67244  1.0000
  C   C1385     1.0  0.77419  0.39894  0.66820  1.0000
  C   C1386     1.0  0.79017  0.39344  0.68753  1.0000
  C   C1387     1.0  0.78445  0.37862  0.71115  1.0000
  H   H1105     1.0  0.53165  0.51059  0.90746  1.0000
  P   P47       1.0  0.51525  0.60027  0.94837  1.0000
  H   H1106     1.0  0.53908  0.37540  0.83615  1.0000
  H   H1107     1.0  0.74016  0.39357  0.65731  1.0000
  H   H1108     1.0  0.83985  0.32687  0.73564  1.0000
  H   H1109     1.0  0.50699  0.41859  0.91141  1.0000
  C   C1388     1.0  0.96087  0.51778  0.65456  1.0000
  H   H1110     1.0  0.59711  0.61675  0.91197  1.0000
  C   C1389     1.0  0.61987  0.34223  0.96240  1.0000
  C   C1390     1.0  0.85798  0.37399  0.58505  1.0000
  H   H1111     1.0  0.72020  0.39356  0.73852  1.0000
  C   C1391     1.0  0.52886  0.52806  0.91427  1.0000
  H   H1112     1.0  0.94135  0.42187  0.54531  1.0000
  C   C1392     1.0  0.96100  0.51137  0.68200  1.0000
  C   C1393     1.0  0.48760  0.52200  0.97231  1.0000
  H   H1113     1.0  0.55540  0.56106  0.94886  1.0000
  H   H1114     1.0  0.97800  0.60395  0.56716  1.0000
  H   H1115     1.0  0.80810  0.63602  0.61833  1.0000
  C   C1394     1.0  0.95574  0.57588  0.57816  1.0000
  H   H1116     1.0  0.98011  0.43381  0.68670  1.0000
  S   S195      1.0  0.92382  0.58736  0.49203  1.0000
  C   C1395     1.0  0.54333  0.61130  0.94926  1.0000
  H   H1117     1.0  0.94036  0.37199  0.51940  1.0000
  H   H1118     1.0  0.95005  0.48683  0.71623  1.0000
  C   C1396     1.0  0.69263  0.38264  0.80119  1.0000
  C   C1397     1.0  0.83712  0.32743  0.71506  1.0000
  H   H1119     1.0  0.91121  0.34146  0.63542  1.0000
  C   C1398     1.0  0.50365  0.56585  0.92011  1.0000
  C   C1399     1.0  0.96985  0.39915  0.69947  1.0000
  C   C1400     1.0  0.82006  0.33066  0.79440  1.0000
  C   C1401     1.0  0.90544  0.35730  0.56694  1.0000
  C   C1402     1.0  0.50767  0.54374  0.91027  1.0000
  C   C1403     1.0  0.86908  0.37320  0.50039  1.0000
  C   C1404     1.0  0.95059  0.50380  0.64006  1.0000
  H   H1120     1.0  0.57215  0.34180  0.83319  1.0000
  H   H1121     1.0  0.77811  0.37734  0.77501  1.0000
  C   C1405     1.0  0.80749  0.35389  0.79164  1.0000
  C   C1406     1.0  0.96589  0.45530  0.59045  1.0000
  C   C1407     1.0  0.97239  0.37529  0.69477  1.0000
  H   H1122     1.0  0.94532  0.62006  0.67565  1.0000
  S   S196      1.0  0.96915  0.54556  0.63927  1.0000
  C   C1408     1.0  0.49541  0.62203  0.92884  1.0000
  C   C1409     1.0  0.86808  0.35052  0.59375  1.0000
  C   C1410     1.0  0.63406  0.32783  0.94478  1.0000
  H   H1123     1.0  0.64852  0.32576  0.90412  1.0000
  C   C1411     1.0  0.51990  0.36583  0.95172  1.0000
  C   C1412     1.0  0.50669  0.38733  0.94091  1.0000
  H   H1124     1.0  0.61038  0.32972  0.87489  1.0000
  H   H1125     1.0  0.83995  0.38081  0.59292  1.0000
  C   C1413     1.0  0.89173  0.34181  0.58441  1.0000
  C   C1414     1.0  0.56962  0.62884  0.97250  1.0000
  C   C1415     1.0  0.91248  0.34266  0.49396  1.0000
  H   H1126     1.0  0.92937  0.33080  0.49247  1.0000
  C   C1416     1.0  0.95651  0.62995  0.66047  1.0000
  C   C1417     1.0  0.86006  0.63146  0.64659  1.0000
  H   H1127     1.0  0.83576  0.32664  0.80517  1.0000
  H   H1128     1.0  0.51421  0.49105  0.96894  1.0000
  H   H1129     1.0  0.95298  0.41337  0.48951  1.0000
  H   H1130     1.0  0.96835  0.52246  0.69343  1.0000
  H   H1131     1.0  0.52373  0.64018  0.90573  1.0000
  H   H1132     1.0  0.90347  0.33745  0.68425  1.0000
  C   C1418     1.0  0.91066  0.36636  0.48085  1.0000
  H   H1133     1.0  0.77754  0.32099  0.70344  1.0000
  Fe  Fe98      1.0  0.52834  0.44486  0.97078  1.0000
  H   H1134     1.0  0.82733  0.32976  0.64131  1.0000
  C   C1419     1.0  0.74775  0.32261  0.73454  1.0000
  C   C1420     1.0  0.97940  0.44031  0.60900  1.0000
  H   H1135     1.0  0.97496  0.42243  0.61598  1.0000
  C   C1421     1.0  0.87107  0.34961  0.51322  1.0000
  C   C1422     1.0  0.90416  0.32569  0.64607  1.0000
  H   H1136     1.0  0.85592  0.34332  0.52602  1.0000
  C   C1423     1.0  0.65087  0.32021  0.82132  1.0000
  C   C1424     1.0  0.97634  0.35613  0.52548  1.0000
  H   H1137     1.0  0.48909  0.39391  0.95003  1.0000
  C   C1425     1.0  0.98308  0.41541  0.68290  1.0000
  H   H1138     1.0  0.48672  0.57718  0.91778  1.0000
  C   C1426     1.0  0.55676  0.31906  0.86688  1.0000
  H   H1139     1.0  0.58061  0.31966  0.91160  1.0000
  H   H1140     1.0  0.88679  0.40010  0.47517  1.0000
  C   C1427     1.0  0.67329  0.83999  0.11327  1.0000
  H   H1141     1.0  0.70500  0.86383  0.05709  1.0000
  H   H1142     1.0  0.83360  0.71546  0.07557  1.0000
  H   H1143     1.0  0.48987  0.75641  0.10303  1.0000
  H   H1144     1.0  0.74896  0.69960  0.08696  1.0000
  Fe  Fe99      1.0  0.82991  0.88149  0.09393  1.0000
  S   S197      1.0  0.81908  0.88813  0.13610  1.0000
  S   S198      1.0  0.85360  0.90374  0.06408  1.0000
  Fe  Fe100     1.0  0.80351  0.83749  0.10113  1.0000
  S   S199      1.0  0.79162  0.84023  0.14407  1.0000
  S   S200      1.0  0.79427  0.80775  0.08140  1.0000
  Fe  Fe101     1.0  0.78302  0.87959  0.12999  1.0000
  S   S201      1.0  0.74718  0.89921  0.14436  1.0000
  Fe  Fe102     1.0  0.82877  0.84823  0.14618  1.0000
  S   S202      1.0  0.85125  0.83447  0.18014  1.0000
  S   S203      1.0  0.79277  0.87643  0.08668  1.0000
  S   S204      1.0  0.84171  0.84189  0.10428  1.0000
  Fe  Fe103     1.0  0.71062  0.68796  0.16595  1.0000
  H   H1145     1.0  0.96931  0.85620  0.99522  1.0000
  C   C1428     1.0  0.56206  0.73475  0.19545  1.0000
  C   C1429     1.0  0.60123  0.89829  0.43791  1.0000
  S   S205      1.0  0.52861  0.89230  0.40044  1.0000
  C   C1430     1.0  0.57097  0.70568  0.07468  1.0000
  Fe  Fe104     1.0  0.68789  0.73659  0.14191  1.0000
  S   S206      1.0  0.69935  0.72293  0.18228  1.0000
  S   S207      1.0  0.69265  0.77462  0.12383  1.0000
  H   H1146     1.0  0.61153  0.69227  0.19610  1.0000
  H   H1147     1.0  0.84244  0.94544  0.19200  1.0000
  Fe  Fe105     1.0  0.66347  0.71038  0.19205  1.0000
  S   S208      1.0  0.63907  0.71671  0.22939  1.0000
  C   C1431     1.0  0.88088  0.93881  0.18244  1.0000
  S   S209      1.0  0.65069  0.72669  0.15297  1.0000
  Fe  Fe106     1.0  0.65705  0.83194  0.28754  1.0000
  S   S210      1.0  0.66268  0.87081  0.28009  1.0000
  S   S211      1.0  0.63157  0.82049  0.26305  1.0000
  Fe  Fe107     1.0  0.68565  0.82106  0.33506  1.0000
  S   S212      1.0  0.69288  0.85898  0.33206  1.0000
  S   S213      1.0  0.69979  0.79395  0.36816  1.0000
  Fe  Fe108     1.0  0.65445  0.86959  0.32424  1.0000
  S   S214      1.0  0.63307  0.90130  0.34202  1.0000
  Fe  Fe109     1.0  0.70050  0.85683  0.28841  1.0000
  S   S215      1.0  0.73488  0.86948  0.26864  1.0000
  S   S216      1.0  0.64618  0.83180  0.33132  1.0000
  S   S217      1.0  0.69580  0.81798  0.29194  1.0000
  Fe  Fe110     1.0  0.83815  0.70961  0.26355  1.0000
  S   S218      1.0  0.80008  0.71765  0.28227  1.0000
  S   S219      1.0  0.85123  0.72382  0.22144  1.0000
  Fe  Fe111     1.0  0.85251  0.67138  0.30912  1.0000
  C   C1432     1.0  0.85753  0.93307  0.18473  1.0000
  H   H1148     1.0  0.93168  0.80315  0.11821  1.0000
  Fe  Fe112     1.0  0.81704  0.71537  0.31991  1.0000
  S   S220      1.0  0.80525  0.73756  0.35331  1.0000
  S   S221      1.0  0.85520  0.71077  0.30046  1.0000
  C   C1433     1.0  0.72886  0.77792  0.36273  1.0000
  C   C1434     1.0  0.74032  0.76667  0.38484  1.0000
  C   C1435     1.0  0.76371  0.75439  0.38156  1.0000
  C   C1436     1.0  0.77556  0.75245  0.35611  1.0000
  C   C1437     1.0  0.76398  0.76317  0.33381  1.0000
  C   C1438     1.0  0.74077  0.77626  0.33717  1.0000
  H   H1149     1.0  0.73126  0.76789  0.40461  1.0000
  H   H1150     1.0  0.77260  0.74625  0.39883  1.0000
  H   H1151     1.0  0.77317  0.76204  0.31407  1.0000
  H   H1152     1.0  0.73230  0.78534  0.32007  1.0000
  H   H1153     1.0  0.88392  0.95576  0.18771  1.0000
  H   H1154     1.0  0.82982  0.91800  0.01371  1.0000
  H   H1155     1.0  0.71150  0.89152  0.08784  1.0000
  C   C1439     1.0  0.56608  0.68417  0.11918  1.0000
  C   C1440     1.0  0.63791  0.74550  0.23854  1.0000
  C   C1441     1.0  0.61551  0.75945  0.24280  1.0000
  C   C1442     1.0  0.61394  0.78239  0.25028  1.0000
  C   C1443     1.0  0.63458  0.79106  0.25501  1.0000
  C   C1444     1.0  0.65692  0.77669  0.25193  1.0000
  C   C1445     1.0  0.65872  0.75425  0.24281  1.0000
  H   H1156     1.0  0.59940  0.75274  0.23973  1.0000
  H   H1157     1.0  0.59663  0.79340  0.25265  1.0000
  H   H1158     1.0  0.67278  0.78294  0.25628  1.0000
  H   H1159     1.0  0.67612  0.74357  0.23970  1.0000
  H   H1160     1.0  0.62505  0.93728  0.20379  1.0000
  C   C1446     1.0  0.55772  0.89459  0.38430  1.0000
  C   C1447     1.0  0.57011  0.87602  0.37061  1.0000
  C   C1448     1.0  0.59341  0.87768  0.35779  1.0000
  C   C1449     1.0  0.60432  0.89799  0.35853  1.0000
  C   C1450     1.0  0.59200  0.91635  0.37247  1.0000
  C   C1451     1.0  0.56891  0.91458  0.38544  1.0000
  H   H1161     1.0  0.56166  0.86038  0.36986  1.0000
  H   H1162     1.0  0.60273  0.86343  0.34704  1.0000
  H   H1163     1.0  0.60041  0.93189  0.37359  1.0000
  H   H1164     1.0  0.56024  0.92826  0.39722  1.0000
  C   C1452     1.0  0.80102  0.71426  0.10273  1.0000
  C   C1453     1.0  0.60474  0.81967  0.18167  1.0000
  C   C1454     1.0  0.87147  0.83699  0.03637  1.0000
  C   C1455     1.0  0.85163  0.80361  0.19134  1.0000
  C   C1456     1.0  0.84098  0.78924  0.17773  1.0000
  C   C1457     1.0  0.84060  0.76487  0.18749  1.0000
  C   C1458     1.0  0.85074  0.75475  0.21089  1.0000
  C   C1459     1.0  0.86163  0.76904  0.22440  1.0000
  C   C1460     1.0  0.86226  0.79339  0.21447  1.0000
  H   H1165     1.0  0.83279  0.79692  0.15985  1.0000
  H   H1166     1.0  0.83191  0.75396  0.17723  1.0000
  H   H1167     1.0  0.86972  0.76124  0.24231  1.0000
  H   H1168     1.0  0.87080  0.80428  0.22486  1.0000
  C   C1461     1.0  0.74303  0.89303  0.17914  1.0000
  C   C1462     1.0  0.76310  0.88721  0.19329  1.0000
  C   C1463     1.0  0.76011  0.88099  0.22088  1.0000
  C   C1464     1.0  0.73722  0.87930  0.23435  1.0000
  C   C1465     1.0  0.71702  0.88535  0.22033  1.0000
  C   C1466     1.0  0.71990  0.89277  0.19274  1.0000
  H   H1169     1.0  0.78095  0.88761  0.18301  1.0000
  H   H1170     1.0  0.77560  0.87719  0.23182  1.0000
  H   H1171     1.0  0.69929  0.88431  0.23072  1.0000
  H   H1172     1.0  0.70433  0.89726  0.18184  1.0000
  C   C1467     1.0  0.76649  0.79788  0.09431  1.0000
  C   C1468     1.0  0.74927  0.81208  0.10945  1.0000
  C   C1469     1.0  0.72720  0.80414  0.11948  1.0000
  C   C1470     1.0  0.72200  0.78206  0.11441  1.0000
  C   C1471     1.0  0.73940  0.76756  0.09975  1.0000
  C   C1472     1.0  0.76153  0.77554  0.08955  1.0000
  H   H1173     1.0  0.75281  0.82932  0.11326  1.0000
  H   H1174     1.0  0.71413  0.81513  0.13129  1.0000
  H   H1175     1.0  0.73550  0.75058  0.09556  1.0000
  H   H1176     1.0  0.77475  0.76441  0.07789  1.0000
  C   C1473     1.0  0.89392  0.95800  0.09162  1.0000
  C   C1474     1.0  0.87593  0.94761  0.10887  1.0000
  C   C1475     1.0  0.86342  0.93104  0.10065  1.0000
  C   C1476     1.0  0.86834  0.92517  0.07482  1.0000
  C   C1477     1.0  0.88572  0.93621  0.05722  1.0000
  C   C1478     1.0  0.89889  0.95217  0.06571  1.0000
  H   H1177     1.0  0.87180  0.95225  0.12879  1.0000
  H   H1178     1.0  0.84997  0.92287  0.11433  1.0000
  H   H1179     1.0  0.88900  0.93228  0.03701  1.0000
  H   H1180     1.0  0.91257  0.96016  0.05212  1.0000
  C   C1479     1.0  0.71313  0.70670  0.34338  1.0000
  S   S222      1.0  0.70168  0.70255  0.12461  1.0000
  H   H1181     1.0  0.66997  0.91742  0.46570  1.0000
  P   P48       1.0  0.55200  0.94081  0.28860  1.0000
  C   C1480     1.0  0.52715  0.93011  0.31064  1.0000
  H   H1182     1.0  0.70396  0.69831  0.41110  1.0000
  C   C1481     1.0  0.67375  0.90519  0.39272  1.0000
  H   H1183     1.0  0.64449  0.90413  0.23437  1.0000
  C   C1482     1.0  0.76736  0.70335  0.08438  1.0000
  H   H1184     1.0  0.92580  0.92400  0.00790  1.0000
  C   C1483     1.0  0.56945  0.91667  0.27223  1.0000
  C   C1484     1.0  0.56769  0.91524  0.24539  1.0000
  C   C1485     1.0  0.58093  0.89623  0.23309  1.0000
  C   C1486     1.0  0.59585  0.87845  0.24751  1.0000
  C   C1487     1.0  0.59776  0.87979  0.27413  1.0000
  C   C1488     1.0  0.58480  0.89890  0.28638  1.0000
  C   C1489     1.0  0.56063  0.66453  0.10886  1.0000
  H   H1185     1.0  0.71989  0.85272  0.15639  1.0000
  H   H1186     1.0  0.95629  0.94166  0.09172  1.0000
  H   H1187     1.0  0.70674  0.89519  0.44521  1.0000
  C   C1490     1.0  0.50932  0.89789  0.33927  1.0000
  C   C1491     1.0  0.64254  0.89598  0.16089  1.0000
  H   H1188     1.0  0.66251  0.86593  0.21850  1.0000
  H   H1189     1.0  0.57964  0.89519  0.21240  1.0000
  H   H1190     1.0  0.60603  0.86365  0.23806  1.0000
  H   H1191     1.0  0.60926  0.86593  0.28535  1.0000
  H   H1192     1.0  0.58667  0.89975  0.30697  1.0000
  C   C1492     1.0  0.53339  0.67126  0.18837  1.0000
  C   C1493     1.0  0.64588  0.82839  0.17218  1.0000
  C   C1494     1.0  0.70043  0.87742  0.09475  1.0000
  C   C1495     1.0  0.55997  0.73863  0.16813  1.0000
  P   P49       1.0  0.57561  0.73153  0.11529  1.0000
  C   C1496     1.0  0.60378  0.74245  0.10241  1.0000
  H   H1193     1.0  0.97683  0.94189  0.02552  1.0000
  C   C1497     1.0  0.69678  0.86183  0.07747  1.0000
  C   C1498     1.0  0.61056  0.76157  0.11292  1.0000
  C   C1499     1.0  0.63281  0.76943  0.10423  1.0000
  C   C1500     1.0  0.64880  0.75779  0.08560  1.0000
  C   C1501     1.0  0.64249  0.73841  0.07553  1.0000
  C   C1502     1.0  0.62010  0.73074  0.08387  1.0000
  H   H1194     1.0  0.62365  0.93206  0.15675  1.0000
  H   H1195     1.0  0.54599  0.75216  0.16060  1.0000
  C   C1503     1.0  0.95071  0.85584  0.22653  1.0000
  C   C1504     1.0  0.89131  0.86639  0.00520  1.0000
  H   H1196     1.0  0.59900  0.76993  0.12846  1.0000
  H   H1197     1.0  0.63831  0.78368  0.11293  1.0000
  H   H1198     1.0  0.66649  0.76319  0.07982  1.0000
  H   H1199     1.0  0.65535  0.72864  0.06208  1.0000
  H   H1200     1.0  0.61631  0.71490  0.07679  1.0000
  H   H1201     1.0  0.52531  0.72703  0.11341  1.0000
  C   C1505     1.0  0.86231  0.76105  0.32719  1.0000
  C   C1506     1.0  0.88577  0.76154  0.31498  1.0000
  C   C1507     1.0  0.89094  0.78042  0.29525  1.0000
  C   C1508     1.0  0.87267  0.79886  0.28783  1.0000
  C   C1509     1.0  0.84906  0.79856  0.30014  1.0000
  C   C1510     1.0  0.84401  0.77927  0.31954  1.0000
  P   P50       1.0  0.82492  0.82114  0.28916  1.0000
  C   C1511     1.0  0.80085  0.82453  0.31574  1.0000
  C   C1512     1.0  0.83620  0.84946  0.27800  1.0000
  C   C1513     1.0  0.83222  0.86775  0.29431  1.0000
  C   C1514     1.0  0.84109  0.88956  0.28549  1.0000
  C   C1515     1.0  0.85405  0.89322  0.26041  1.0000
  C   C1516     1.0  0.85812  0.87510  0.24410  1.0000
  C   C1517     1.0  0.84914  0.85339  0.25277  1.0000
  C   C1518     1.0  0.77684  0.82849  0.31015  1.0000
  C   C1519     1.0  0.75817  0.82935  0.33076  1.0000
  C   C1520     1.0  0.76320  0.82633  0.35712  1.0000
  C   C1521     1.0  0.78704  0.82304  0.36287  1.0000
  C   C1522     1.0  0.80583  0.82237  0.34225  1.0000
  C   C1523     1.0  0.81303  0.81097  0.26253  1.0000
  C   C1524     1.0  0.80447  0.82752  0.24153  1.0000
  C   C1525     1.0  0.79526  0.81970  0.22089  1.0000
  C   C1526     1.0  0.79426  0.79530  0.22122  1.0000
  C   C1527     1.0  0.80221  0.77876  0.24239  1.0000
  C   C1528     1.0  0.81137  0.78653  0.26313  1.0000
  H   H1202     1.0  0.85805  0.74617  0.34209  1.0000
  H   H1203     1.0  0.89977  0.74701  0.32048  1.0000
  H   H1204     1.0  0.90904  0.78052  0.28543  1.0000
  H   H1205     1.0  0.87698  0.81304  0.27224  1.0000
  H   H1206     1.0  0.82579  0.77801  0.32845  1.0000
  H   H1207     1.0  0.82211  0.86535  0.31371  1.0000
  H   H1208     1.0  0.83772  0.90368  0.29807  1.0000
  H   H1209     1.0  0.86079  0.91015  0.25352  1.0000
  H   H1210     1.0  0.86800  0.87786  0.22457  1.0000
  H   H1211     1.0  0.85202  0.83981  0.23957  1.0000
  H   H1212     1.0  0.77232  0.83057  0.28995  1.0000
  H   H1213     1.0  0.73977  0.83167  0.32622  1.0000
  H   H1214     1.0  0.74856  0.82617  0.37301  1.0000
  H   H1215     1.0  0.79092  0.82046  0.38334  1.0000
  H   H1216     1.0  0.82421  0.81950  0.34703  1.0000
  H   H1217     1.0  0.80512  0.84646  0.24088  1.0000
  H   H1218     1.0  0.78951  0.83259  0.20435  1.0000
  H   H1219     1.0  0.78802  0.78912  0.20473  1.0000
  H   H1220     1.0  0.80232  0.75976  0.24212  1.0000
  H   H1221     1.0  0.81753  0.77334  0.27924  1.0000
  H   H1222     1.0  0.69431  0.88606  0.13462  1.0000
  C   C1529     1.0  0.98383  0.91325  0.10472  1.0000
  C   C1530     1.0  0.67055  0.91392  0.44547  1.0000
  H   H1223     1.0  0.82687  0.67137  0.11873  1.0000
  C   C1531     1.0  0.92880  0.86234  0.18773  1.0000
  H   H1224     1.0  0.75256  0.83793  0.18383  1.0000
  C   C1532     1.0  0.49720  0.67371  0.09365  1.0000
  H   H1225     1.0  0.79076  0.65751  0.38320  1.0000
  C   C1533     1.0  0.71580  0.72898  0.28838  1.0000
  C   C1534     1.0  0.55917  0.96704  0.32798  1.0000
  C   C1535     1.0  0.71357  0.69961  0.39137  1.0000
  H   H1226     1.0  0.98022  0.87146  0.07175  1.0000
  H   H1227     1.0  0.86059  0.72290  0.15022  1.0000
  C   C1536     1.0  0.68892  0.68781  0.30447  1.0000
  C   C1537     1.0  0.68138  0.68878  0.27921  1.0000
  P   P51       1.0  0.69653  0.71453  0.31469  1.0000
  C   C1538     1.0  0.66995  0.73546  0.32230  1.0000
  C   C1539     1.0  0.64896  0.73603  0.31018  1.0000
  C   C1540     1.0  0.62893  0.75308  0.31539  1.0000
  C   C1541     1.0  0.62961  0.76954  0.33285  1.0000
  C   C1542     1.0  0.65030  0.76886  0.34527  1.0000
  C   C1543     1.0  0.67046  0.75211  0.33979  1.0000
  H   H1228     1.0  0.85898  0.66821  0.36684  1.0000
  C   C1544     1.0  0.51943  0.96311  0.25300  1.0000
  H   H1229     1.0  0.68025  0.70536  0.26566  1.0000
  H   H1230     1.0  0.73027  0.69627  0.27235  1.0000
  H   H1231     1.0  0.64803  0.72382  0.29623  1.0000
  H   H1232     1.0  0.61307  0.75387  0.30536  1.0000
  H   H1233     1.0  0.61427  0.78307  0.33645  1.0000
  H   H1234     1.0  0.65099  0.78160  0.35880  1.0000
  H   H1235     1.0  0.68658  0.75249  0.34892  1.0000
  C   C1545     1.0  0.73086  0.81897  0.21493  1.0000
  C   C1546     1.0  0.80503  0.70660  0.05679  1.0000
  H   H1236     1.0  0.75936  0.71458  0.23882  1.0000
  C   C1547     1.0  0.69264  0.83681  0.18438  1.0000
  C   C1548     1.0  0.65076  0.92176  0.43088  1.0000
  H   H1237     1.0  0.83559  0.90666  0.17985  1.0000
  C   C1549     1.0  0.57632  0.72553  0.15081  1.0000
  C   C1550     1.0  0.57149  0.70487  0.10215  1.0000
  H   H1238     1.0  0.55613  0.92866  0.23388  1.0000
  C   C1551     1.0  0.75577  0.73857  0.18361  1.0000
  C   C1552     1.0  0.59469  0.70859  0.16116  1.0000
  H   H1239     1.0  0.92349  0.92415  0.12043  1.0000
  H   H1240     1.0  0.80036  0.66458  0.23942  1.0000
  C   C1553     1.0  0.73082  0.71524  0.27076  1.0000
  C   C1554     1.0  0.94643  0.89352  0.13819  1.0000
  C   C1555     1.0  0.54997  0.75343  0.10706  1.0000
  C   C1556     1.0  0.52735  0.74585  0.10821  1.0000
  H   H1241     1.0  0.74844  0.70583  0.32088  1.0000
  H   H1242     1.0  0.97398  0.86413  0.14939  1.0000
  C   C1557     1.0  0.59537  0.95026  0.30271  1.0000
  C   C1558     1.0  0.70791  0.81324  0.22376  1.0000
  H   H1243     1.0  0.81870  0.95708  0.13641  1.0000
  C   C1559     1.0  0.89652  0.90109  0.16547  1.0000
  H   H1244     1.0  0.79116  0.66676  0.19299  1.0000
  C   C1560     1.0  0.96196  0.86348  0.01334  1.0000
  C   C1561     1.0  0.58250  0.88430  0.44226  1.0000
  C   C1562     1.0  0.57020  0.95315  0.30814  1.0000
  C   C1563     1.0  0.96027  0.92499  0.10476  1.0000
  C   C1564     1.0  0.55211  0.77786  0.09936  1.0000
  P   P52       1.0  0.92179  0.87928  0.15637  1.0000
  H   H1245     1.0  0.70930  0.88704  0.39855  1.0000
  H   H1246     1.0  0.91061  0.89138  0.04416  1.0000
  C   C1565     1.0  0.60923  0.96060  0.31734  1.0000
  C   C1566     1.0  0.51489  0.66064  0.18092  1.0000
  H   H1247     1.0  0.77648  0.70651  0.17151  1.0000
  C   C1567     1.0  0.57307  0.97759  0.34232  1.0000
  C   C1568     1.0  0.69067  0.66587  0.32136  1.0000
  C   C1569     1.0  0.74740  0.72567  0.25179  1.0000
  H   H1248     1.0  0.68085  0.83067  0.07356  1.0000
  C   C1570     1.0  0.90072  0.86926  0.11394  1.0000
  H   H1249     1.0  0.60774  0.69860  0.14806  1.0000
  H   H1250     1.0  0.50989  0.94776  0.25920  1.0000
  C   C1571     1.0  0.74916  0.75004  0.25032  1.0000
  H   H1251     1.0  0.68141  0.70562  0.37181  1.0000
  H   H1252     1.0  0.53138  0.69029  0.18947  1.0000
  H   H1253     1.0  0.70690  0.76417  0.30093  1.0000
  H   H1254     1.0  0.94122  0.82729  0.25702  1.0000
  C   C1572     1.0  0.71784  0.75338  0.28704  1.0000
  C   C1573     1.0  0.70085  0.70388  0.36906  1.0000
  C   C1574     1.0  0.59226  0.97284  0.41715  1.0000
  C   C1575     1.0  0.68878  0.82243  0.20890  1.0000
  C   C1576     1.0  0.48642  0.68534  0.13790  1.0000
  C   C1577     1.0  0.97005  0.88144  0.13756  1.0000
  H   H1255     1.0  0.50493  0.96498  0.30917  1.0000
  H   H1256     1.0  0.76200  0.75805  0.23558  1.0000
  C   C1578     1.0  0.73472  0.76380  0.26826  1.0000
  C   C1579     1.0  0.85228  0.77374  0.09122  1.0000
  H   H1257     1.0  0.76622  0.79542  0.15974  1.0000
  C   C1580     1.0  0.83032  0.67205  0.13886  1.0000
  C   C1581     1.0  0.87304  0.89543  0.16790  1.0000
  C   C1582     1.0  0.90034  0.92279  0.17310  1.0000
  H   H1258     1.0  0.73696  0.78239  0.26801  1.0000
  Fe  Fe113     1.0  0.50857  0.92734  0.41202  1.0000
  H   H1259     1.0  0.60896  0.98185  0.34871  1.0000
  H   H1260     1.0  0.74530  0.81289  0.22727  1.0000
  C   C1583     1.0  0.92919  0.88335  0.04083  1.0000
  C   C1584     1.0  0.79084  0.73813  0.15094  1.0000
  C   C1585     1.0  0.61595  0.96468  0.42279  1.0000
  H   H1261     1.0  0.89012  0.75095  0.13811  1.0000
  H   H1262     1.0  0.58572  0.82579  0.18549  1.0000
  C   C1586     1.0  0.69065  0.87424  0.12132  1.0000
  H   H1263     1.0  0.97013  0.91368  0.99560  1.0000
  Fe  Fe114     1.0  0.80194  0.67766  0.29212  1.0000
  C   C1587     1.0  0.50720  0.76243  0.10224  1.0000
  C   C1588     1.0  0.81010  0.68168  0.43192  1.0000
  C   C1589     1.0  0.87513  0.75260  0.12649  1.0000
  C   C1590     1.0  0.77122  0.95570  0.10259  1.0000
  H   H1264     1.0  0.57792  0.96230  0.42479  1.0000
  H   H1265     1.0  0.77346  0.69754  0.04336  1.0000
  H   H1266     1.0  0.56606  0.68295  0.14042  1.0000
  C   C1591     1.0  0.97706  0.86227  0.03319  1.0000
  H   H1267     1.0  0.56926  0.78430  0.09758  1.0000
  C   C1592     1.0  0.78585  0.95098  0.12324  1.0000
  C   C1593     1.0  0.85364  0.91134  0.17760  1.0000
  S   S223      1.0  0.90999  0.97761  0.10368  1.0000
  C   C1594     1.0  0.91539  0.84392  0.19943  1.0000
  Fe  Fe115     1.0  0.66545  0.69111  0.13935  1.0000
  C   C1595     1.0  0.71604  0.84168  0.17505  1.0000
  H   H1268     1.0  0.63793  0.92389  0.39240  1.0000
  H   H1269     1.0  0.64173  0.89396  0.14035  1.0000
  S   S224      1.0  0.81584  0.67599  0.33141  1.0000
  H   H1270     1.0  0.78076  0.93923  0.14116  1.0000
  C   C1596     1.0  0.92002  0.83121  0.22422  1.0000
  H   H1271     1.0  0.90124  0.83942  0.18946  1.0000
  H   H1272     1.0  0.76658  0.97348  0.06316  1.0000
  C   C1597     1.0  0.63759  0.78715  0.17868  1.0000
  H   H1273     1.0  0.81968  0.76048  0.08732  1.0000
  P   P53       1.0  0.66743  0.84943  0.16596  1.0000
  C   C1598     1.0  0.93806  0.87463  0.01672  1.0000
  P   P54       1.0  0.81395  0.72143  0.13052  1.0000
  H   H1274     1.0  0.60448  0.93984  0.28744  1.0000
  H   H1275     1.0  0.58280  0.71542  0.22655  1.0000
  C   C1599     1.0  0.49888  0.66921  0.12098  1.0000
  H   H1276     1.0  0.74849  0.69531  0.40536  1.0000
  H   H1277     1.0  0.95602  0.88334  0.19349  1.0000
  C   C1600     1.0  0.77478  0.72588  0.16912  1.0000
  H   H1278     1.0  0.67298  0.79713  0.17008  1.0000
  S   S225      1.0  0.83857  0.66956  0.27063  1.0000
  S   S226      1.0  0.67559  0.67378  0.17952  1.0000
  H   H1279     1.0  0.91833  0.92738  0.17187  1.0000
  H   H1280     1.0  0.74331  0.72882  0.19717  1.0000
  C   C1601     1.0  0.92648  0.83602  0.13565  1.0000
  C   C1602     1.0  0.64395  0.90186  0.21384  1.0000
  C   C1603     1.0  0.76463  0.65892  0.25656  1.0000
  C   C1604     1.0  0.82051  0.95249  0.02726  1.0000
  C   C1605     1.0  0.73494  0.83301  0.19048  1.0000
  C   C1606     1.0  0.84181  0.94615  0.98420  1.0000
  H   H1281     1.0  0.81582  0.70545  0.03785  1.0000
  C   C1607     1.0  0.50630  0.94607  0.31695  1.0000
  H   H1282     1.0  0.57451  0.72167  0.06125  1.0000
  C   C1608     1.0  0.58059  0.71799  0.20553  1.0000
  H   H1283     1.0  0.82537  0.71017  0.18514  1.0000
  H   H1284     1.0  0.60051  0.78206  0.18776  1.0000
  H   H1285     1.0  0.83288  0.84080  0.03773  1.0000
  C   C1609     1.0  0.82963  0.69378  0.17616  1.0000
  P   P55       1.0  0.91867  0.87806  0.99058  1.0000
  H   H1286     1.0  0.81234  0.94478  0.04624  1.0000
  H   H1287     1.0  0.71792  0.65841  0.22083  1.0000
  C   C1610     1.0  0.94167  0.91512  0.12129  1.0000
  H   H1288     1.0  0.87236  0.82162  0.05169  1.0000
  C   C1611     1.0  0.59810  0.97430  0.33710  1.0000
  C   C1612     1.0  0.50946  0.78672  0.09487  1.0000
  S   S227      1.0  0.64492  0.67567  0.11222  1.0000
  C   C1613     1.0  0.81399  0.97567  0.09712  1.0000
  C   C1614     1.0  0.89766  0.85493  0.09509  1.0000
  C   C1615     1.0  0.57840  0.92539  0.46718  1.0000
  H   H1289     1.0  0.84937  0.78852  0.07544  1.0000
  C   C1616     1.0  0.73863  0.69785  0.38817  1.0000
  H   H1290     1.0  0.90622  0.82007  0.08207  1.0000
  H   H1291     1.0  0.49423  0.98023  0.22550  1.0000
  H   H1292     1.0  0.88474  0.78409  0.10091  1.0000
  H   H1293     1.0  0.61686  0.89286  0.42461  1.0000
  H   H1294     1.0  0.86972  0.87855  0.16277  1.0000
  C   C1617     1.0  0.56594  0.68581  0.06437  1.0000
  C   C1618     1.0  0.62111  0.83632  0.17626  1.0000
  H   H1295     1.0  0.93824  0.82857  0.15079  1.0000
  H   H1296     1.0  0.89233  0.88776  0.11217  1.0000
  C   C1619     1.0  0.78794  0.76335  0.14811  1.0000
  C   C1620     1.0  0.82533  0.69371  0.14985  1.0000
  H   H1297     1.0  0.90956  0.83762  0.03120  1.0000
  H   H1298     1.0  0.61445  0.85524  0.17577  1.0000
  C   C1621     1.0  0.59682  0.70489  0.18838  1.0000
  C   C1622     1.0  0.69314  0.89694  0.40753  1.0000
  C   C1623     1.0  0.61300  0.79508  0.18289  1.0000
  C   C1624     1.0  0.75248  0.76362  0.18008  1.0000
  C   C1625     1.0  0.65394  0.87724  0.17802  1.0000
  C   C1626     1.0  0.90871  0.83111  0.09666  1.0000
  C   C1627     1.0  0.56085  0.66521  0.08144  1.0000
  C   C1628     1.0  0.56172  0.89090  0.45886  1.0000
  H   H1299     1.0  0.79993  0.77345  0.13429  1.0000
  C   C1629     1.0  0.63214  0.91757  0.17015  1.0000
  H   H1300     1.0  0.73718  0.77341  0.19065  1.0000
  C   C1630     1.0  0.85823  0.73660  0.13329  1.0000
  C   C1631     1.0  0.91510  0.85988  0.13441  1.0000
  H   H1301     1.0  0.70481  0.80203  0.24239  1.0000
  H   H1302     1.0  0.54970  0.74507  0.20882  1.0000
  H   H1303     1.0  0.67093  0.81857  0.21681  1.0000
  C   C1632     1.0  0.73836  0.70414  0.34037  1.0000
  H   H1304     1.0  0.56606  0.68630  0.04312  1.0000
  C   C1633     1.0  0.82171  0.97723  0.02140  1.0000
  C   C1634     1.0  0.76878  0.77599  0.16261  1.0000
  C   C1635     1.0  0.67740  0.85519  0.13092  1.0000
  H   H1305     1.0  0.62867  0.95738  0.31381  1.0000
  H   H1306     1.0  0.64415  0.76812  0.18039  1.0000
  H   H1307     1.0  0.88669  0.86238  0.07920  1.0000
  C   C1636     1.0  0.55499  0.65719  0.19457  1.0000
  C   C1637     1.0  0.51058  0.98142  0.23381  1.0000
  H   H1308     1.0  0.67483  0.90168  0.37231  1.0000
  C   C1638     1.0  0.78120  0.70213  0.05987  1.0000
  P   P56       1.0  0.62310  0.93759  0.44533  1.0000
  C   C1639     1.0  0.92305  0.82161  0.11701  1.0000
  C   C1640     1.0  0.84793  0.86765  0.00872  1.0000
  H   H1309     1.0  0.53984  0.96975  0.33255  1.0000
  C   C1641     1.0  0.65395  0.80369  0.17311  1.0000
  C   C1642     1.0  0.83539  0.75776  0.09799  1.0000
  H   H1310     1.0  0.69682  0.66448  0.34074  1.0000
  C   C1643     1.0  0.80716  0.96105  0.12055  1.0000
  C   C1644     1.0  0.65276  0.91773  0.40424  1.0000
  C   C1645     1.0  0.81499  0.71246  0.07818  1.0000
  H   H1311     1.0  0.76611  0.70991  0.12457  1.0000
  H   H1312     1.0  0.75490  0.94749  0.10467  1.0000
  Fe  Fe116     1.0  0.51251  0.97120  0.43659  1.0000
  H   H1313     1.0  0.77035  0.69892  0.36005  1.0000
  C   C1646     1.0  0.78252  0.66277  0.23552  1.0000
  C   C1647     1.0  0.73599  0.65937  0.22488  1.0000
  H   H1314     1.0  0.66365  0.82483  0.12016  1.0000
  C   C1648     1.0  0.65426  0.88021  0.20469  1.0000
  C   C1649     1.0  0.83804  0.73922  0.11926  1.0000
  H   H1315     1.0  0.54453  0.89332  0.31863  1.0000
  H   H1316     1.0  0.58372  0.86878  0.43194  1.0000
  H   H1317     1.0  0.50924  0.65263  0.12880  1.0000
  C   C1650     1.0  0.52854  0.90596  0.32215  1.0000
  H   H1318     1.0  0.96421  0.86062  0.23720  1.0000
  C   C1651     1.0  0.87207  0.77128  0.10558  1.0000
  C   C1652     1.0  0.77720  0.70933  0.10575  1.0000
  H   H1319     1.0  0.51090  0.87946  0.34890  1.0000
  C   C1653     1.0  0.68308  0.84324  0.08669  1.0000
  C   C1654     1.0  0.63293  0.92053  0.19660  1.0000
  C   C1655     1.0  0.69161  0.90145  0.43383  1.0000
  C   C1656     1.0  0.83053  0.93707  0.00870  1.0000
  C   C1657     1.0  0.84919  0.84777  0.02845  1.0000
  C   C1658     1.0  0.75098  0.69989  0.36269  1.0000
  H   H1320     1.0  0.66976  0.66933  0.25144  1.0000
  H   H1321     1.0  0.79981  0.69612  0.39310  1.0000
  H   H1322     1.0  0.91562  0.82965  0.97769  1.0000
  H   H1323     1.0  0.53372  0.81320  0.08731  1.0000
  C   C1659     1.0  0.53191  0.79440  0.09337  1.0000
  H   H1324     1.0  0.93759  0.88984  0.07865  1.0000
  H   H1325     1.0  0.90981  0.81681  0.23289  1.0000
  C   C1660     1.0  0.89245  0.84620  0.02480  1.0000
  C   C1661     1.0  0.83946  0.67274  0.19108  1.0000
  C   C1662     1.0  0.94618  0.86854  0.20166  1.0000
  C   C1663     1.0  0.48711  0.93789  0.33403  1.0000
  C   C1664     1.0  0.59921  0.91915  0.45013  1.0000
  C   C1665     1.0  0.67548  0.66828  0.27105  1.0000
  H   H1326     1.0  0.49387  0.79955  0.09003  1.0000
  S   S228      1.0  0.74743  0.66777  0.17075  1.0000
  C   C1666     1.0  0.77788  0.97044  0.07920  1.0000
  C   C1667     1.0  0.94438  0.88232  0.06053  1.0000
  C   C1668     1.0  0.96835  0.87191  0.05667  1.0000
  C   C1669     1.0  0.77729  0.66424  0.20925  1.0000
  C   C1670     1.0  0.55984  0.91125  0.47161  1.0000
  C   C1671     1.0  0.80204  0.68022  0.40766  1.0000
  S   S229      1.0  0.52108  0.96248  0.39494  1.0000
  S   S230      1.0  0.50230  0.93508  0.45439  1.0000
  H   H1327     1.0  0.54689  0.88051  0.46132  1.0000
  C   C1672     1.0  0.54040  0.96470  0.26420  1.0000
  C   C1673     1.0  0.55277  0.98448  0.25534  1.0000
  H   H1328     1.0  0.81411  0.69868  0.43606  1.0000
  C   C1674     1.0  0.48861  0.91380  0.34518  1.0000
  C   C1675     1.0  0.93771  0.83712  0.23776  1.0000
  C   C1676     1.0  0.79725  0.65824  0.40200  1.0000
  C   C1677     1.0  0.81364  0.66107  0.45046  1.0000
  C   C1678     1.0  0.75390  0.66335  0.20387  1.0000
  H   H1329     1.0  0.50627  0.66069  0.08095  1.0000
  C   C1679     1.0  0.91314  0.95192  0.97822  1.0000
  H   H1330     1.0  0.91688  0.96605  0.98847  1.0000
  H   H1331     1.0  0.56932  0.66534  0.20015  1.0000
  C   C1680     1.0  0.63402  0.97897  0.41261  1.0000
  H   H1332     1.0  0.50608  0.72349  0.15787  1.0000
  C   C1681     1.0  0.79940  0.98045  0.07621  1.0000
  H   H1333     1.0  0.93547  0.66821  0.42023  1.0000
  H   H1334     1.0  0.50068  0.76110  0.17799  1.0000
  C   C1682     1.0  0.49156  0.74619  0.18763  1.0000
  C   C1683     1.0  0.49443  0.72497  0.17616  1.0000
  C   C1684     1.0  0.91799  0.92787  0.98933  1.0000
  H   H1335     1.0  0.84296  0.67318  0.21129  1.0000
  H   H1336     1.0  0.83060  0.87598  0.00271  1.0000
  C   C1685     1.0  0.86888  0.87698  0.99715  1.0000
  H   H1337     1.0  0.65239  0.97308  0.41696  1.0000
  H   H1338     1.0  0.97331  0.96771  0.98118  1.0000
  C   C1686     1.0  0.84327  0.97068  0.97833  1.0000
  H   H1339     1.0  0.83087  0.98272  0.09533  1.0000
  H   H1340     1.0  0.85989  0.98442  0.04932  1.0000
  S   S231      1.0  0.77029  0.65889  0.28951  1.0000
  H   H1341     1.0  0.82063  0.66200  0.46893  1.0000
  P   P57       1.0  0.48653  0.67824  0.17354  1.0000
  H   H1342     1.0  0.61368  0.98354  0.46796  1.0000
  C   C1687     1.0  0.74160  0.65630  0.25121  1.0000
  C   C1688     1.0  0.94469  0.65579  0.40696  1.0000
  H   H1343     1.0  0.91356  0.65572  0.38692  1.0000
  H   H1344     1.0  0.85544  0.65565  0.41558  1.0000
  H   H1345     1.0  0.72783  0.65307  0.26747  1.0000
  H   H1346     1.0  0.86745  0.89249  0.98217  1.0000
  C   C1689     1.0  0.91289  0.90940  0.97642  1.0000
  H   H1347     1.0  0.63354  0.90828  0.49542  1.0000
  C   C1690     1.0  0.60548  0.95044  0.75847  1.0000
  C   C1691     1.0  0.48844  0.94007  0.54063  1.0000
  C   C1692     1.0  0.60121  0.97534  0.75139  1.0000
  C   C1693     1.0  0.96847  0.95982  0.94256  1.0000
  C   C1694     1.0  0.50652  0.94152  0.66266  1.0000
  C   C1695     1.0  0.62294  0.95604  0.53001  1.0000
  C   C1696     1.0  0.90336  0.91549  0.95189  1.0000
  C   C1697     1.0  0.50650  0.93671  0.61628  1.0000
  H   H1348     1.0  0.59057  0.94056  0.76593  1.0000
  C   C1698     1.0  0.93339  0.86115  0.96438  1.0000
  H   H1349     1.0  0.51525  0.96725  0.58806  1.0000
  H   H1350     1.0  0.96885  0.82392  0.91037  1.0000
  C   C1699     1.0  0.95704  0.69002  0.54165  1.0000
  C   C1700     1.0  0.62977  0.92687  0.49897  1.0000
  H   H1351     1.0  0.97726  0.86505  0.91217  1.0000
  H   H1352     1.0  0.85200  0.97778  0.95935  1.0000
  C   C1701     1.0  0.95059  0.87104  0.94542  1.0000
  H   H1353     1.0  0.50110  0.83422  0.62929  1.0000
  H   H1354     1.0  0.52595  0.95871  0.49434  1.0000
  C   C1702     1.0  0.89888  0.93956  0.94064  1.0000
  H   H1355     1.0  0.90004  0.97646  0.94527  1.0000
  H   H1356     1.0  0.63285  0.91808  0.54096  1.0000
  C   C1703     1.0  0.57319  0.91135  0.56056  1.0000
  C   C1704     1.0  0.96333  0.85762  0.92608  1.0000
  C   C1705     1.0  0.51399  0.96407  0.65495  1.0000
  C   C1706     1.0  0.53581  0.97140  0.50037  1.0000
  C   C1707     1.0  0.62889  0.93827  0.75578  1.0000
  H   H1357     1.0  0.93613  0.96238  0.85768  1.0000
  C   C1708     1.0  0.50305  0.92772  0.64342  1.0000
  H   H1358     1.0  0.49732  0.91032  0.64993  1.0000
  H   H1359     1.0  0.84950  0.93422  0.96982  1.0000
  P   P58       1.0  0.50215  0.91945  0.59088  1.0000
  C   C1709     1.0  0.94129  0.82450  0.94373  1.0000
  C   C1710     1.0  0.95871  0.83435  0.92523  1.0000
  H   H1360     1.0  0.90013  0.94438  0.85327  1.0000
  H   H1361     1.0  0.53494  0.95493  0.54110  1.0000
  H   H1362     1.0  0.54380  0.91636  0.48459  1.0000
  H   H1363     1.0  0.63215  0.91897  0.76123  1.0000
  H   H1364     1.0  0.50327  0.92850  0.53188  1.0000
  C   C1711     1.0  0.96077  0.65291  0.66350  1.0000
  H   H1365     1.0  0.97864  0.68315  0.64698  1.0000
  H   H1366     1.0  0.55371  0.87359  0.52509  1.0000
  H   H1367     1.0  0.59044  0.89068  0.52968  1.0000
  C   C1712     1.0  0.62912  0.93231  0.52481  1.0000
  H   H1368     1.0  0.50297  0.93496  0.68357  1.0000
  H   H1369     1.0  0.96424  0.70236  0.57709  1.0000
  H   H1370     1.0  0.89949  0.90158  0.94142  1.0000
  H   H1371     1.0  0.66623  0.94158  0.74380  1.0000
  C   C1713     1.0  0.48912  0.65614  0.89437  1.0000
  H   H1372     1.0  0.94128  0.70325  0.53895  1.0000
  C   C1714     1.0  0.51314  0.95971  0.60882  1.0000
  C   C1715     1.0  0.64808  0.95100  0.74597  1.0000
  C   C1716     1.0  0.57392  0.89543  0.54210  1.0000
  C   C1717     1.0  0.96063  0.96923  0.91781  1.0000
  H   H1373     1.0  0.82538  0.65287  0.65240  1.0000
  C   C1718     1.0  0.48790  0.89394  0.60693  1.0000
  H   H1374     1.0  0.89152  0.94413  0.92177  1.0000
  C   C1719     1.0  0.51740  0.97306  0.62802  1.0000
  H   H1375     1.0  0.97831  0.73826  0.92680  1.0000
  C   C1720     1.0  0.55177  0.91796  0.57617  1.0000
  C   C1721     1.0  0.92871  0.83778  0.96332  1.0000
  H   H1376     1.0  0.93777  0.80643  0.94305  1.0000
  C   C1722     1.0  0.53068  0.90903  0.57309  1.0000
  H   H1377     1.0  0.51557  0.88553  0.55221  1.0000
  C   C1723     1.0  0.55320  0.88587  0.53946  1.0000
  C   C1724     1.0  0.90369  0.95777  0.95385  1.0000
  H   H1378     1.0  0.55171  0.93072  0.58985  1.0000
  H   H1379     1.0  0.62152  0.96026  0.55017  1.0000
  C   C1725     1.0  0.97573  0.66540  0.64418  1.0000
  C   C1726     1.0  0.96386  0.67300  0.52407  1.0000
  C   C1727     1.0  0.64387  0.97590  0.73883  1.0000
  H   H1380     1.0  0.95481  0.88885  0.94614  1.0000
  H   H1381     1.0  0.58902  0.91913  0.56252  1.0000
  C   C1728     1.0  0.53167  0.89261  0.55490  1.0000
  H   H1382     1.0  0.95350  0.67300  0.50768  1.0000
  H   H1383     1.0  0.49635  0.66953  0.87943  1.0000
  H   H1384     1.0  0.96237  0.95762  0.90256  1.0000
  C   C1729     1.0  0.89824  0.96048  0.86274  1.0000
  C   C1730     1.0  0.98377  0.65554  0.52795  1.0000
  C   C1731     1.0  0.87544  0.97086  0.87261  1.0000
  H   H1385     1.0  0.98349  0.76690  0.95711  1.0000
  C   C1732     1.0  0.49057  0.85174  0.62558  1.0000
  H   H1386     1.0  0.52064  0.86842  0.60596  1.0000
  H   H1387     1.0  0.85962  0.96299  0.87063  1.0000
  C   C1733     1.0  0.97025  0.68966  0.56303  1.0000
  H   H1388     1.0  0.97593  0.94106  0.94657  1.0000
  C   C1734     1.0  0.50152  0.87118  0.61204  1.0000
  C   C1735     1.0  0.54098  0.96923  0.52679  1.0000
  H   H1389     1.0  0.95281  0.66091  0.68106  1.0000
  C   C1736     1.0  0.96676  0.97464  0.96226  1.0000
  C   C1737     1.0  0.91860  0.97085  0.86508  1.0000
  C   C1738     1.0  0.61784  0.97439  0.50929  1.0000
  C   C1739     1.0  0.62495  0.94524  0.47794  1.0000
  S   S232      1.0  0.56016  0.98308  0.56764  1.0000
  H   H1390     1.0  0.57633  0.94140  0.47683  1.0000
  C   C1740     1.0  0.61873  0.96907  0.48337  1.0000
  H   H1391     1.0  0.51634  0.97496  0.66982  1.0000
  H   H1392     1.0  0.58291  0.98427  0.75349  1.0000
