data_image0
_chemical_formula_structural       FeSFeSHFeHFeS2C2FeS2FeSHFeSFeS4H2CH5C6H4CHC6H5C2H3C3HC3H2C2H2C3PC15HCH6FeH5C6PC8PC3HSC3H7CHCH4CSCH2C3H4SC2H4C2SC2HCH2C5HC2SHC4H2CH2CHC4HCSCHC2HC4H6CH4PHSCHC3H2CH2C3HCH2CH3CHC4H2CHCHC2HC2H2C2HCH2PC2H2C4HCH3C4HSH3CHC11H2CHCHCHC4H2C2HPHCHCHC3H3CH2C2H2CHCFeSHFeSCS2HFeS2H2S2C3H2C3H2C2H2C2H2C2HSHCFeH3CH2FeS2CFeSHSC3H2C8HCH3CS2C3PHCH3C2H6CH2C2FeCHCH3CH2SCHFeH2FeCHFeHCHCHCH3C6HCH2CH3CHCH2C3PC14H2C3H2C3FeHFeC2HCHCHC2HCH4SHC2HC6HC2HSH2C3SH2C3H2CHCH3C2HCHC4HC4H2C2H2C5HC2H2CHC2HC2HCPH3C2HCHCHCSCPC3H4SCH2CHC3HC2H4FeS2FeCFeHFeS4FeSHFeS2FeSFeS3C3H2C6H4C7H3C3HC2HC2H2C4HCHCH2C5H2PH2C6H2PC3HCHCHC3SHFeCH3CH3C7PC8H2SC3HC3H10CHCH4SC6HCHCH5CHCH3SC3HC2HSHCHCHC3H2CPCSC2FeC4HCHCHCH3CH2C3HCHSC3H3CH4CFeHC6H5CHCSC2H3CH2C3HC2H3PHC2HC2HC3H2C4PHC4HSC3HC2H4CH4C2H2C2H2C2H3C2HSH2CHC4HC3HC3HC2H2CH4C5HSCPH2C2H6C2SHCHC2H3CHC2PC2H2C2HC2HC2HC4H2C4HCHCHFeS2FeS2FeSFeS3FeHSFeCFeS2FeHFeS2CHC6HCH2C6H5SHC7H3CH5C6HC2HCH2C2H3CSC12PC12HC3H3CHCH7CSC2HC3HCH2CHSHC3H3C2HCHSH2C2PHSH2CH3CPC2HC2HC2HC2H2C2H4C3HCHC4H3C3H5C2H2CPHC3HC4H3CH4FeCH2CHC2H3C2HSCH2C2H5C2HC2PHC3HC5H2CHC3H2SHC2HCH2CH2C8HC2H4CH2C3HCHCH2CHSFeSHFeSFeCS2FeS2HC2SCHC3H2C7H2C5H2FeS2FeS2CFeCS2CFeS2FeSHSFeCHC9H4C2H2C3HPCHCHC3H2CHCH2CSHC6H6CH3C6PC4HC4H3CH2C2H2CHCH3CH3C6PC12HC3H13CSFeC2H2C2PC4PC3HCHC2HC2H2CHFeCHC2HC2H3CHFeCHC2HCFeHCSH3C2H2SC2HC4HC4HCH2CH2C2H2C2HSC2H3C6H2CHC2H2PHC2H4C7HC2HSHCH3C2H2C2HCHCH2CHCFeS2FeS2FeSFeS3HFeS2FeHCFeHS2HCH2SHC2HC4H2C9H4C6H2C3HC3HC3HCH2CHSHCH2CH3CHCH2C4HC3HSH2C2SCPC2HC4H2C2H2C3HCPC2HCHFeHCHC7H2C2H2CHC3H5C2H3CH3C2HC2HC2HCHC2H3CH5CHC2H2C2H2PSHCHCHCH5CHC2HCHC2H4
_chemical_formula_sum              "Fe64 S128 H768 C960 P32"
_cell_length_a       35.5128
_cell_length_b       36.2641
_cell_length_c       35.5522
_cell_angle_alpha    89.9395
_cell_angle_beta     89.8243
_cell_angle_gamma    90.1033

_space_group_name_H-M_alt    "P 1"
_space_group_IT_number       1

loop_
  _space_group_symop_operation_xyz
  'x, y, z'

loop_
  _atom_site_type_symbol
  _atom_site_label
  _atom_site_symmetry_multiplicity
  _atom_site_fract_x
  _atom_site_fract_y
  _atom_site_fract_z
  _atom_site_occupancy
  Fe  Fe1       1.0  0.43167  0.07969  0.47048  1.0000
  S   S1        1.0  0.43316  0.05930  0.41093  1.0000
  Fe  Fe2       1.0  0.36234  0.13122  0.45523  1.0000
  S   S2        1.0  0.35806  0.11271  0.39504  1.0000
  H   H1        1.0  0.13767  0.32263  0.29334  1.0000
  Fe  Fe3       1.0  0.37063  0.05601  0.41708  1.0000
  H   H2        1.0  0.38862  0.25275  0.12109  1.0000
  Fe  Fe4       1.0  0.42085  0.11754  0.39364  1.0000
  S   S3        1.0  0.44486  0.14503  0.34204  1.0000
  S   S4        1.0  0.42541  0.13941  0.45274  1.0000
  C   C1        1.0  0.49942  0.27382  0.02909  1.0000
  C   C2        1.0  0.40765  0.30884  0.12768  1.0000
  Fe  Fe5       1.0  0.38104  0.14681  0.06871  1.0000
  S   S5        1.0  0.37748  0.16045  0.13050  1.0000
  S   S6        1.0  0.41357  0.17795  0.02276  1.0000
  Fe  Fe6       1.0  0.32739  0.07940  0.07638  1.0000
  S   S7        1.0  0.32001  0.08866  0.13808  1.0000
  H   H3        1.0  0.33440  0.33276  0.42088  1.0000
  Fe  Fe7       1.0  0.31580  0.14827  0.12351  1.0000
  S   S8        1.0  0.27048  0.17922  0.15388  1.0000
  Fe  Fe8       1.0  0.38201  0.09924  0.13989  1.0000
  S   S9        1.0  0.41206  0.06770  0.18562  1.0000
  S   S10       1.0  0.31826  0.13888  0.06104  1.0000
  S   S11       1.0  0.39042  0.08596  0.07869  1.0000
  S   S12       1.0  0.14283  0.32450  0.10873  1.0000
  H   H4        1.0  0.12735  0.08605  0.12733  1.0000
  H   H5        1.0  0.15764  0.11232  0.07094  1.0000
  C   C3        1.0  0.28422  0.23987  0.48790  1.0000
  H   H6        1.0  0.16792  0.04186  0.07731  1.0000
  H   H7        1.0  0.08209  0.27215  0.49561  1.0000
  H   H8        1.0  0.33497  0.02459  0.18857  1.0000
  H   H9        1.0  0.04110  0.21823  0.06372  1.0000
  H   H10       1.0  0.23351  0.06524  0.07029  1.0000
  C   C4        1.0  0.26686  0.22315  0.13419  1.0000
  C   C5        1.0  0.24012  0.24814  0.14782  1.0000
  C   C6        1.0  0.23488  0.28198  0.12948  1.0000
  C   C7        1.0  0.25635  0.29062  0.09759  1.0000
  C   C8        1.0  0.28453  0.26655  0.08556  1.0000
  C   C9        1.0  0.28978  0.23280  0.10375  1.0000
  H   H11       1.0  0.22312  0.24118  0.17211  1.0000
  H   H12       1.0  0.21403  0.30111  0.13985  1.0000
  H   H13       1.0  0.30166  0.27353  0.06158  1.0000
  H   H14       1.0  0.31104  0.21398  0.09361  1.0000
  C   C10       1.0  0.03233  0.24203  0.04765  1.0000
  H   H15       1.0  0.33783  0.05045  0.28149  1.0000
  C   C11       1.0  0.43312  0.12385  0.29896  1.0000
  C   C12       1.0  0.42295  0.08656  0.29743  1.0000
  C   C13       1.0  0.41610  0.06967  0.26251  1.0000
  C   C14       1.0  0.41805  0.09021  0.22910  1.0000
  C   C15       1.0  0.42668  0.12782  0.23074  1.0000
  C   C16       1.0  0.43476  0.14443  0.26554  1.0000
  H   H16       1.0  0.42144  0.07052  0.32305  1.0000
  H   H17       1.0  0.40931  0.04063  0.26136  1.0000
  H   H18       1.0  0.42842  0.14383  0.20512  1.0000
  H   H19       1.0  0.44242  0.17331  0.26659  1.0000
  H   H20       1.0  0.18305  0.29538  0.03488  1.0000
  C   C17       1.0  0.22706  0.25196  0.45209  1.0000
  C   C18       1.0  0.15560  0.02916  0.19471  1.0000
  H   H21       1.0  0.15441  0.18707  0.07381  1.0000
  H   H22       1.0  0.21161  0.20857  0.41384  1.0000
  H   H23       1.0  0.26749  0.16931  0.42748  1.0000
  C   C19       1.0  0.31974  0.02666  0.27747  1.0000
  C   C20       1.0  0.03984  0.30743  0.03265  1.0000
  C   C21       1.0  0.05072  0.27625  0.05323  1.0000
  H   H24       1.0  0.08442  0.04276  0.34171  1.0000
  C   C22       1.0  0.32211  0.32039  0.39601  1.0000
  C   C23       1.0  0.44734  0.21419  0.02637  1.0000
  C   C24       1.0  0.45783  0.22938  0.06092  1.0000
  H   H25       1.0  0.13753  0.25891  0.25402  1.0000
  H   H26       1.0  0.44582  0.21853  0.08664  1.0000
  C   C25       1.0  0.30062  0.28592  0.22230  1.0000
  C   C26       1.0  0.24122  0.04608  0.40690  1.0000
  H   H27       1.0  0.49066  0.27126  0.08906  1.0000
  H   H28       1.0  0.05001  0.02638  0.47447  1.0000
  C   C27       1.0  0.21471  0.06231  0.18956  1.0000
  C   C28       1.0  0.17812  0.05959  0.20454  1.0000
  C   C29       1.0  0.39223  0.27938  0.10766  1.0000
  P   P1        1.0  0.16132  0.09435  0.23703  1.0000
  C   C30       1.0  0.11817  0.07870  0.25934  1.0000
  C   C31       1.0  0.19755  0.09968  0.27212  1.0000
  C   C32       1.0  0.21333  0.06813  0.28860  1.0000
  C   C33       1.0  0.24128  0.07139  0.31593  1.0000
  C   C34       1.0  0.25393  0.10617  0.32693  1.0000
  C   C35       1.0  0.23841  0.13774  0.31067  1.0000
  C   C36       1.0  0.21031  0.13467  0.28328  1.0000
  C   C37       1.0  0.08445  0.07858  0.23876  1.0000
  C   C38       1.0  0.11774  0.06608  0.29678  1.0000
  C   C39       1.0  0.15243  0.13751  0.21289  1.0000
  C   C40       1.0  0.17344  0.14782  0.18097  1.0000
  C   C41       1.0  0.16652  0.18136  0.16288  1.0000
  C   C42       1.0  0.13854  0.20496  0.17630  1.0000
  C   C43       1.0  0.11743  0.19499  0.20794  1.0000
  C   C44       1.0  0.12461  0.16166  0.22647  1.0000
  H   H29       1.0  0.23284  0.08530  0.19684  1.0000
  C   C45       1.0  0.07146  0.10316  0.11158  1.0000
  H   H30       1.0  0.20371  0.04091  0.28058  1.0000
  H   H31       1.0  0.25329  0.04681  0.32843  1.0000
  H   H32       1.0  0.27583  0.10861  0.34800  1.0000
  H   H33       1.0  0.24862  0.16455  0.31910  1.0000
  H   H34       1.0  0.19894  0.15953  0.27081  1.0000
  H   H35       1.0  0.08413  0.08797  0.20981  1.0000
  Fe  Fe9       1.0  0.17564  0.34027  0.45382  1.0000
  H   H36       1.0  0.19560  0.13062  0.16991  1.0000
  H   H37       1.0  0.18348  0.18927  0.13877  1.0000
  H   H38       1.0  0.13354  0.23117  0.16242  1.0000
  H   H39       1.0  0.09579  0.21342  0.21833  1.0000
  H   H40       1.0  0.10850  0.15490  0.25144  1.0000
  C   C46       1.0  0.30758  0.16519  0.24671  1.0000
  C   C47       1.0  0.33373  0.15257  0.27298  1.0000
  C   C48       1.0  0.34065  0.17301  0.30549  1.0000
  C   C49       1.0  0.32168  0.20624  0.31168  1.0000
  C   C50       1.0  0.29628  0.21984  0.28471  1.0000
  C   C51       1.0  0.28871  0.19856  0.25262  1.0000
  P   P2        1.0  0.27140  0.26277  0.29199  1.0000
  C   C52       1.0  0.22233  0.25065  0.29773  1.0000
  C   C53       1.0  0.29030  0.28663  0.33244  1.0000
  C   C54       1.0  0.26754  0.29632  0.36330  1.0000
  C   C55       1.0  0.28982  0.20597  0.46932  1.0000
  C   C56       1.0  0.25697  0.01175  0.05862  1.0000
  C   C57       1.0  0.09337  0.22864  0.45671  1.0000
  C   C58       1.0  0.32882  0.29554  0.33313  1.0000
  C   C59       1.0  0.19582  0.25926  0.26980  1.0000
  P   P3        1.0  0.12779  0.15084  0.00481  1.0000
  C   C60       1.0  0.14608  0.23233  0.30770  1.0000
  C   C61       1.0  0.17244  0.22261  0.33508  1.0000
  C   C62       1.0  0.21048  0.23143  0.32994  1.0000
  H   H41       1.0  0.20755  0.13904  0.44790  1.0000
  S   S13       1.0  0.30334  0.02766  0.04896  1.0000
  C   C63       1.0  0.15786  0.25047  0.27503  1.0000
  C   C64       1.0  0.25347  0.26295  0.47897  1.0000
  C   C65       1.0  0.17265  0.26785  0.02911  1.0000
  H   H42       1.0  0.11034  0.24604  0.43846  1.0000
  H   H43       1.0  0.30224  0.14929  0.22150  1.0000
  H   H44       1.0  0.34880  0.12705  0.26809  1.0000
  H   H45       1.0  0.36111  0.16325  0.32579  1.0000
  H   H46       1.0  0.32709  0.22092  0.33756  1.0000
  H   H47       1.0  0.26851  0.20794  0.23191  1.0000
  H   H48       1.0  0.05816  0.09140  0.13628  1.0000
  C   C66       1.0  0.11038  0.10016  0.10654  1.0000
  H   H49       1.0  0.34677  0.28878  0.30941  1.0000
  C   C67       1.0  0.48286  0.11131  0.11100  1.0000
  H   H50       1.0  0.07325  0.27850  0.07350  1.0000
  H   H51       1.0  0.16330  0.20906  0.36069  1.0000
  H   H52       1.0  0.23068  0.22401  0.35138  1.0000
  H   H53       1.0  0.41617  0.30504  0.15666  1.0000
  C   C68       1.0  0.27699  0.29422  0.25291  1.0000
  S   S14       1.0  0.36910  0.07310  0.47762  1.0000
  C   C69       1.0  0.30234  0.30965  0.19128  1.0000
  H   H54       1.0  0.17875  0.24939  0.08626  1.0000
  H   H55       1.0  0.10373  0.08082  0.46964  1.0000
  C   C70       1.0  0.15615  0.11130  0.46405  1.0000
  C   C71       1.0  0.08698  0.19182  0.44718  1.0000
  C   C72       1.0  0.21819  0.01556  0.40034  1.0000
  H   H56       1.0  0.37459  0.31806  0.36562  1.0000
  H   H57       1.0  0.04889  0.14909  0.03158  1.0000
  H   H58       1.0  0.09899  0.18067  0.42158  1.0000
  H   H59       1.0  0.37041  0.26044  0.05533  1.0000
  S   S15       1.0  0.32728  0.17653  0.48435  1.0000
  C   C73       1.0  0.13727  0.11617  0.38760  1.0000
  C   C74       1.0  0.17126  0.13094  0.40037  1.0000
  H   H60       1.0  0.13019  0.11774  0.35808  1.0000
  H   H61       1.0  0.19075  0.14355  0.38072  1.0000
  H   H62       1.0  0.31723  0.26097  0.22174  1.0000
  H   H63       1.0  0.08725  0.08571  0.40279  1.0000
  C   C75       1.0  0.14489  0.19681  0.01445  1.0000
  C   C76       1.0  0.48333  0.25929  0.06220  1.0000
  S   S16       1.0  0.16960  0.02069  0.40317  1.0000
  C   C77       1.0  0.49160  0.12027  0.07372  1.0000
  C   C78       1.0  0.25645  0.32730  0.25270  1.0000
  H   H64       1.0  0.20396  0.27317  0.24406  1.0000
  C   C79       1.0  0.28030  0.04221  0.40621  1.0000
  H   H65       1.0  0.29786  0.06553  0.41288  1.0000
  H   H66       1.0  0.22892  0.07246  0.41365  1.0000
  C   C80       1.0  0.17008  0.24195  0.05811  1.0000
  C   C81       1.0  0.15618  0.20660  0.05090  1.0000
  C   C82       1.0  0.12742  0.11485  0.07430  1.0000
  C   C83       1.0  0.28974  0.02833  0.25232  1.0000
  C   C84       1.0  0.34468  0.31214  0.36489  1.0000
  H   H67       1.0  0.02530  0.06495  0.23892  1.0000
  C   C85       1.0  0.26390  0.19542  0.44172  1.0000
  C   C86       1.0  0.23234  0.21789  0.43384  1.0000
  S   S17       1.0  0.18582  0.27854  0.44228  1.0000
  H   H68       1.0  0.46054  0.12582  0.12564  1.0000
  C   C87       1.0  0.11294  0.09843  0.41282  1.0000
  C   C88       1.0  0.28358  0.31264  0.39509  1.0000
  C   C89       1.0  0.50246  0.08325  0.12933  1.0000
  C   C90       1.0  0.12244  0.09572  0.45090  1.0000
  H   H69       1.0  0.05876  0.14131  0.46264  1.0000
  H   H70       1.0  0.49517  0.07615  0.15812  1.0000
  C   C91       1.0  0.07772  0.24322  0.48962  1.0000
  H   H71       1.0  0.25641  0.03752  0.15335  1.0000
  H   H72       1.0  0.31941  0.30245  0.16703  1.0000
  C   C92       1.0  0.06470  0.16958  0.47044  1.0000
  H   H73       1.0  0.11650  0.22633  0.31199  1.0000
  C   C93       1.0  0.08430  0.05326  0.31309  1.0000
  C   C94       1.0  0.19049  0.02284  0.07114  1.0000
  C   C95       1.0  0.10556  0.13240  0.04664  1.0000
  C   C96       1.0  0.18073  0.12834  0.43841  1.0000
  H   H74       1.0  0.02344  0.30388  0.44457  1.0000
  C   C97       1.0  0.22844  0.03513  0.16527  1.0000
  S   S18       1.0  0.24703  0.33029  0.07129  1.0000
  C   C98       1.0  0.38183  0.28395  0.07004  1.0000
  H   H75       1.0  0.47570  0.14173  0.05974  1.0000
  C   C99       1.0  0.04961  0.12103  0.08449  1.0000
  C   C100      1.0  0.06654  0.13558  0.05215  1.0000
  H   H76       1.0  0.14301  0.06541  0.31361  1.0000
  C   C101      1.0  0.05109  0.06557  0.25513  1.0000
  C   C102      1.0  0.38611  0.31836  0.05226  1.0000
  C   C103      1.0  0.22773  0.03607  0.06753  1.0000
  C   C104      1.0  0.05104  0.05283  0.29225  1.0000
  H   H77       1.0  0.01832  0.08707  0.48202  1.0000
  H   H78       1.0  0.18824  0.03441  0.48403  1.0000
  H   H79       1.0  0.12739  0.02589  0.20565  1.0000
  H   H80       1.0  0.23750  0.29139  0.36335  1.0000
  H   H81       1.0  0.28460  0.05353  0.23678  1.0000
  H   H82       1.0  0.26608  0.31898  0.41922  1.0000
  C   C105      1.0  0.28080  0.34185  0.19075  1.0000
  H   H83       1.0  0.23802  0.33430  0.27601  1.0000
  H   H84       1.0  0.16216  0.18458  0.48425  1.0000
  H   H85       1.0  0.24959  0.28875  0.49361  1.0000
  H   H86       1.0  0.50642  0.11300  0.42959  1.0000
  P   P4        1.0  0.36997  0.32591  0.00455  1.0000
  H   H87       1.0  0.02532  0.04216  0.30476  1.0000
  S   S19       1.0  0.13360  0.33773  0.21430  1.0000
  C   C106      1.0  0.01693  0.34044  0.49179  1.0000
  H   H88       1.0  0.46276  0.06545  0.01414  1.0000
  C   C107      1.0  0.24669  0.02540  0.49581  1.0000
  C   C108      1.0  0.02839  0.02984  0.49564  1.0000
  C   C109      1.0  0.21344  0.04594  0.49659  1.0000
  H   H89       1.0  0.01940  0.12343  0.08820  1.0000
  H   H90       1.0  0.04683  0.34164  0.49790  1.0000
  C   C110      1.0  0.41229  0.34308  0.11021  1.0000
  H   H91       1.0  0.01258  0.31639  0.13913  1.0000
  H   H92       1.0  0.01778  0.15594  0.88809  1.0000
  C   C111      1.0  0.33276  0.22340  0.97431  1.0000
  C   C112      1.0  0.17662  0.15245  0.53377  1.0000
  C   C113      1.0  0.11444  0.31738  0.57933  1.0000
  H   H93       1.0  0.15804  0.03153  0.54359  1.0000
  C   C114      1.0  0.29365  0.22751  0.97370  1.0000
  H   H94       1.0  0.43463  0.31443  0.62656  1.0000
  H   H95       1.0  0.17233  0.24445  0.51437  1.0000
  C   C115      1.0  0.44124  0.13644  0.93549  1.0000
  H   H96       1.0  0.04504  0.10574  0.57409  1.0000
  H   H97       1.0  0.38602  0.24984  0.98353  1.0000
  H   H98       1.0  0.50179  0.26867  0.96886  1.0000
  C   C116      1.0  0.19256  0.18904  0.58879  1.0000
  H   H99       1.0  0.11356  0.26121  0.56065  1.0000
  C   C117      1.0  0.14826  0.22278  0.98525  1.0000
  C   C118      1.0  0.04950  0.18385  0.50364  1.0000
  C   C119      1.0  0.41408  0.11049  0.94617  1.0000
  C   C120      1.0  0.05636  0.22065  0.51383  1.0000
  H   H100      1.0  0.40479  0.03129  0.55751  1.0000
  H   H101      1.0  0.50733  0.02381  0.57973  1.0000
  C   C121      1.0  0.04079  0.18295  0.93680  1.0000
  H   H102      1.0  0.19259  0.24800  0.58089  1.0000
  C   C122      1.0  0.46716  0.34089  0.91953  1.0000
  H   H103      1.0  0.20139  0.19053  0.61789  1.0000
  C   C123      1.0  0.06799  0.18175  0.96512  1.0000
  C   C124      1.0  0.03782  0.20496  0.59252  1.0000
  H   H104      1.0  0.06802  0.20312  0.98637  1.0000
  C   C125      1.0  0.05710  0.28171  0.57002  1.0000
  C   C126      1.0  0.19327  0.05986  0.98593  1.0000
  H   H105      1.0  0.28742  0.31844  0.99535  1.0000
  H   H106      1.0  0.09162  0.22378  0.61400  1.0000
  C   C127      1.0  0.24680  0.09671  0.52562  1.0000
  C   C128      1.0  0.18752  0.22138  0.56804  1.0000
  H   H107      1.0  0.26250  0.12441  0.97943  1.0000
  C   C129      1.0  0.03935  0.15520  0.90966  1.0000
  H   H108      1.0  0.24729  0.26518  0.98101  1.0000
  H   H109      1.0  0.16348  0.27856  0.97035  1.0000
  P   P5        1.0  0.16965  0.10754  0.51279  1.0000
  C   C130      1.0  0.06879  0.20429  0.61701  1.0000
  C   C131      1.0  0.09658  0.28441  0.56947  1.0000
  H   H110      1.0  0.28617  0.32861  0.53539  1.0000
  H   H111      1.0  0.34539  0.19656  0.96975  1.0000
  C   C132      1.0  0.48964  0.25797  0.99458  1.0000
  C   C133      1.0  0.42208  0.08486  0.97439  1.0000
  C   C134      1.0  0.49299  0.01520  0.52170  1.0000
  C   C135      1.0  0.13400  0.04845  0.55020  1.0000
  H   H112      1.0  0.14032  0.21575  0.95677  1.0000
  C   C136      1.0  0.07216  0.05304  0.57871  1.0000
  H   H113      1.0  0.06385  0.10456  0.88992  1.0000
  H   H114      1.0  0.40077  0.06521  0.98317  1.0000
  H   H115      1.0  0.19104  0.12979  0.58815  1.0000
  C   C137      1.0  0.17075  0.18513  0.51336  1.0000
  C   C138      1.0  0.03587  0.31243  0.58140  1.0000
  C   C139      1.0  0.35582  0.25368  0.98221  1.0000
  C   C140      1.0  0.21292  0.08134  0.51253  1.0000
  H   H116      1.0  0.43469  0.15683  0.91424  1.0000
  S   S20       1.0  0.46973  0.05865  0.51796  1.0000
  H   H117      1.0  0.09825  0.13509  0.54073  1.0000
  H   H118      1.0  0.38657  0.11069  0.93311  1.0000
  H   H119      1.0  0.04310  0.13193  0.67281  1.0000
  C   C141      1.0  0.18688  0.15471  0.57182  1.0000
  H   H120      1.0  0.20846  0.16573  0.98954  1.0000
  C   C142      1.0  0.10028  0.10644  0.54888  1.0000
  C   C143      1.0  0.07064  0.17806  0.64587  1.0000
  C   C144      1.0  0.28009  0.07618  0.52453  1.0000
  C   C145      1.0  0.13231  0.08573  0.53946  1.0000
  C   C146      1.0  0.45721  0.08527  0.99205  1.0000
  C   C147      1.0  0.47636  0.13702  0.95321  1.0000
  C   C148      1.0  0.07032  0.09011  0.56828  1.0000
  C   C149      1.0  0.16253  0.08300  0.99259  1.0000
  C   C150      1.0  0.09419  0.15280  0.96656  1.0000
  C   C151      1.0  0.06527  0.12627  0.91078  1.0000
  C   C152      1.0  0.09256  0.12497  0.93912  1.0000
  H   H121      1.0  0.45570  0.21714  0.96635  1.0000
  H   H122      1.0  0.11199  0.10212  0.93948  1.0000
  C   C153      1.0  0.17627  0.21939  0.53049  1.0000
  H   H123      1.0  0.09463  0.17759  0.66463  1.0000
  C   C154      1.0  0.22926  0.07479  0.98116  1.0000
  H   H124      1.0  0.30620  0.08849  0.53413  1.0000
  C   C155      1.0  0.43228  0.32758  0.90753  1.0000
  H   H125      1.0  0.04852  0.04014  0.59290  1.0000
  C   C156      1.0  0.46359  0.22856  0.99327  1.0000
  C   C157      1.0  0.23442  0.11298  0.98230  1.0000
  C   C158      1.0  0.10387  0.03219  0.56951  1.0000
  C   C159      1.0  0.40326  0.32174  0.93360  1.0000
  H   H126      1.0  0.25328  0.05667  0.97768  1.0000
  H   H127      1.0  0.24815  0.12479  0.53574  1.0000
  C   C160      1.0  0.20361  0.13631  0.98821  1.0000
  C   C161      1.0  0.04166  0.15231  0.65052  1.0000
  H   H128      1.0  0.14483  0.31962  0.57782  1.0000
  P   P6        1.0  0.03440  0.23927  0.55559  1.0000
  H   H129      1.0  0.30381  0.24823  0.50953  1.0000
  C   C162      1.0  0.48455  0.11151  0.98176  1.0000
  H   H130      1.0  0.42763  0.32226  0.87793  1.0000
  C   C163      1.0  0.28000  0.04041  0.50990  1.0000
  H   H131      1.0  0.18943  0.03017  0.98610  1.0000
  C   C164      1.0  0.44431  0.34189  0.98384  1.0000
  C   C165      1.0  0.40905  0.32893  0.97201  1.0000
  C   C166      1.0  0.33992  0.28819  0.99028  1.0000
  H   H132      1.0  0.13511  0.07079  0.99787  1.0000
  H   H133      1.0  0.37611  0.31227  0.92371  1.0000
  H   H134      1.0  0.27576  0.20388  0.96840  1.0000
  C   C167      1.0  0.27761  0.26202  0.98067  1.0000
  H   H135      1.0  0.49649  0.15798  0.94516  1.0000
  H   H136      1.0  0.35087  0.03235  0.60184  1.0000
  C   C168      1.0  0.16736  0.12146  0.99348  1.0000
  C   C169      1.0  0.16172  0.25829  0.99270  1.0000
  H   H137      1.0  0.03174  0.16623  0.52085  1.0000
  H   H138      1.0  0.30595  0.02478  0.50835  1.0000
  C   C170      1.0  0.30062  0.29234  0.98874  1.0000
  H   H139      1.0  0.02017  0.20499  0.93656  1.0000
  C   C171      1.0  0.43967  0.34256  0.61753  1.0000
  Fe  Fe10      1.0  0.16144  0.41181  0.41048  1.0000
  S   S21       1.0  0.15696  0.44178  0.35509  1.0000
  H   H140      1.0  0.05167  0.60986  0.42091  1.0000
  Fe  Fe11      1.0  0.20894  0.41264  0.48049  1.0000
  S   S22       1.0  0.34559  0.67216  0.41429  1.0000
  C   C172      1.0  0.33406  0.48988  0.14650  1.0000
  S   S23       1.0  0.21406  0.38162  0.42636  1.0000
  S   S24       1.0  0.16010  0.44694  0.46230  1.0000
  H   H141      1.0  0.15768  0.55187  0.30048  1.0000
  Fe  Fe12      1.0  0.16118  0.43105  0.10824  1.0000
  S   S25       1.0  0.19604  0.39187  0.14224  1.0000
  S   S26       1.0  0.17510  0.49266  0.11321  1.0000
  H   H142      1.0  0.27213  0.62474  0.32515  1.0000
  H   H143      1.0  0.35578  0.62054  0.29500  1.0000
  S   S27       1.0  0.16230  0.39689  0.05542  1.0000
  S   S28       1.0  0.10584  0.40576  0.12766  1.0000
  C   C173      1.0  0.27924  0.51668  0.06942  1.0000
  C   C174      1.0  0.24508  0.49832  0.07770  1.0000
  C   C175      1.0  0.22002  0.51305  0.10413  1.0000
  H   H144      1.0  0.29818  0.50535  0.04861  1.0000
  H   H145      1.0  0.23769  0.47325  0.06302  1.0000
  C   C176      1.0  0.15200  0.41260  0.31594  1.0000
  C   C177      1.0  0.15231  0.42757  0.27955  1.0000
  C   C178      1.0  0.14765  0.40467  0.24804  1.0000
  H   H146      1.0  0.23263  0.58952  0.02282  1.0000
  H   H147      1.0  0.33272  0.44398  0.25172  1.0000
  C   C179      1.0  0.14752  0.37459  0.32075  1.0000
  C   C180      1.0  0.33909  0.59718  0.28579  1.0000
  H   H148      1.0  0.27943  0.63148  0.05150  1.0000
  H   H149      1.0  0.31819  0.50933  0.31172  1.0000
  C   C181      1.0  0.26415  0.47925  0.44300  1.0000
  C   C182      1.0  0.27899  0.50751  0.42050  1.0000
  H   H150      1.0  0.24517  0.45923  0.43087  1.0000
  H   H151      1.0  0.27141  0.50898  0.39111  1.0000
  C   C183      1.0  0.41376  0.42221  0.43040  1.0000
  C   C184      1.0  0.24796  0.62282  0.46234  1.0000
  H   H152      1.0  0.14743  0.36283  0.34871  1.0000
  S   S29       1.0  0.41623  0.61431  0.43081  1.0000
  H   H153      1.0  0.01331  0.41444  0.02834  1.0000
  C   C185      1.0  0.36767  0.42561  0.48057  1.0000
  Fe  Fe13      1.0  0.35324  0.61426  0.43543  1.0000
  H   H154      1.0  0.28093  0.57125  0.21483  1.0000
  H   H155      1.0  0.47350  0.63750  0.02651  1.0000
  H   H156      1.0  0.31907  0.62411  0.23572  1.0000
  C   C186      1.0  0.22126  0.66663  0.25148  1.0000
  H   H157      1.0  0.32906  0.45072  0.10142  1.0000
  H   H158      1.0  0.34137  0.38920  0.29214  1.0000
  Fe  Fe14      1.0  0.35921  0.62416  0.10013  1.0000
  S   S30       1.0  0.35204  0.64237  0.15990  1.0000
  S   S31       1.0  0.33268  0.57155  0.07587  1.0000
  C   C187      1.0  0.30374  0.53352  0.43587  1.0000
  Fe  Fe15      1.0  0.41424  0.65280  0.15943  1.0000
  S   S32       1.0  0.44860  0.63191  0.20810  1.0000
  H   H159      1.0  0.35695  0.50492  0.13319  1.0000
  S   S33       1.0  0.42256  0.63069  0.10089  1.0000
  C   C188      1.0  0.28931  0.54950  0.08798  1.0000
  C   C189      1.0  0.22994  0.54603  0.12251  1.0000
  C   C190      1.0  0.26463  0.56382  0.11501  1.0000
  H   H160      1.0  0.21062  0.55777  0.14268  1.0000
  H   H161      1.0  0.27215  0.58889  0.12959  1.0000
  C   C191      1.0  0.17235  0.64763  0.06843  1.0000
  C   C192      1.0  0.20928  0.63020  0.24493  1.0000
  C   C193      1.0  0.24442  0.62094  0.33738  1.0000
  C   C194      1.0  0.44112  0.65312  0.25206  1.0000
  C   C195      1.0  0.43726  0.63119  0.28437  1.0000
  C   C196      1.0  0.43429  0.64750  0.32011  1.0000
  C   C197      1.0  0.31831  0.45935  0.12856  1.0000
  C   C198      1.0  0.18938  0.61640  0.49707  1.0000
  H   H162      1.0  0.43680  0.60146  0.28175  1.0000
  C   C199      1.0  0.37648  0.42671  0.44224  1.0000
  H   H163      1.0  0.49214  0.57176  0.02110  1.0000
  H   H164      1.0  0.02271  0.38371  0.14472  1.0000
  H   H165      1.0  0.22457  0.53381  0.29943  1.0000
  C   C200      1.0  0.31811  0.59938  0.25269  1.0000
  S   S34       1.0  0.12225  0.36866  0.43389  1.0000
  S   S35       1.0  0.32190  0.56847  0.40686  1.0000
  C   C201      1.0  0.20909  0.61584  0.20847  1.0000
  C   C202      1.0  0.22059  0.63769  0.17821  1.0000
  C   C203      1.0  0.44220  0.41670  0.45693  1.0000
  P   P7        1.0  0.12264  0.65580  0.07563  1.0000
  H   H166      1.0  0.35440  0.43177  0.42188  1.0000
  C   C204      1.0  0.23730  0.58935  0.35877  1.0000
  H   H167      1.0  0.43140  0.63033  0.34485  1.0000
  H   H168      1.0  0.20020  0.58765  0.20371  1.0000
  H   H169      1.0  0.22045  0.62662  0.14993  1.0000
  C   C205      1.0  0.21568  0.64668  0.33101  1.0000
  C   C206      1.0  0.14217  0.35181  0.28933  1.0000
  H   H170      1.0  0.25927  0.56912  0.36256  1.0000
  H   H171      1.0  0.23333  0.40807  0.34317  1.0000
  H   H172      1.0  0.42442  0.36591  0.12565  1.0000
  H   H173      1.0  0.35496  0.56310  0.33271  1.0000
  H   H174      1.0  0.28115  0.35935  0.16606  1.0000
  H   H175      1.0  0.11714  0.54003  0.24490  1.0000
  C   C207      1.0  0.22315  0.61259  0.03972  1.0000
  H   H176      1.0  0.29184  0.37142  0.33815  1.0000
  H   H177      1.0  0.06784  0.64959  0.01214  1.0000
  C   C208      1.0  0.09448  0.61420  0.07912  1.0000
  C   C209      1.0  0.17974  0.64019  0.34643  1.0000
  Fe  Fe16      1.0  0.14187  0.36391  0.15731  1.0000
  C   C210      1.0  0.31368  0.53117  0.47382  1.0000
  H   H178      1.0  0.25050  0.43748  0.19245  1.0000
  C   C211      1.0  0.05506  0.61647  0.07704  1.0000
  H   H179      1.0  0.03660  0.54223  0.48272  1.0000
  H   H180      1.0  0.14107  0.57731  0.09166  1.0000
  H   H181      1.0  0.44766  0.54775  0.48653  1.0000
  C   C212      1.0  0.12355  0.57628  0.47423  1.0000
  H   H182      1.0  0.20040  0.61254  0.26777  1.0000
  H   H183      1.0  0.04139  0.64277  0.07291  1.0000
  S   S36       1.0  0.35044  0.63026  0.49649  1.0000
  C   C213      1.0  0.04961  0.55059  0.08658  1.0000
  H   H184      1.0  0.15656  0.65869  0.34080  1.0000
  Fe  Fe17      1.0  0.41378  0.63296  0.49103  1.0000
  H   H185      1.0  0.14409  0.50988  0.18826  1.0000
  H   H186      1.0  0.21043  0.49155  0.18687  1.0000
  Fe  Fe18      1.0  0.11039  0.36744  0.07752  1.0000
  C   C214      1.0  0.24810  0.66064  0.46947  1.0000
  H   H187      1.0  0.42069  0.42351  0.40073  1.0000
  Fe  Fe19      1.0  0.12433  0.40249  0.48729  1.0000
  H   H188      1.0  0.05834  0.46251  0.00914  1.0000
  C   C215      1.0  0.24960  0.63623  0.05595  1.0000
  H   H189      1.0  0.27556  0.41740  0.13078  1.0000
  C   C216      1.0  0.03279  0.58477  0.08005  1.0000
  H   H190      1.0  0.10168  0.52180  0.09626  1.0000
  C   C217      1.0  0.29880  0.40996  0.03315  1.0000
  H   H191      1.0  0.19680  0.55916  0.39188  1.0000
  H   H192      1.0  0.47124  0.41381  0.44793  1.0000
  H   H193      1.0  0.16457  0.60066  0.03161  1.0000
  C   C218      1.0  0.11113  0.53636  0.42073  1.0000
  C   C219      1.0  0.08190  0.55957  0.40942  1.0000
  C   C220      1.0  0.07422  0.59174  0.42973  1.0000
  C   C221      1.0  0.09528  0.60033  0.46178  1.0000
  C   C222      1.0  0.29925  0.50250  0.49621  1.0000
  C   C223      1.0  0.13213  0.54489  0.45278  1.0000
  H   H194      1.0  0.14756  0.41644  0.22006  1.0000
  C   C224      1.0  0.11104  0.57990  0.08727  1.0000
  H   H195      1.0  0.11750  0.51158  0.40478  1.0000
  H   H196      1.0  0.06533  0.55267  0.38486  1.0000
  C   C225      1.0  0.18464  0.61865  0.04531  1.0000
  H   H197      1.0  0.21915  0.57136  0.47003  1.0000
  H   H198      1.0  0.15506  0.52695  0.46080  1.0000
  H   H199      1.0  0.33878  0.42988  0.48931  1.0000
  C   C226      1.0  0.13130  0.66278  0.15293  1.0000
  H   H200      1.0  0.24089  0.37547  0.22110  1.0000
  C   C227      1.0  0.27459  0.47648  0.48077  1.0000
  H   H201      1.0  0.22389  0.46213  0.30317  1.0000
  H   H202      1.0  0.27078  0.61061  0.44656  1.0000
  C   C228      1.0  0.27375  0.45240  0.17981  1.0000
  C   C229      1.0  0.28903  0.48342  0.19787  1.0000
  C   C230      1.0  0.31979  0.50172  0.18111  1.0000
  P   P8        1.0  0.27139  0.49680  0.24378  1.0000
  C   C231      1.0  0.22264  0.51107  0.24317  1.0000
  C   C232      1.0  0.27769  0.45737  0.27427  1.0000
  C   C233      1.0  0.24984  0.44688  0.30032  1.0000
  C   C234      1.0  0.25506  0.41597  0.32322  1.0000
  C   C235      1.0  0.28802  0.39528  0.32033  1.0000
  C   C236      1.0  0.31588  0.40540  0.29448  1.0000
  C   C237      1.0  0.31082  0.43640  0.27158  1.0000
  C   C238      1.0  0.20736  0.52883  0.27484  1.0000
  C   C239      1.0  0.16946  0.53920  0.27550  1.0000
  C   C240      1.0  0.14663  0.53246  0.24430  1.0000
  C   C241      1.0  0.16175  0.51534  0.21248  1.0000
  C   C242      1.0  0.19958  0.50470  0.21186  1.0000
  C   C243      1.0  0.29728  0.53607  0.26123  1.0000
  C   C244      1.0  0.29675  0.56922  0.24079  1.0000
  H   H203      1.0  0.33326  0.52499  0.19441  1.0000
  H   H204      1.0  0.33296  0.55099  0.48573  1.0000
  C   C245      1.0  0.33876  0.56470  0.30695  1.0000
  C   C246      1.0  0.31791  0.53418  0.29483  1.0000
  C   C247      1.0  0.32088  0.37811  0.03428  1.0000
  H   H205      1.0  0.15584  0.45692  0.27575  1.0000
  H   H206      1.0  0.31915  0.36025  0.05867  1.0000
  C   C248      1.0  0.14200  0.36678  0.25295  1.0000
  C   C249      1.0  0.28813  0.44066  0.14514  1.0000
  C   C250      1.0  0.20191  0.58358  0.37494  1.0000
  Fe  Fe20      1.0  0.19384  0.35649  0.09106  1.0000
  H   H207      1.0  0.03240  0.52598  0.08898  1.0000
  Fe  Fe21      1.0  0.40857  0.67384  0.41504  1.0000
  C   C251      1.0  0.23760  0.66597  0.07780  1.0000
  C   C252      1.0  0.08867  0.54823  0.09051  1.0000
  H   H208      1.0  0.14564  0.60456  0.38125  1.0000
  C   C253      1.0  0.17316  0.60911  0.36889  1.0000
  H   H209      1.0  0.27996  0.41617  0.05633  1.0000
  C   C254      1.0  0.40135  0.34791  0.07277  1.0000
  H   H210      1.0  0.40473  0.37476  0.05979  1.0000
  C   C255      1.0  0.50885  0.66208  0.43351  1.0000
  C   C256      1.0  0.21865  0.60071  0.47584  1.0000
  H   H211      1.0  0.13918  0.66821  0.21277  1.0000
  C   C257      1.0  0.25810  0.35083  0.22159  1.0000
  H   H212      1.0  0.47725  0.48586  0.48846  1.0000
  H   H213      1.0  0.08919  0.62548  0.47704  1.0000
  H   H214      1.0  0.44999  0.34731  0.01318  1.0000
  H   H215      1.0  0.07092  0.48276  0.47627  1.0000
  S   S37       1.0  0.06117  0.35173  0.03893  1.0000
  H   H216      1.0  0.14615  0.63680  0.15134  1.0000
  C   C258      1.0  0.19915  0.67173  0.08405  1.0000
  C   C259      1.0  0.23181  0.67406  0.18431  1.0000
  H   H217      1.0  0.50136  0.65405  0.40509  1.0000
  C   C260      1.0  0.02885  0.46948  0.01268  1.0000
  C   C261      1.0  0.43346  0.41580  0.49531  1.0000
  C   C262      1.0  0.34401  0.36873  0.00371  1.0000
  C   C263      1.0  0.50178  0.62898  0.03405  1.0000
  C   C264      1.0  0.01652  0.50550  0.00620  1.0000
  C   C265      1.0  0.30028  0.43317  0.00181  1.0000
  H   H218      1.0  0.28292  0.45771  0.00088  1.0000
  C   C266      1.0  0.08072  0.67656  0.01182  1.0000
  C   C267      1.0  0.21831  0.67672  0.48918  1.0000
  H   H219      1.0  0.22677  0.56338  0.54212  1.0000
  S   S38       1.0  0.07488  0.41758  0.52608  1.0000
  H   H220      1.0  0.48955  0.34598  0.89933  1.0000
  H   H221      1.0  0.13962  0.65935  0.63216  1.0000
  C   C268      1.0  0.48012  0.39615  0.61501  1.0000
  C   C269      1.0  0.47338  0.36009  0.62706  1.0000
  C   C270      1.0  0.21888  0.50813  0.56188  1.0000
  S   S39       1.0  0.45352  0.61154  0.53708  1.0000
  H   H222      1.0  0.47861  0.53790  0.63743  1.0000
  H   H223      1.0  0.20343  0.45300  0.57841  1.0000
  C   C271      1.0  0.05120  0.46101  0.52911  1.0000
  C   C272      1.0  0.16875  0.54554  0.53571  1.0000
  C   C273      1.0  0.47596  0.56749  0.53601  1.0000
  H   H224      1.0  0.24081  0.35637  0.58030  1.0000
  H   H225      1.0  0.45952  0.44248  0.58381  1.0000
  C   C274      1.0  0.03434  0.52175  0.50470  1.0000
  H   H226      1.0  0.03643  0.61572  0.58777  1.0000
  C   C275      1.0  0.45335  0.41476  0.59351  1.0000
  H   H227      1.0  0.38851  0.45704  0.63105  1.0000
  H   H228      1.0  0.30724  0.50037  0.52544  1.0000
  H   H229      1.0  0.16555  0.66789  0.51708  1.0000
  C   C276      1.0  0.48438  0.50595  0.50973  1.0000
  C   C277      1.0  0.15559  0.48360  0.55839  1.0000
  H   H230      1.0  0.07114  0.58777  0.53512  1.0000
  C   C278      1.0  0.38512  0.49889  0.54523  1.0000
  H   H231      1.0  0.02668  0.44805  0.58293  1.0000
  C   C279      1.0  0.19350  0.47913  0.56757  1.0000
  C   C280      1.0  0.33894  0.40182  0.56457  1.0000
  C   C281      1.0  0.31323  0.41723  0.59018  1.0000
  C   C282      1.0  0.39604  0.41996  0.50740  1.0000
  H   H232      1.0  0.49179  0.44249  0.70778  1.0000
  C   C283      1.0  0.05383  0.34531  0.59146  1.0000
  C   C284      1.0  0.39013  0.51560  0.62183  1.0000
  C   C285      1.0  0.38688  0.53560  0.55702  1.0000
  C   C286      1.0  0.49160  0.52463  0.66143  1.0000
  H   H233      1.0  0.24835  0.50435  0.56860  1.0000
  H   H234      1.0  0.11372  0.51998  0.53603  1.0000
  C   C287      1.0  0.38798  0.47881  0.61017  1.0000
  C   C288      1.0  0.49875  0.47091  0.70111  1.0000
  H   H235      1.0  0.31980  0.44235  0.60508  1.0000
  H   H236      1.0  0.36318  0.38591  0.94841  1.0000
  C   C289      1.0  0.06663  0.61969  0.58552  1.0000
  C   C290      1.0  0.20659  0.54135  0.54619  1.0000
  C   C291      1.0  0.41929  0.39752  0.58400  1.0000
  C   C292      1.0  0.38972  0.54399  0.59521  1.0000
  C   C293      1.0  0.05384  0.48793  0.50094  1.0000
  H   H237      1.0  0.47276  0.55350  0.84388  1.0000
  C   C294      1.0  0.34554  0.39230  0.97235  1.0000
  C   C295      1.0  0.01166  0.52916  0.53640  1.0000
  H   H238      1.0  0.46286  0.47307  0.65245  1.0000
  H   H239      1.0  0.25810  0.41306  0.61526  1.0000
  C   C296      1.0  0.08642  0.60416  0.55539  1.0000
  H   H240      1.0  0.50040  0.60801  0.87569  1.0000
  C   C297      1.0  0.02860  0.46840  0.56079  1.0000
  C   C298      1.0  0.14464  0.62864  0.58048  1.0000
  H   H241      1.0  0.13582  0.46118  0.56272  1.0000
  C   C299      1.0  0.12549  0.60927  0.55215  1.0000
  C   C300      1.0  0.32894  0.36962  0.54501  1.0000
  H   H242      1.0  0.39230  0.52213  0.65146  1.0000
  C   C301      1.0  0.14321  0.51680  0.54282  1.0000
  P   P9        1.0  0.15182  0.58762  0.51471  1.0000
  H   H243      1.0  0.38693  0.55763  0.53637  1.0000
  H   H244      1.0  0.39189  0.57255  0.60393  1.0000
  H   H245      1.0  0.45613  0.41248  0.51531  1.0000
  C   C302      1.0  0.32386  0.42449  0.97155  1.0000
  C   C303      1.0  0.08571  0.63986  0.61296  1.0000
  H   H246      1.0  0.34825  0.35733  0.52501  1.0000
  C   C304      1.0  0.48247  0.48809  0.67000  1.0000
  H   H247      1.0  0.32503  0.44257  0.94730  1.0000
  C   C305      1.0  0.38555  0.47016  0.57173  1.0000
  H   H248      1.0  0.38369  0.49329  0.51538  1.0000
  C   C306      1.0  0.46763  0.54121  0.50846  1.0000
  S   S40       1.0  0.17379  0.36976  0.50971  1.0000
  C   C307      1.0  0.27812  0.40060  0.59612  1.0000
  P   P10       1.0  0.38469  0.42248  0.55688  1.0000
  C   C308      1.0  0.41268  0.36114  0.59609  1.0000
  C   C309      1.0  0.50219  0.55830  0.56415  1.0000
  C   C310      1.0  0.12475  0.64420  0.61054  1.0000
  H   H249      1.0  0.50190  0.52865  0.78646  1.0000
  H   H250      1.0  0.03737  0.36936  0.59902  1.0000
  H   H251      1.0  0.10675  0.37386  0.59659  1.0000
  H   H252      1.0  0.17500  0.63146  0.57950  1.0000
  S   S41       1.0  0.25804  0.43984  0.50843  1.0000
  C   C311      1.0  0.47314  0.34785  0.95768  1.0000
  H   H253      1.0  0.07021  0.65169  0.63632  1.0000
  H   H254      1.0  0.38693  0.34688  0.58902  1.0000
  C   C312      1.0  0.18874  0.65477  0.50255  1.0000
  H   H255      1.0  0.50023  0.35774  0.96721  1.0000
  C   C313      1.0  0.26837  0.36865  0.57644  1.0000
  C   C314      1.0  0.49790  0.56643  0.83249  1.0000
  C   C315      1.0  0.09305  0.34787  0.59016  1.0000
  H   H256      1.0  0.50643  0.40952  0.62174  1.0000
  C   C316      1.0  0.50997  0.49641  0.53828  1.0000
  C   C317      1.0  0.29382  0.35311  0.55099  1.0000
  H   H257      1.0  0.49450  0.34564  0.64343  1.0000
  H   H258      1.0  0.50920  0.57847  0.58538  1.0000
  H   H259      1.0  0.03643  0.52663  0.99764  1.0000
  H   H260      1.0  0.44270  0.73741  0.29429  1.0000
  Fe  Fe22      1.0  0.08280  0.91633  0.38483  1.0000
  S   S42       1.0  0.07915  0.88339  0.43832  1.0000
  S   S43       1.0  0.04805  0.90872  0.33218  1.0000
  Fe  Fe23      1.0  0.14151  0.96729  0.41705  1.0000
  C   C318      1.0  0.37532  0.80696  0.25607  1.0000
  Fe  Fe24      1.0  0.14302  0.88508  0.43792  1.0000
  H   H261      1.0  0.07623  0.75486  0.15983  1.0000
  Fe  Fe25      1.0  0.08115  0.93865  0.46827  1.0000
  S   S44       1.0  0.14565  0.91600  0.38288  1.0000
  S   S45       1.0  0.07897  0.97058  0.41462  1.0000
  S   S46       1.0  0.41092  0.71190  0.14101  1.0000
  S   S47       1.0  0.30593  0.73787  0.16072  1.0000
  Fe  Fe26      1.0  0.06994  0.84071  0.06111  1.0000
  S   S48       1.0  0.10953  0.80183  0.08999  1.0000
  H   H262      1.0  0.46161  0.96299  0.22239  1.0000
  Fe  Fe27      1.0  0.12175  0.90814  0.07568  1.0000
  S   S49       1.0  0.16416  0.87347  0.10497  1.0000
  S   S50       1.0  0.13503  0.96965  0.07217  1.0000
  Fe  Fe28      1.0  0.15463  0.83268  0.05917  1.0000
  S   S51       1.0  0.20464  0.80540  0.03275  1.0000
  Fe  Fe29      1.0  0.11550  0.84614  0.13377  1.0000
  S   S52       1.0  0.12863  0.83102  0.19407  1.0000
  S   S53       1.0  0.11541  0.86904  0.02697  1.0000
  S   S54       1.0  0.07238  0.88362  0.10761  1.0000
  C   C319      1.0  0.24884  0.97398  0.05510  1.0000
  C   C320      1.0  0.21176  0.96066  0.05940  1.0000
  C   C321      1.0  0.18225  0.98511  0.06702  1.0000
  H   H263      1.0  0.27131  0.95487  0.04892  1.0000
  H   H264      1.0  0.20593  0.93153  0.05624  1.0000
  C   C322      1.0  0.27778  0.75600  0.12485  1.0000
  C   C323      1.0  0.24087  0.76673  0.13290  1.0000
  C   C324      1.0  0.21814  0.78152  0.10450  1.0000
  C   C325      1.0  0.23229  0.78544  0.06795  1.0000
  C   C326      1.0  0.26910  0.77431  0.05979  1.0000
  C   C327      1.0  0.29191  0.75981  0.08829  1.0000
  H   H265      1.0  0.22972  0.76348  0.16107  1.0000
  H   H266      1.0  0.18968  0.78994  0.11098  1.0000
  H   H267      1.0  0.28012  0.77735  0.03156  1.0000
  H   H268      1.0  0.32074  0.75259  0.08210  1.0000
  C   C328      1.0  0.07088  0.88805  0.29344  1.0000
  C   C329      1.0  0.05348  0.88794  0.25802  1.0000
  C   C330      1.0  0.07135  0.87149  0.22686  1.0000
  C   C331      1.0  0.10659  0.85488  0.23118  1.0000
  C   C332      1.0  0.12413  0.85548  0.26642  1.0000
  C   C333      1.0  0.10627  0.87176  0.29746  1.0000
  C   C334      1.0  0.48462  0.85301  0.15010  1.0000
  H   H269      1.0  0.05753  0.87097  0.19979  1.0000
  H   H270      1.0  0.15153  0.84302  0.26985  1.0000
  H   H271      1.0  0.11959  0.87102  0.32462  1.0000
  C   C335      1.0  0.38019  0.84982  0.06511  1.0000
  C   C336      1.0  0.20623  0.00453  0.15662  1.0000
  C   C337      1.0  0.26312  0.75723  0.44475  1.0000
  H   H272      1.0  0.36003  0.70167  0.27250  1.0000
  C   C338      1.0  0.43677  0.68580  0.32384  1.0000
  C   C339      1.0  0.40772  0.94754  0.44692  1.0000
  H   H273      1.0  0.02860  0.75623  0.07767  1.0000
  C   C340      1.0  0.23416  0.98128  0.39217  1.0000
  C   C341      1.0  0.27335  0.97779  0.38980  1.0000
  H   H274      1.0  0.21641  0.95754  0.38745  1.0000
  H   H275      1.0  0.28585  0.95143  0.38306  1.0000
  C   C342      1.0  0.43536  0.88903  0.46423  1.0000
  C   C343      1.0  0.26438  0.91635  0.45680  1.0000
  C   C344      1.0  0.30067  0.69528  0.28344  1.0000
  C   C345      1.0  0.32834  0.90139  0.47547  1.0000
  H   H276      1.0  0.24209  0.99969  0.22938  1.0000
  C   C346      1.0  0.45749  0.97893  0.28005  1.0000
  H   H277      1.0  0.49591  0.71864  0.42384  1.0000
  C   C347      1.0  0.29633  0.00819  0.39730  1.0000
  H   H278      1.0  0.12727  0.77329  0.00549  1.0000
  H   H279      1.0  0.10438  0.72754  0.21690  1.0000
  C   C348      1.0  0.14347  0.76468  0.28379  1.0000
  C   C349      1.0  0.37294  0.80839  0.13141  1.0000
  C   C350      1.0  0.40700  0.80860  0.11174  1.0000
  C   C351      1.0  0.16965  0.00187  0.17074  1.0000
  C   C352      1.0  0.34173  0.99770  0.17729  1.0000
  H   H280      1.0  0.36969  0.79135  0.15629  1.0000
  H   H281      1.0  0.43025  0.79196  0.12149  1.0000
  P   P11       1.0  0.22380  0.68464  0.29898  1.0000
  H   H282      1.0  0.36985  0.98067  0.22728  1.0000
  H   H283      1.0  0.24063  0.69092  0.16075  1.0000
  C   C353      1.0  0.48601  0.91691  0.13082  1.0000
  C   C354      1.0  0.23223  0.68856  0.22071  1.0000
  C   C355      1.0  0.46271  0.89362  0.43618  1.0000
  C   C356      1.0  0.43882  0.97399  0.31429  1.0000
  C   C357      1.0  0.34130  0.85817  0.20819  1.0000
  C   C358      1.0  0.21674  0.80700  0.45209  1.0000
  H   H284      1.0  0.14073  0.99151  0.33166  1.0000
  H   H285      1.0  0.19300  0.71774  0.36807  1.0000
  P   P12       1.0  0.38489  0.87363  0.02075  1.0000
  C   C359      1.0  0.34355  0.72843  0.32404  1.0000
  C   C360      1.0  0.31396  0.73589  0.34878  1.0000
  C   C361      1.0  0.27775  0.72276  0.34106  1.0000
  H   H286      1.0  0.38867  0.78680  0.27418  1.0000
  C   C362      1.0  0.34273  0.82943  0.11849  1.0000
  H   H287      1.0  0.32630  0.77311  0.24584  1.0000
  C   C363      1.0  0.44137  0.89678  0.17876  1.0000
  H   H288      1.0  0.29598  0.81853  0.20429  1.0000
  C   C364      1.0  0.13506  0.77543  0.32059  1.0000
  C   C365      1.0  0.15346  0.75876  0.35075  1.0000
  C   C366      1.0  0.18006  0.73110  0.34415  1.0000
  S   S55       1.0  0.35149  0.68114  0.07607  1.0000
  H   H289      1.0  0.43710  0.82857  0.06341  1.0000
  Fe  Fe30      1.0  0.34916  0.69962  0.13633  1.0000
  C   C367      1.0  0.46257  0.92517  0.41356  1.0000
  H   H290      1.0  0.37175  0.73779  0.33059  1.0000
  H   H291      1.0  0.31941  0.75085  0.37458  1.0000
  H   H292      1.0  0.25570  0.72785  0.36124  1.0000
  C   C368      1.0  0.47746  0.78897  0.43159  1.0000
  H   H293      1.0  0.44571  0.99156  0.33793  1.0000
  H   H294      1.0  0.11420  0.79667  0.32575  1.0000
  H   H295      1.0  0.14697  0.76730  0.37932  1.0000
  C   C369      1.0  0.23234  0.77783  0.43113  1.0000
  C   C370      1.0  0.22247  0.84500  0.33912  1.0000
  C   C371      1.0  0.25708  0.82684  0.33983  1.0000
  C   C372      1.0  0.28707  0.83992  0.31803  1.0000
  C   C373      1.0  0.28234  0.87111  0.29536  1.0000
  C   C374      1.0  0.24776  0.88984  0.29485  1.0000
  C   C375      1.0  0.21775  0.87631  0.31672  1.0000
  P   P13       1.0  0.24044  0.92680  0.26153  1.0000
  C   C376      1.0  0.27242  0.96516  0.26791  1.0000
  C   C377      1.0  0.24443  0.90603  0.21559  1.0000
  C   C378      1.0  0.26112  0.92471  0.18516  1.0000
  C   C379      1.0  0.26200  0.90834  0.14950  1.0000
  C   C380      1.0  0.24708  0.87310  0.14422  1.0000
  C   C381      1.0  0.22982  0.85480  0.17423  1.0000
  C   C382      1.0  0.22854  0.87105  0.20970  1.0000
  C   C383      1.0  0.34019  0.79922  0.24031  1.0000
  H   H296      1.0  0.37716  0.90689  0.28908  1.0000
  H   H297      1.0  0.30694  0.94001  0.31121  1.0000
  S   S56       1.0  0.34505  0.00365  0.39598  1.0000
  C   C384      1.0  0.30225  0.96391  0.29372  1.0000
  C   C385      1.0  0.19348  0.94508  0.26705  1.0000
  C   C386      1.0  0.18460  0.96545  0.29938  1.0000
  H   H298      1.0  0.48399  0.92898  0.39215  1.0000
  C   C387      1.0  0.11962  0.96963  0.27952  1.0000
  C   C388      1.0  0.39359  0.84023  0.24773  1.0000
  C   C389      1.0  0.16520  0.93801  0.24043  1.0000
  H   H299      1.0  0.19901  0.83461  0.35562  1.0000
  H   H300      1.0  0.26049  0.80254  0.35714  1.0000
  H   H301      1.0  0.31374  0.82548  0.31822  1.0000
  H   H302      1.0  0.30536  0.88027  0.27766  1.0000
  H   H303      1.0  0.19029  0.88912  0.31590  1.0000
  H   H304      1.0  0.27282  0.95198  0.18850  1.0000
  H   H305      1.0  0.27319  0.92325  0.12559  1.0000
  H   H306      1.0  0.24727  0.86059  0.11649  1.0000
  H   H307      1.0  0.21580  0.82867  0.16979  1.0000
  H   H308      1.0  0.21385  0.85672  0.23216  1.0000
  C   C390      1.0  0.44761  0.95761  0.24886  1.0000
  H   H309      1.0  0.32248  0.86649  0.07650  1.0000
  C   C391      1.0  0.14773  0.97733  0.30576  1.0000
  H   H310      1.0  0.38791  0.80903  0.40476  1.0000
  H   H311      1.0  0.50204  0.70395  0.17438  1.0000
  H   H312      1.0  0.44546  0.70859  0.23087  1.0000
  H   H313      1.0  0.14849  0.72924  0.05351  1.0000
  S   S57       1.0  0.14479  0.93774  0.47248  1.0000
  C   C392      1.0  0.49264  0.76958  0.06657  1.0000
  C   C393      1.0  0.10753  0.71366  0.19013  1.0000
  C   C394      1.0  0.37280  0.93853  0.18392  1.0000
  C   C395      1.0  0.36312  0.93006  0.14664  1.0000
  C   C396      1.0  0.34236  0.95504  0.12514  1.0000
  C   C397      1.0  0.33163  0.98879  0.14052  1.0000
  H   H314      1.0  0.23930  0.88070  0.41549  1.0000
  C   C398      1.0  0.36192  0.97262  0.19912  1.0000
  H   H315      1.0  0.08225  0.72341  0.09874  1.0000
  C   C399      1.0  0.41073  0.82936  0.07882  1.0000
  H   H316      1.0  0.43144  0.99629  0.06101  1.0000
  H   H317      1.0  0.37223  0.90440  0.13412  1.0000
  H   H318      1.0  0.33448  0.94849  0.09650  1.0000
  H   H319      1.0  0.45291  0.80674  0.37931  1.0000
  H   H320      1.0  0.35239  0.85412  0.44750  1.0000
  C   C400      1.0  0.41886  0.93105  0.25166  1.0000
  H   H321      1.0  0.44387  0.83832  0.19180  1.0000
  C   C401      1.0  0.47928  0.75395  0.03322  1.0000
  H   H322      1.0  0.49510  0.82511  0.14748  1.0000
  H   H323      1.0  0.39557  0.94408  0.34406  1.0000
  H   H324      1.0  0.10659  0.94418  0.22648  1.0000
  S   S58       1.0  0.41174  0.69319  0.47491  1.0000
  C   C402      1.0  0.18913  0.72040  0.30718  1.0000
  C   C403      1.0  0.45549  0.86075  0.17548  1.0000
  C   C404      1.0  0.43506  0.95212  0.41904  1.0000
  H   H325      1.0  0.17075  0.92210  0.21530  1.0000
  C   C405      1.0  0.49575  0.99066  0.49147  1.0000
  C   C406      1.0  0.34633  0.85038  0.08567  1.0000
  H   H326      1.0  0.48358  0.75841  0.09332  1.0000
  S   S59       1.0  0.17722  0.83108  0.43309  1.0000
  H   H327      1.0  0.32758  0.87728  0.18943  1.0000
  C   C407      1.0  0.17053  0.73751  0.27702  1.0000
  H   H328      1.0  0.22031  0.77111  0.40416  1.0000
  C   C408      1.0  0.44060  0.70780  0.29153  1.0000
  H   H329      1.0  0.31605  0.82851  0.13330  1.0000
  C   C409      1.0  0.42076  0.90839  0.02829  1.0000
  C   C410      1.0  0.09151  0.72903  0.15791  1.0000
  C   C411      1.0  0.29601  0.86417  0.42874  1.0000
  H   H330      1.0  0.21703  0.98319  0.13825  1.0000
  H   H331      1.0  0.27465  0.73500  0.42819  1.0000
  C   C412      1.0  0.10879  0.68638  0.03778  1.0000
  P   P14       1.0  0.40246  0.90732  0.21004  1.0000
  C   C413      1.0  0.32305  0.82495  0.21675  1.0000
  S   S60       1.0  0.44684  0.71632  0.03299  1.0000
  C   C414      1.0  0.49982  0.88105  0.12771  1.0000
  C   C415      1.0  0.40033  0.92613  0.28633  1.0000
  Fe  Fe31      1.0  0.34847  0.68907  0.47478  1.0000
  C   C416      1.0  0.44204  0.69155  0.25564  1.0000
  C   C417      1.0  0.26599  0.99785  0.24792  1.0000
  C   C418      1.0  0.41056  0.94730  0.31759  1.0000
  C   C419      1.0  0.12852  0.95059  0.24658  1.0000
  H   H332      1.0  0.37566  0.79181  0.47131  1.0000
  C   C420      1.0  0.27060  0.70258  0.30814  1.0000
  H   H333      1.0  0.29554  0.84062  0.41012  1.0000
  C   C421      1.0  0.37702  0.86586  0.22316  1.0000
  H   H334      1.0  0.15209  0.97863  0.16276  1.0000
  C   C422      1.0  0.27822  0.76477  0.48023  1.0000
  H   H335      1.0  0.47882  0.00023  0.27733  1.0000
  H   H336      1.0  0.37970  0.79245  0.01512  1.0000
  H   H337      1.0  0.38653  0.96861  0.45084  1.0000
  C   C423      1.0  0.33694  0.70802  0.29145  1.0000
  H   H338      1.0  0.38252  0.94913  0.05115  1.0000
  H   H339      1.0  0.12912  0.77765  0.26038  1.0000
  C   C424      1.0  0.43911  0.96962  0.04951  1.0000
  C   C425      1.0  0.12620  0.72110  0.03449  1.0000
  C   C426      1.0  0.09541  0.71135  0.12317  1.0000
  H   H340      1.0  0.09069  0.97737  0.28518  1.0000
  C   C427      1.0  0.41109  0.80157  0.42294  1.0000
  H   H341      1.0  0.49790  0.93863  0.11355  1.0000
  S   S61       1.0  0.43642  0.70677  0.36855  1.0000
  C   C428      1.0  0.11419  0.74628  0.00727  1.0000
  C   C429      1.0  0.47073  0.77859  0.46910  1.0000
  C   C430      1.0  0.50549  0.69896  0.44444  1.0000
  H   H342      1.0  0.48298  0.99777  0.46491  1.0000
  H   H343      1.0  0.24184  0.71667  0.22482  1.0000
  H   H344      1.0  0.31594  0.00826  0.12375  1.0000
  C   C431      1.0  0.43392  0.78094  0.48352  1.0000
  H   H345      1.0  0.44606  0.95271  0.15731  1.0000
  H   H346      1.0  0.43484  0.97685  0.40205  1.0000
  H   H347      1.0  0.20593  0.97117  0.32023  1.0000
  H   H348      1.0  0.42107  0.84563  0.25974  1.0000
  C   C432      1.0  0.45679  0.92476  0.15597  1.0000
  Fe  Fe32      1.0  0.41428  0.68965  0.08204  1.0000
  H   H349      1.0  0.17644  0.73010  0.24820  1.0000
  C   C433      1.0  0.26421  0.88654  0.43201  1.0000
  C   C434      1.0  0.32802  0.87170  0.45018  1.0000
  C   C435      1.0  0.40422  0.79205  0.46042  1.0000
  C   C436      1.0  0.44774  0.80037  0.40864  1.0000
  C   C437      1.0  0.41134  0.94279  0.04379  1.0000
  C   C438      1.0  0.47664  0.96205  0.04045  1.0000
  H   H350      1.0  0.24684  0.99843  0.48283  1.0000
  H   H351      1.0  0.48425  0.87289  0.43227  1.0000
  H   H352      1.0  0.02604  0.90043  0.25472  1.0000
  H   H353      1.0  0.25818  0.68466  0.08974  1.0000
  H   H354      1.0  0.19048  0.69527  0.10069  1.0000
  C   C439      1.0  0.32587  0.99454  0.29818  1.0000
  H   H355      1.0  0.34858  0.99384  0.31832  1.0000
  C   C440      1.0  0.23246  0.81526  0.48716  1.0000
  S   S62       1.0  0.01770  0.82068  0.02930  1.0000
  C   C441      1.0  0.11627  0.67865  0.12027  1.0000
  C   C442      1.0  0.12717  0.68037  0.18772  1.0000
  H   H356      1.0  0.29635  0.94828  0.49584  1.0000
  H   H357      1.0  0.29656  0.67947  0.25812  1.0000
  H   H358      1.0  0.31118  0.83876  0.01239  1.0000
  C   C443      1.0  0.30884  0.86712  0.00306  1.0000
  H   H359      1.0  0.23960  0.93360  0.45915  1.0000
  H   H360      1.0  0.27138  0.67743  0.45975  1.0000
  C   C444      1.0  0.29653  0.92423  0.47799  1.0000
  C   C445      1.0  0.40780  0.91624  0.46996  1.0000
  C   C446      1.0  0.34021  0.89082  0.00388  1.0000
  H   H361      1.0  0.49818  0.98284  0.04473  1.0000
  C   C447      1.0  0.48653  0.92733  0.02657  1.0000
  C   C448      1.0  0.45881  0.90049  0.02080  1.0000
  H   H362      1.0  0.21829  0.70621  0.49425  1.0000
  H   H363      1.0  0.43586  0.86426  0.48115  1.0000
  H   H364      1.0  0.46734  0.87358  0.01064  1.0000
  P   P15       1.0  0.50775  0.75719  0.49634  1.0000
  H   H365      1.0  0.50538  0.78655  0.41951  1.0000
  C   C449      1.0  0.35471  0.00898  0.58326  1.0000
  C   C450      1.0  0.33659  0.92677  0.98956  1.0000
  H   H366      1.0  0.31540  0.92604  0.56217  1.0000
  C   C451      1.0  0.47795  0.76235  0.62278  1.0000
  C   C452      1.0  0.38504  0.00844  0.55818  1.0000
  H   H367      1.0  0.24292  0.92621  0.96895  1.0000
  C   C453      1.0  0.47162  0.73306  0.56188  1.0000
  C   C454      1.0  0.51003  0.00548  0.55597  1.0000
  C   C455      1.0  0.42132  0.79111  0.92911  1.0000
  H   H368      1.0  0.39938  0.74901  0.96613  1.0000
  H   H369      1.0  0.42134  0.88304  0.94761  1.0000
  C   C456      1.0  0.06839  0.70207  0.98501  1.0000
  C   C457      1.0  0.40402  0.77831  0.96199  1.0000
  C   C458      1.0  0.49601  0.75933  0.54584  1.0000
  C   C459      1.0  0.49265  0.76801  0.99873  1.0000
  P   P16       1.0  0.36999  0.90984  0.50332  1.0000
  H   H370      1.0  0.47109  0.76355  0.65250  1.0000
  C   C460      1.0  0.36449  0.94892  0.53438  1.0000
  C   C461      1.0  0.39660  0.81212  0.58175  1.0000
  C   C462      1.0  0.42060  0.84270  0.58021  1.0000
  C   C463      1.0  0.01918  0.00027  0.51938  1.0000
  H   H371      1.0  0.04550  0.69494  0.96625  1.0000
  S   S63       1.0  0.04286  0.95689  0.51690  1.0000
  C   C464      1.0  0.41241  0.87216  0.55624  1.0000
  C   C465      1.0  0.38011  0.87122  0.53360  1.0000
  C   C466      1.0  0.35587  0.84063  0.53567  1.0000
  H   H372      1.0  0.42751  0.77251  0.51199  1.0000
  C   C467      1.0  0.32971  0.97920  0.58464  1.0000
  C   C468      1.0  0.39017  0.97847  0.53400  1.0000
  H   H373      1.0  0.33037  0.83933  0.51920  1.0000
  H   H374      1.0  0.29865  0.96764  0.96728  1.0000
  H   H375      1.0  0.40278  0.78933  0.60039  1.0000
  H   H376      1.0  0.48307  0.75579  0.97274  1.0000
  C   C469      1.0  0.46268  0.73458  0.60018  1.0000
  H   H377      1.0  0.27374  0.79999  0.52889  1.0000
  H   H378      1.0  0.30645  0.97939  0.60443  1.0000
  H   H379      1.0  0.41440  0.97861  0.51550  1.0000
  H   H380      1.0  0.07462  0.75712  0.96289  1.0000
  C   C470      1.0  0.26271  0.79402  0.50124  1.0000
  C   C471      1.0  0.27019  0.91618  0.97795  1.0000
  H   H381      1.0  0.43126  0.89574  0.55532  1.0000
  H   H382      1.0  0.42990  0.77174  0.90758  1.0000
  C   C472      1.0  0.36432  0.81107  0.55943  1.0000
  C   C473      1.0  0.41673  0.85382  0.95207  1.0000
  H   H383      1.0  0.34569  0.78733  0.56053  1.0000
  H   H384      1.0  0.44092  0.83882  0.89857  1.0000
  C   C474      1.0  0.30159  0.93948  0.97708  1.0000
  C   C475      1.0  0.42761  0.82887  0.92412  1.0000
  H   H385      1.0  0.44382  0.71416  0.61222  1.0000
  H   H386      1.0  0.44547  0.84379  0.59772  1.0000
  H   H387      1.0  0.10460  0.00306  0.57648  1.0000
  C   C476      1.0  0.33480  0.94911  0.56058  1.0000
  C   C477      1.0  0.40022  0.84106  0.98559  1.0000
  H   H388      1.0  0.36053  0.94511  0.98770  1.0000
  S   S64       1.0  0.31558  0.73800  0.49987  1.0000
  H   H389      1.0  0.45945  0.71136  0.54478  1.0000
  H   H390      1.0  0.24960  0.86170  0.99113  1.0000
  C   C478      1.0  0.27390  0.87993  0.99068  1.0000
  H   H391      1.0  0.22078  0.83746  0.50378  1.0000
  C   C479      1.0  0.39327  0.80314  0.99005  1.0000
  C   C480      1.0  0.50220  0.78860  0.60706  1.0000
  C   C481      1.0  0.08482  0.73705  0.98302  1.0000
  C   C482      1.0  0.51087  0.78740  0.56866  1.0000
  H   H392      1.0  0.60993  0.09891  0.01336  1.0000
  C   C483      1.0  0.99219  0.26952  0.00073  1.0000
  C   C484      1.0  0.96542  0.31958  0.45283  1.0000
  C   C485      1.0  0.72979  0.27716  0.17793  1.0000
  H   H393      1.0  0.71874  0.18422  0.17104  1.0000
  C   C486      1.0  0.77553  0.20765  0.01868  1.0000
  C   C487      1.0  0.55217  0.18264  0.02878  1.0000
  C   C488      1.0  0.00299  0.23834  0.02128  1.0000
  H   H394      1.0  0.75510  0.31201  0.13637  1.0000
  C   C489      1.0  0.99622  0.33522  0.12207  1.0000
  C   C490      1.0  0.87896  0.21564  0.10084  1.0000
  H   H395      1.0  0.91973  0.23306  0.47697  1.0000
  H   H396      1.0  0.54626  0.04254  0.12475  1.0000
  C   C491      1.0  0.54003  0.07329  0.07316  1.0000
  H   H397      1.0  0.72545  0.30372  0.02324  1.0000
  H   H398      1.0  0.84251  0.28791  0.02941  1.0000
  H   H399      1.0  0.82219  0.21213  0.12099  1.0000
  H   H400      1.0  0.80594  0.20757  0.01957  1.0000
  C   C492      1.0  0.75540  0.25473  0.11871  1.0000
  C   C493      1.0  0.94019  0.34053  0.47429  1.0000
  C   C494      1.0  0.85239  0.26804  0.04982  1.0000
  C   C495      1.0  0.84087  0.22550  0.10117  1.0000
  C   C496      1.0  0.71940  0.24126  0.18787  1.0000
  H   H401      1.0  0.75028  0.19576  0.11022  1.0000
  S   S65       1.0  0.98098  0.19435  0.01481  1.0000
  C   C497      1.0  0.77296  0.31103  0.06081  1.0000
  P   P17       1.0  0.77764  0.26294  0.07364  1.0000
  H   H402      1.0  0.57495  0.02207  0.46434  1.0000
  H   H403      1.0  0.53799  0.15343  0.47593  1.0000
  C   C498      1.0  0.57549  0.11093  0.49577  1.0000
  C   C499      1.0  0.66820  0.11474  0.49340  1.0000
  H   H404      1.0  0.81902  0.32875  0.09635  1.0000
  H   H405      1.0  0.95534  0.30403  0.42887  1.0000
  H   H406      1.0  0.53778  0.17749  0.05509  1.0000
  H   H407      1.0  0.66656  0.20748  0.01178  1.0000
  H   H408      1.0  0.72371  0.29983  0.19683  1.0000
  H   H409      1.0  0.57023  0.23680  0.04622  1.0000
  C   C500      1.0  0.56792  0.05097  0.46670  1.0000
  C   C501      1.0  0.71509  0.23192  0.03823  1.0000
  S   S66       1.0  0.53145  0.31164  0.03239  1.0000
  H   H410      1.0  0.70324  0.15830  0.47125  1.0000
  C   C502      1.0  0.90364  0.23173  0.07487  1.0000
  H   H411      1.0  0.93296  0.22344  0.07405  1.0000
  C   C503      1.0  0.74480  0.21872  0.12894  1.0000
  C   C504      1.0  0.79704  0.33728  0.07716  1.0000
  H   H412      1.0  0.56198  0.05792  0.05907  1.0000
  H   H413      1.0  0.70536  0.23609  0.21449  1.0000
  H   H414      1.0  0.72624  0.05351  0.01060  1.0000
  C   C505      1.0  0.72693  0.21205  0.16339  1.0000
  H   H415      1.0  0.96632  0.29199  0.09332  1.0000
  C   C506      1.0  0.75460  0.23265  0.04040  1.0000
  C   C507      1.0  0.82726  0.25179  0.07557  1.0000
  P   P18       1.0  0.52946  0.11202  0.00554  1.0000
  C   C508      1.0  0.74771  0.28394  0.14350  1.0000
  C   C509      1.0  0.69763  0.14035  0.49499  1.0000
  H   H416      1.0  0.88930  0.19496  0.12022  1.0000
  H   H417      1.0  0.69826  0.25044  0.05524  1.0000
  C   C510      1.0  0.69696  0.20730  0.01399  1.0000
  C   C511      1.0  0.89035  0.25788  0.04934  1.0000
  H   H418      1.0  0.90928  0.26955  0.02848  1.0000
  C   C512      1.0  0.67442  0.01886  0.47295  1.0000
  C   C513      1.0  0.53931  0.06516  0.44395  1.0000
  H   H419      1.0  0.98824  0.23405  0.48630  1.0000
  C   C514      1.0  0.57072  0.21639  0.02393  1.0000
  C   C515      1.0  0.74441  0.32303  0.03649  1.0000
  H   H420      1.0  0.93073  0.33428  0.05287  1.0000
  C   C516      1.0  0.52035  0.10146  0.05450  1.0000
  C   C517      1.0  0.52884  0.10215  0.44700  1.0000
  C   C518      1.0  0.53109  0.06430  0.11046  1.0000
  C   C519      1.0  0.64419  0.01583  0.49836  1.0000
  H   H421      1.0  0.68750  0.04525  0.46724  1.0000
  H   H422      1.0  0.65138  0.11310  0.46810  1.0000
  C   C520      1.0  0.54674  0.12496  0.47309  1.0000
  C   C521      1.0  0.58671  0.07394  0.49234  1.0000
  C   C522      1.0  0.01048  0.30368  0.00640  1.0000
  C   C523      1.0  0.00377  0.31946  0.46164  1.0000
  H   H423      1.0  0.52465  0.04731  0.42448  1.0000
  C   C524      1.0  0.97010  0.32150  0.09630  1.0000
  H   H424      1.0  0.91090  0.34145  0.46604  1.0000
  C   C525      1.0  0.55211  0.15643  0.99972  1.0000
  H   H425      1.0  0.99902  0.28392  0.73435  1.0000
  Fe  Fe33      1.0  0.82471  0.10169  0.56348  1.0000
  S   S67       1.0  0.85586  0.14752  0.53414  1.0000
  S   S68       1.0  0.78484  0.06381  0.53337  1.0000
  Fe  Fe34      1.0  0.86261  0.11602  0.63809  1.0000
  S   S69       1.0  0.89743  0.16215  0.61434  1.0000
  S   S70       1.0  0.86039  0.09515  0.69786  1.0000
  Fe  Fe35      1.0  0.84323  0.18060  0.58656  1.0000
  S   S71       1.0  0.82527  0.24112  0.59420  1.0000
  Fe  Fe36      1.0  0.90649  0.12434  0.56452  1.0000
  S   S72       1.0  0.96279  0.11454  0.53435  1.0000
  S   S73       1.0  0.80839  0.13610  0.61327  1.0000
  S   S74       1.0  0.87544  0.07715  0.59075  1.0000
  Fe  Fe37      1.0  0.63078  0.31334  0.93104  1.0000
  H   H426      1.0  0.88732  0.24782  0.85480  1.0000
  S   S75       1.0  0.56804  0.31543  0.92586  1.0000
  Fe  Fe38      1.0  0.86089  0.21215  0.94414  1.0000
  C   C526      1.0  0.61641  0.01155  0.62642  1.0000
  Fe  Fe39      1.0  0.91413  0.17776  0.88771  1.0000
  S   S76       1.0  0.93268  0.13487  0.92925  1.0000
  S   S77       1.0  0.93803  0.18563  0.82917  1.0000
  Fe  Fe40      1.0  0.87032  0.12878  0.94251  1.0000
  H   H427      1.0  0.73228  0.11926  0.58126  1.0000
  Fe  Fe41      1.0  0.93438  0.18135  0.97190  1.0000
  S   S78       1.0  0.85248  0.17017  0.89865  1.0000
  S   S79       1.0  0.92070  0.22404  0.92892  1.0000
  C   C527      1.0  0.76437  0.03181  0.56431  1.0000
  H   H428      1.0  0.54194  0.07011  0.63228  1.0000
  C   C528      1.0  0.74412  0.04265  0.98858  1.0000
  C   C529      1.0  0.70625  0.26385  0.91892  1.0000
  C   C530      1.0  0.72883  0.23334  0.91087  1.0000
  C   C531      1.0  0.76684  0.23340  0.92118  1.0000
  C   C532      1.0  0.78198  0.26391  0.93976  1.0000
  C   C533      1.0  0.66498  0.27689  0.65589  1.0000
  H   H429      1.0  0.78396  0.20941  0.91592  1.0000
  C   C534      1.0  0.98253  0.06967  0.52779  1.0000
  H   H430      1.0  0.70447  0.31875  0.94201  1.0000
  H   H431      1.0  0.90081  0.24836  0.78718  1.0000
  C   C535      1.0  0.88180  0.12128  0.73370  1.0000
  C   C536      1.0  0.87081  0.11524  0.77109  1.0000
  C   C537      1.0  0.88761  0.13510  0.80052  1.0000
  C   C538      1.0  0.91579  0.16100  0.79270  1.0000
  C   C539      1.0  0.92669  0.16723  0.75523  1.0000
  C   C540      1.0  0.90968  0.14748  0.72574  1.0000
  H   H432      1.0  0.84934  0.09497  0.77727  1.0000
  H   H433      1.0  0.87927  0.12988  0.82929  1.0000
  H   H434      1.0  0.94855  0.18715  0.74910  1.0000
  H   H435      1.0  0.91851  0.15208  0.69702  1.0000
  H   H436      1.0  0.59977  0.22076  0.73120  1.0000
  S   S80       1.0  0.65841  0.26260  0.90841  1.0000
  H   H437      1.0  0.51759  0.05076  0.95143  1.0000
  C   C541      1.0  0.71173  0.29854  0.56966  1.0000
  C   C542      1.0  0.73802  0.31446  0.59389  1.0000
  C   C543      1.0  0.77232  0.29638  0.60120  1.0000
  C   C544      1.0  0.78040  0.26156  0.58570  1.0000
  C   C545      1.0  0.75367  0.24522  0.56224  1.0000
  C   C546      1.0  0.71978  0.26380  0.55389  1.0000
  C   C547      1.0  0.71806  0.18254  0.99249  1.0000
  H   H438      1.0  0.79286  0.30988  0.61847  1.0000
  H   H439      1.0  0.75972  0.21890  0.54951  1.0000
  H   H440      1.0  0.69975  0.25131  0.53486  1.0000
  C   C548      1.0  0.77177  0.03348  0.60284  1.0000
  H   H441      1.0  0.95489  0.20726  0.65368  1.0000
  H   H442      1.0  0.70407  0.16368  0.97349  1.0000
  H   H443      1.0  0.79050  0.05437  0.61376  1.0000
  H   H444      1.0  0.00186  0.32743  0.99026  1.0000
  H   H445      1.0  0.66226  0.30072  0.63766  1.0000
  C   C549      1.0  0.57193  0.02680  0.94234  1.0000
  C   C550      1.0  0.75825  0.06847  0.73184  1.0000
  C   C551      1.0  0.79486  0.04978  0.82625  1.0000
  C   C552      1.0  0.83212  0.04857  0.83869  1.0000
  C   C553      1.0  0.59195  0.22832  0.75955  1.0000
  C   C554      1.0  0.75039  0.17277  0.82128  1.0000
  H   H446      1.0  0.65695  0.19273  0.82319  1.0000
  C   C555      1.0  0.59900  0.07894  0.99351  1.0000
  C   C556      1.0  0.77997  0.02061  0.80494  1.0000
  H   H447      1.0  0.84338  0.07095  0.85550  1.0000
  C   C557      1.0  0.75587  0.08590  0.69681  1.0000
  H   H448      1.0  0.68091  0.07395  0.57897  1.0000
  H   H449      1.0  0.77061  0.15428  0.83412  1.0000
  C   C558      1.0  0.55486  0.22191  0.77132  1.0000
  C   C559      1.0  0.70628  0.33932  0.83450  1.0000
  H   H450      1.0  0.66706  0.07363  0.78464  1.0000
  H   H451      1.0  0.82131  0.29560  0.52594  1.0000
  H   H452      1.0  0.51457  0.22751  0.81644  1.0000
  C   C560      1.0  0.62789  0.01926  0.58962  1.0000
  S   S81       1.0  0.82836  0.26370  0.95570  1.0000
  C   C561      1.0  0.71044  0.03957  0.86274  1.0000
  C   C562      1.0  0.68447  0.09289  0.55572  1.0000
  C   C563      1.0  0.70323  0.04533  0.82433  1.0000
  C   C564      1.0  0.96015  0.25250  0.57620  1.0000
  C   C565      1.0  0.79146  0.01453  0.93307  1.0000
  C   C566      1.0  0.54707  0.05197  0.95891  1.0000
  C   C567      1.0  0.97523  0.27181  0.71984  1.0000
  C   C568      1.0  0.98111  0.24447  0.69278  1.0000
  C   C569      1.0  0.95037  0.22866  0.67439  1.0000
  C   C570      1.0  0.91373  0.23997  0.68306  1.0000
  C   C571      1.0  0.90756  0.26641  0.71120  1.0000
  C   C572      1.0  0.93860  0.28295  0.72885  1.0000
  P   P19       1.0  0.86051  0.28129  0.72281  1.0000
  C   C573      1.0  0.82612  0.24812  0.70737  1.0000
  C   C574      1.0  0.85258  0.28238  0.77283  1.0000
  C   C575      1.0  0.81967  0.29878  0.78703  1.0000
  C   C576      1.0  0.81200  0.29791  0.82561  1.0000
  C   C577      1.0  0.83671  0.28008  0.85001  1.0000
  C   C578      1.0  0.86875  0.26259  0.83595  1.0000
  C   C579      1.0  0.87655  0.26339  0.79745  1.0000
  C   C580      1.0  0.79350  0.25928  0.68844  1.0000
  C   C581      1.0  0.76684  0.23314  0.67730  1.0000
  C   C582      1.0  0.77187  0.19593  0.68613  1.0000
  C   C583      1.0  0.80356  0.18489  0.70639  1.0000
  C   C584      1.0  0.83052  0.21089  0.71708  1.0000
  H   H453      1.0  0.72257  0.09428  0.64705  1.0000
  C   C585      1.0  0.56896  0.24890  0.83185  1.0000
  C   C586      1.0  0.71366  0.11872  0.55727  1.0000
  C   C587      1.0  0.57087  0.16465  0.96581  1.0000
  H   H454      1.0  0.66456  0.23843  0.60989  1.0000
  H   H455      1.0  0.78858  0.28797  0.68195  1.0000
  H   H456      1.0  0.89033  0.22767  0.66810  1.0000
  C   C588      1.0  0.85291  0.32779  0.66111  1.0000
  H   H457      1.0  0.56013  0.25731  0.85976  1.0000
  C   C589      1.0  0.56052  0.07837  0.98452  1.0000
  H   H458      1.0  0.83079  0.27931  0.87979  1.0000
  H   H459      1.0  0.94040  0.32152  0.65089  1.0000
  H   H460      1.0  0.54980  0.31021  0.76827  1.0000
  H   H461      1.0  0.74272  0.24183  0.66108  1.0000
  H   H462      1.0  0.75137  0.17566  0.67711  1.0000
  H   H463      1.0  0.80751  0.15617  0.71370  1.0000
  H   H464      1.0  0.85473  0.20200  0.73312  1.0000
  C   C590      1.0  0.72384  0.08152  0.67457  1.0000
  S   S82       1.0  0.63289  0.32878  0.99214  1.0000
  C   C591      1.0  0.75978  0.29504  0.94630  1.0000
  C   C592      1.0  0.72179  0.29498  0.93606  1.0000
  H   H465      1.0  0.97099  0.25706  0.60420  1.0000
  C   C593      1.0  0.61018  0.02766  0.95142  1.0000
  C   C594      1.0  0.67354  0.06875  0.81388  1.0000
  C   C595      1.0  0.66614  0.24165  0.64018  1.0000
  H   H466      1.0  0.66520  0.30910  0.70590  1.0000
  C   C596      1.0  0.65368  0.33037  0.77695  1.0000
  H   H467      1.0  0.57124  0.14492  0.94298  1.0000
  H   H468      1.0  0.95187  0.04348  0.57282  1.0000
  C   C597      1.0  0.97005  0.23953  0.51009  1.0000
  H   H469      1.0  0.90242  0.25619  0.59415  1.0000
  S   S83       1.0  0.84396  0.07077  0.93710  1.0000
  H   H470      1.0  0.98532  0.17762  0.57819  1.0000
  C   C598      1.0  0.68621  0.19466  0.81481  1.0000
  C   C599      1.0  0.66652  0.28146  0.69491  1.0000
  C   C600      1.0  0.72853  0.04613  0.74473  1.0000
  H   H471      1.0  0.71666  0.20926  0.89785  1.0000
  H   H472      1.0  0.96977  0.26741  0.98039  1.0000
  H   H473      1.0  0.60315  0.20508  0.93468  1.0000
  C   C601      1.0  0.65904  0.08019  0.87952  1.0000
  C   C602      1.0  0.97286  0.03990  0.55106  1.0000
  H   H474      1.0  0.67360  0.02379  0.73093  1.0000
  C   C603      1.0  0.58879  0.22450  0.98996  1.0000
  H   H475      1.0  0.93442  0.30398  0.75009  1.0000
  S   S84       1.0  0.66959  0.32172  0.55675  1.0000
  H   H476      1.0  0.78676  0.31057  0.83675  1.0000
  H   H477      1.0  0.63137  0.32690  0.75655  1.0000
  C   C604      1.0  0.80076  0.04854  0.94994  1.0000
  C   C605      1.0  0.66939  0.21079  0.66350  1.0000
  P   P20       1.0  0.73167  0.02212  0.78924  1.0000
  H   H478      1.0  0.88421  0.32324  0.92396  1.0000
  S   S85       1.0  0.87401  0.17095  0.98941  1.0000
  H   H479      1.0  0.57628  0.02348  0.67022  1.0000
  H   H480      1.0  0.73285  0.02132  0.87158  1.0000
  C   C606      1.0  0.71218  0.17004  0.83045  1.0000
  H   H481      1.0  0.79239  0.20221  0.78945  1.0000
  H   H482      1.0  0.69432  0.05230  0.91967  1.0000
  H   H483      1.0  0.77377  0.16356  0.97817  1.0000
  C   C607      1.0  0.62366  0.05362  0.97708  1.0000
  P   P21       1.0  0.62477  0.05630  0.52085  1.0000
  C   C608      1.0  0.60853  0.04535  0.56782  1.0000
  C   C609      1.0  0.85504  0.01868  0.82940  1.0000
  H   H484      1.0  0.79978  0.31170  0.76817  1.0000
  C   C610      1.0  0.66881  0.25058  0.71869  1.0000
  C   C611      1.0  0.93109  0.23894  0.50458  1.0000
  H   H485      1.0  0.78368  0.07196  0.74819  1.0000
  C   C612      1.0  0.75730  0.18251  0.99509  1.0000
  C   C613      1.0  0.69420  0.05930  0.68712  1.0000
  H   H486      1.0  0.71735  0.28175  0.82863  1.0000
  C   C614      1.0  0.65152  0.08601  0.84141  1.0000
  C   C615      1.0  0.58548  0.02988  0.64187  1.0000
  H   H487      1.0  0.77175  0.31892  0.96002  1.0000
  H   H488      1.0  0.53485  0.20950  0.75216  1.0000
  C   C616      1.0  0.61791  0.24504  0.78398  1.0000
  C   C617      1.0  0.67089  0.21521  0.70257  1.0000
  H   H489      1.0  0.62846  0.10377  0.83319  1.0000
  H   H490      1.0  0.74433  0.16073  0.52738  1.0000
  H   H491      1.0  0.85544  0.30305  0.64416  1.0000
  H   H492      1.0  0.65325  0.05376  0.98451  1.0000
  C   C618      1.0  0.69833  0.22180  0.78926  1.0000
  C   C619      1.0  0.98485  0.24559  0.54619  1.0000
  C   C620      1.0  0.82755  0.32487  0.52604  1.0000
  H   H493      1.0  0.00942  0.23527  0.68629  1.0000
  C   C621      1.0  0.60593  0.25553  0.82007  1.0000
  H   H494      1.0  0.67042  0.18348  0.65121  1.0000
  C   C622      1.0  0.76266  0.19983  0.79605  1.0000
  C   C623      1.0  0.01041  0.06434  0.50006  1.0000
  C   C624      1.0  0.69653  0.04157  0.72198  1.0000
  C   C625      1.0  0.92128  0.25187  0.57059  1.0000
  H   H495      1.0  0.77780  0.07347  0.83342  1.0000
  H   H496      1.0  0.62504  0.26937  0.83899  1.0000
  H   H497      1.0  0.56184  0.08381  0.56745  1.0000
  C   C626      1.0  0.70190  0.30492  0.81729  1.0000
  C   C627      1.0  0.67594  0.30026  0.78783  1.0000
  C   C628      1.0  0.54339  0.23212  0.80748  1.0000
  H   H498      1.0  0.74667  0.24492  0.76036  1.0000
  H   H499      1.0  0.67263  0.19093  0.72026  1.0000
  H   H500      1.0  0.98870  0.13216  0.62912  1.0000
  H   H501      1.0  0.70290  0.14947  0.85056  1.0000
  H   H502      1.0  0.77943  0.10193  0.68643  1.0000
  C   C629      1.0  0.68854  0.05704  0.89014  1.0000
  C   C630      1.0  0.57766  0.06390  0.58364  1.0000
  H   H503      1.0  0.88703  0.31692  0.52996  1.0000
  H   H504      1.0  0.78324  0.08861  0.99090  1.0000
  C   C631      1.0  0.73672  0.22403  0.77980  1.0000
  P   P22       1.0  0.66580  0.25478  0.76940  1.0000
  H   H505      1.0  0.64188  0.09338  0.90086  1.0000
  C   C632      1.0  0.85432  0.32559  0.70048  1.0000
  C   C633      1.0  0.86482  0.33708  0.52842  1.0000
  C   C634      1.0  0.90673  0.24454  0.53491  1.0000
  H   H506      1.0  0.66988  0.05498  0.66935  1.0000
  C   C635      1.0  0.77646  0.06274  0.97740  1.0000
  C   C636      1.0  0.56624  0.05618  0.62055  1.0000
  C   C637      1.0  0.01095  0.15253  0.62610  1.0000
  C   C638      1.0  0.58900  0.19861  0.96096  1.0000
  H   H507      1.0  0.92018  0.32850  0.58513  1.0000
  H   H508      1.0  0.60242  0.25098  0.98602  1.0000
  H   H509      1.0  0.87653  0.24305  0.53076  1.0000
  C   C639      1.0  0.72052  0.14211  0.52680  1.0000
  H   H510      1.0  0.88397  0.01811  0.83901  1.0000
  H   H511      1.0  0.90346  0.01557  0.66518  1.0000
  H   H512      1.0  0.58895  0.12897  0.51594  1.0000
  H   H513      1.0  0.72509  0.34224  0.85828  1.0000
  Fe  Fe42      1.0  0.56994  0.33423  0.98592  1.0000
  C   C640      1.0  0.55414  0.33921  0.77398  1.0000
  H   H514      1.0  0.54731  0.33310  0.83406  1.0000
  H   H515      1.0  0.00550  0.31173  0.58153  1.0000
  C   C641      1.0  0.00915  0.17851  0.59711  1.0000
  H   H516      1.0  0.83941  0.34043  0.97443  1.0000
  C   C642      1.0  0.66140  0.09078  0.52379  1.0000
  C   C643      1.0  0.89298  0.34202  0.94598  1.0000
  H   H517      1.0  0.76924  0.34083  0.52233  1.0000
  H   H518      1.0  0.73255  0.34136  0.60584  1.0000
  H   H519      1.0  0.84025  0.01052  0.63703  1.0000
  C   C644      1.0  0.89029  0.43588  0.10773  1.0000
  C   C645      1.0  0.89263  0.43622  0.06827  1.0000
  H   H520      1.0  0.96886  0.54220  0.00551  1.0000
  S   S86       1.0  0.85098  0.61330  0.02319  1.0000
  C   C646      1.0  0.62954  0.63089  0.12663  1.0000
  H   H521      1.0  0.60251  0.67075  0.48817  1.0000
  H   H522      1.0  0.61275  0.60240  0.47989  1.0000
  C   C647      1.0  0.76427  0.38645  0.04492  1.0000
  C   C648      1.0  0.87929  0.37456  0.00382  1.0000
  H   H523      1.0  0.60239  0.59865  0.06187  1.0000
  H   H524      1.0  0.76074  0.41555  0.03887  1.0000
  H   H525      1.0  0.58789  0.53966  0.47044  1.0000
  H   H526      1.0  0.91166  0.42255  0.12451  1.0000
  H   H527      1.0  0.76143  0.53686  0.00959  1.0000
  C   C649      1.0  0.52747  0.65508  0.04741  1.0000
  C   C650      1.0  0.52932  0.64595  0.49613  1.0000
  H   H528      1.0  0.98767  0.42683  0.10408  1.0000
  C   C651      1.0  0.93533  0.50922  0.48769  1.0000
  C   C652      1.0  0.95638  0.38394  0.07543  1.0000
  P   P23       1.0  0.93223  0.41543  0.04420  1.0000
  H   H529      1.0  0.70099  0.50387  0.02063  1.0000
  C   C653      1.0  0.96492  0.45080  0.02877  1.0000
  C   C654      1.0  0.98224  0.39752  0.10188  1.0000
  C   C655      1.0  0.95015  0.34571  0.07313  1.0000
  H   H530      1.0  0.96168  0.42202  0.46612  1.0000
  C   C656      1.0  0.86018  0.45312  0.12607  1.0000
  C   C657      1.0  0.83455  0.47158  0.06601  1.0000
  C   C658      1.0  0.69629  0.62900  0.14056  1.0000
  C   C659      1.0  0.95218  0.48006  0.46839  1.0000
  C   C660      1.0  0.69825  0.66725  0.48836  1.0000
  H   H531      1.0  0.80925  0.48477  0.11939  1.0000
  H   H532      1.0  0.85863  0.45293  0.15652  1.0000
  C   C661      1.0  0.00205  0.37321  0.12507  1.0000
  H   H533      1.0  0.96893  0.48556  0.44349  1.0000
  C   C662      1.0  0.51234  0.59202  0.03090  1.0000
  C   C663      1.0  0.70264  0.65741  0.11472  1.0000
  C   C664      1.0  0.52049  0.63551  0.45942  1.0000
  H   H534      1.0  0.92349  0.49472  0.02494  1.0000
  H   H535      1.0  0.81111  0.39484  0.08219  1.0000
  S   S87       1.0  0.95261  0.65576  0.02284  1.0000
  H   H536      1.0  0.64970  0.54896  0.05340  1.0000
  C   C665      1.0  0.79261  0.37479  0.06930  1.0000
  C   C666      1.0  0.97848  0.51427  0.01074  1.0000
  H   H537      1.0  0.81331  0.48587  0.04978  1.0000
  C   C667      1.0  0.95274  0.48708  0.02190  1.0000
  H   H538      1.0  0.74610  0.61748  0.03374  1.0000
  H   H539      1.0  0.55693  0.55252  0.03840  1.0000
  C   C668      1.0  0.91602  0.38900  0.00434  1.0000
  H   H540      1.0  0.85970  0.38030  0.02633  1.0000
  H   H541      1.0  0.73094  0.66790  0.11005  1.0000
  C   C669      1.0  0.72001  0.60553  0.02380  1.0000
  C   C670      1.0  0.60270  0.54648  0.49613  1.0000
  C   C671      1.0  0.83237  0.47105  0.10522  1.0000
  C   C672      1.0  0.72192  0.49193  0.00236  1.0000
  C   C673      1.0  0.69872  0.58340  0.04790  1.0000
  C   C674      1.0  0.66562  0.56712  0.03502  1.0000
  C   C675      1.0  0.57447  0.60736  0.05422  1.0000
  C   C676      1.0  0.86446  0.45421  0.04756  1.0000
  H   H542      1.0  0.70831  0.57832  0.07632  1.0000
  C   C677      1.0  0.54879  0.58123  0.04076  1.0000
  C   C678      1.0  0.94817  0.44395  0.48166  1.0000
  H   H543      1.0  0.52182  0.60673  0.45133  1.0000
  H   H544      1.0  0.86583  0.45529  0.01708  1.0000
  H   H545      1.0  0.71969  0.61745  0.15611  1.0000
  H   H546      1.0  0.60127  0.62093  0.13221  1.0000
  C   C679      1.0  0.00318  0.44223  0.02371  1.0000
  H   H547      1.0  0.65358  0.66333  0.01756  1.0000
  H   H548      1.0  0.65470  0.59427  0.16716  1.0000
  C   C680      1.0  0.56376  0.64434  0.05826  1.0000
  C   C681      1.0  0.63580  0.65881  0.09993  1.0000
  C   C682      1.0  0.74023  0.36057  0.02851  1.0000
  H   H549      1.0  0.71812  0.36965  0.00971  1.0000
  C   C683      1.0  0.65973  0.61586  0.14664  1.0000
  H   H550      1.0  0.93907  0.53734  0.47794  1.0000
  C   C684      1.0  0.63124  0.67514  0.47924  1.0000
  H   H551      1.0  0.00243  0.58692  0.07739  1.0000
  H   H552      1.0  0.53205  0.66573  0.12603  1.0000
  C   C685      1.0  0.67250  0.67266  0.09490  1.0000
  H   H553      1.0  0.78957  0.55329  0.63502  1.0000
  S   S88       1.0  0.64910  0.38430  0.64702  1.0000
  Fe  Fe43      1.0  0.57329  0.42612  0.57874  1.0000
  S   S89       1.0  0.57702  0.44219  0.63951  1.0000
  H   H554      1.0  0.52482  0.57189  0.67581  1.0000
  Fe  Fe44      1.0  0.63909  0.44272  0.62860  1.0000
  S   S90       1.0  0.66831  0.49278  0.65094  1.0000
  Fe  Fe45      1.0  0.58624  0.38216  0.65189  1.0000
  C   C686      1.0  0.59181  0.65152  0.69539  1.0000
  S   S91       1.0  0.63563  0.42924  0.56705  1.0000
  S   S92       1.0  0.57700  0.36522  0.59196  1.0000
  Fe  Fe46      1.0  0.57848  0.37460  0.91045  1.0000
  S   S93       1.0  0.57503  0.39442  0.97014  1.0000
  S   S94       1.0  0.55080  0.40718  0.86422  1.0000
  H   H555      1.0  0.88236  0.48434  0.65745  1.0000
  C   C687      1.0  0.84716  0.39213  0.70385  1.0000
  C   C688      1.0  0.00895  0.50210  0.56443  1.0000
  S   S95       1.0  0.64144  0.37087  0.91003  1.0000
  C   C689      1.0  0.52443  0.49019  0.72345  1.0000
  H   H556      1.0  0.84068  0.66564  0.77719  1.0000
  C   C690      1.0  0.75385  0.63221  0.84002  1.0000
  C   C691      1.0  0.51351  0.59708  0.85046  1.0000
  C   C692      1.0  0.55688  0.66157  0.60608  1.0000
  H   H557      1.0  0.56463  0.51392  0.87327  1.0000
  H   H558      1.0  0.72383  0.36519  0.72391  1.0000
  C   C693      1.0  0.91115  0.46640  0.53411  1.0000
  C   C694      1.0  0.55720  0.38970  0.81856  1.0000
  C   C695      1.0  0.56444  0.41412  0.78880  1.0000
  C   C696      1.0  0.56677  0.40107  0.75163  1.0000
  C   C697      1.0  0.56084  0.36369  0.74412  1.0000
  C   C698      1.0  0.96345  0.41167  0.63781  1.0000
  C   C699      1.0  0.56564  0.66066  0.94948  1.0000
  H   H559      1.0  0.56837  0.44312  0.79467  1.0000
  H   H560      1.0  0.57230  0.41987  0.72867  1.0000
  C   C700      1.0  0.85236  0.35815  0.72174  1.0000
  C   C701      1.0  0.71360  0.49638  0.63239  1.0000
  C   C702      1.0  0.73528  0.52759  0.64037  1.0000
  C   C703      1.0  0.76629  0.46956  0.59899  1.0000
  C   C704      1.0  0.72904  0.46730  0.61177  1.0000
  H   H561      1.0  0.77829  0.44712  0.58296  1.0000
  H   H562      1.0  0.71247  0.44293  0.60593  1.0000
  Fe  Fe47      1.0  0.86568  0.55498  0.60485  1.0000
  S   S96       1.0  0.88099  0.59768  0.56158  1.0000
  S   S97       1.0  0.83425  0.50313  0.59044  1.0000
  Fe  Fe48      1.0  0.91551  0.58870  0.66474  1.0000
  S   S98       1.0  0.93645  0.63269  0.62531  1.0000
  S   S99       1.0  0.93377  0.57925  0.72476  1.0000
  C   C705      1.0  0.60610  0.51906  0.75661  1.0000
  Fe  Fe49      1.0  0.94050  0.58709  0.58171  1.0000
  C   C706      1.0  0.73320  0.65986  0.62263  1.0000
  S   S100      1.0  0.85482  0.59602  0.65065  1.0000
  S   S101      1.0  0.92462  0.54343  0.62286  1.0000
  C   C707      1.0  0.63714  0.60834  0.67011  1.0000
  Fe  Fe50      1.0  0.85374  0.64107  0.91768  1.0000
  S   S102      1.0  0.89353  0.59957  0.94255  1.0000
  S   S103      1.0  0.84705  0.66015  0.85732  1.0000
  Fe  Fe51      1.0  0.87489  0.63887  0.60911  1.0000
  S   S104      1.0  0.98795  0.57269  0.53995  1.0000
  H   H563      1.0  0.90332  0.60180  0.85720  1.0000
  S   S105      1.0  0.80228  0.61656  0.94463  1.0000
  Fe  Fe52      1.0  0.64007  0.36992  0.58627  1.0000
  C   C708      1.0  0.91488  0.50234  0.52052  1.0000
  H   H564      1.0  0.79948  0.44632  0.94197  1.0000
  C   C709      1.0  0.93203  0.35196  0.59950  1.0000
  C   C710      1.0  0.90787  0.60049  0.76119  1.0000
  C   C711      1.0  0.91559  0.59114  0.79869  1.0000
  C   C712      1.0  0.89659  0.60873  0.82842  1.0000
  C   C713      1.0  0.86983  0.63592  0.82078  1.0000
  C   C714      1.0  0.86143  0.64469  0.78326  1.0000
  C   C715      1.0  0.88040  0.62707  0.75352  1.0000
  C   C716      1.0  0.62033  0.57988  0.69081  1.0000
  C   C717      1.0  0.92965  0.35608  0.94635  1.0000
  H   H565      1.0  0.84536  0.36322  0.61291  1.0000
  H   H566      1.0  0.87446  0.63466  0.72473  1.0000
  H   H567      1.0  0.60364  0.48704  0.70530  1.0000
  H   H568      1.0  0.95655  0.44204  0.58687  1.0000
  C   C718      1.0  0.77270  0.52952  0.62816  1.0000
  C   C719      1.0  0.78802  0.50078  0.60700  1.0000
  H   H569      1.0  0.72332  0.55005  0.65632  1.0000
  H   H570      1.0  0.77618  0.63942  0.82044  1.0000
  C   C720      1.0  0.51906  0.52301  0.56535  1.0000
  C   C721      1.0  0.55293  0.35207  0.81121  1.0000
  C   C722      1.0  0.74551  0.65550  0.87012  1.0000
  H   H571      1.0  0.85507  0.35754  0.75203  1.0000
  P   P24       1.0  0.65146  0.63741  0.54438  1.0000
  C   C723      1.0  0.73671  0.39128  0.73143  1.0000
  H   H572      1.0  0.96787  0.37474  0.68509  1.0000
  C   C724      1.0  0.72157  0.60940  0.56442  1.0000
  H   H573      1.0  0.77708  0.58933  0.57740  1.0000
  C   C725      1.0  0.63981  0.56375  0.56309  1.0000
  C   C726      1.0  0.62553  0.52834  0.55742  1.0000
  C   C727      1.0  0.92746  0.43676  0.51470  1.0000
  H   H574      1.0  0.68746  0.39569  0.83663  1.0000
  H   H575      1.0  0.74086  0.58121  0.81246  1.0000
  C   C728      1.0  0.84741  0.36181  0.64331  1.0000
  H   H576      1.0  0.89568  0.46182  0.55998  1.0000
  C   C729      1.0  0.75516  0.60885  0.58476  1.0000
  H   H577      1.0  0.65360  0.56983  0.58948  1.0000
  H   H578      1.0  0.62847  0.50775  0.57926  1.0000
  C   C730      1.0  0.53488  0.52648  0.71431  1.0000
  S   S106      1.0  0.52923  0.45092  0.53893  1.0000
  H   H579      1.0  0.99207  0.50730  0.58917  1.0000
  C   C731      1.0  0.80613  0.38803  0.52451  1.0000
  C   C732      1.0  0.62452  0.52291  0.79134  1.0000
  C   C733      1.0  0.65252  0.49787  0.80199  1.0000
  C   C734      1.0  0.66250  0.46898  0.77800  1.0000
  C   C735      1.0  0.64468  0.46528  0.74326  1.0000
  C   C736      1.0  0.61674  0.49022  0.73257  1.0000
  H   H580      1.0  0.63154  0.55229  0.68825  1.0000
  H   H581      1.0  0.66112  0.60246  0.65214  1.0000
  H   H582      1.0  0.61727  0.54496  0.81039  1.0000
  H   H583      1.0  0.66630  0.50072  0.82897  1.0000
  H   H584      1.0  0.68417  0.44959  0.78608  1.0000
  H   H585      1.0  0.65250  0.44315  0.72432  1.0000
  C   C737      1.0  0.84434  0.39397  0.66467  1.0000
  H   H586      1.0  0.58884  0.61188  0.79329  1.0000
  H   H587      1.0  0.83994  0.42030  0.65080  1.0000
  H   H588      1.0  0.53891  0.51627  0.58733  1.0000
  C   C738      1.0  0.64864  0.48904  0.91107  1.0000
  C   C739      1.0  0.61333  0.48557  0.89433  1.0000
  C   C740      1.0  0.59213  0.51698  0.88609  1.0000
  C   C741      1.0  0.60615  0.55201  0.89494  1.0000
  C   C742      1.0  0.64145  0.55564  0.91220  1.0000
  C   C743      1.0  0.66277  0.52392  0.91985  1.0000
  P   P25       1.0  0.66014  0.60025  0.92487  1.0000
  C   C744      1.0  0.69776  0.61232  0.89234  1.0000
  C   C745      1.0  0.62343  0.63491  0.92365  1.0000
  C   C746      1.0  0.95208  0.41574  0.60041  1.0000
  C   C747      1.0  0.71737  0.64585  0.89596  1.0000
  H   H589      1.0  0.73751  0.41484  0.95054  1.0000
  C   C748      1.0  0.62459  0.66392  0.89733  1.0000
  C   C749      1.0  0.70827  0.61163  0.98678  1.0000
  C   C750      1.0  0.86775  0.35156  0.97455  1.0000
  C   C751      1.0  0.61483  0.66173  0.56944  1.0000
  H   H590      1.0  0.71468  0.42023  0.68322  1.0000
  H   H591      1.0  0.66464  0.46454  0.91808  1.0000
  H   H592      1.0  0.60232  0.45843  0.88818  1.0000
  C   C752      1.0  0.57482  0.62305  0.71593  1.0000
  H   H593      1.0  0.58923  0.57597  0.88886  1.0000
  H   H594      1.0  0.69002  0.52609  0.93338  1.0000
  C   C753      1.0  0.95912  0.37779  0.65608  1.0000
  C   C754      1.0  0.99175  0.36112  0.51344  1.0000
  H   H595      1.0  0.72548  0.62894  0.96910  1.0000
  H   H596      1.0  0.64062  0.38760  0.78566  1.0000
  C   C755      1.0  0.51454  0.55243  0.79978  1.0000
  H   H597      1.0  0.55820  0.63721  0.85002  1.0000
  C   C756      1.0  0.78463  0.49414  0.97480  1.0000
  H   H598      1.0  0.93892  0.48301  0.69838  1.0000
  H   H599      1.0  0.93186  0.48867  0.76749  1.0000
  H   H600      1.0  0.58176  0.61293  0.58305  1.0000
  C   C757      1.0  0.87330  0.37493  0.52818  1.0000
  H   H601      1.0  0.84534  0.41707  0.72042  1.0000
  H   H602      1.0  0.79392  0.42922  0.79753  1.0000
  H   H603      1.0  0.71094  0.66474  0.91856  1.0000
  C   C758      1.0  0.71529  0.57863  0.73035  1.0000
  C   C759      1.0  0.73757  0.60790  0.71754  1.0000
  C   C760      1.0  0.77672  0.60431  0.71660  1.0000
  C   C761      1.0  0.79359  0.57144  0.72832  1.0000
  C   C762      1.0  0.77130  0.54157  0.74026  1.0000
  C   C763      1.0  0.73204  0.54554  0.74150  1.0000
  P   P26       1.0  0.79304  0.50195  0.76168  1.0000
  C   C764      1.0  0.83962  0.49631  0.74247  1.0000
  C   C765      1.0  0.79204  0.51275  0.81107  1.0000
  C   C766      1.0  0.81489  0.54129  0.82491  1.0000
  C   C767      1.0  0.81161  0.55254  0.86232  1.0000
  C   C768      1.0  0.78502  0.53590  0.88590  1.0000
  C   C769      1.0  0.76189  0.50779  0.87231  1.0000
  C   C770      1.0  0.76502  0.49651  0.83488  1.0000
  C   C771      1.0  0.87142  0.49367  0.76568  1.0000
  C   C772      1.0  0.90712  0.48881  0.74972  1.0000
  C   C773      1.0  0.84387  0.49284  0.70337  1.0000
  C   C774      1.0  0.76948  0.45915  0.75088  1.0000
  C   C775      1.0  0.74763  0.45597  0.71833  1.0000
  H   H604      1.0  0.69148  0.56353  0.85739  1.0000
  C   C776      1.0  0.91113  0.48559  0.71074  1.0000
  C   C777      1.0  0.70614  0.58930  0.86159  1.0000
  C   C778      1.0  0.77582  0.42772  0.77309  1.0000
  H   H605      1.0  0.68508  0.58157  0.73195  1.0000
  H   H606      1.0  0.72457  0.63346  0.70867  1.0000
  H   H607      1.0  0.79419  0.62717  0.70736  1.0000
  H   H608      1.0  0.82407  0.56973  0.72872  1.0000
  H   H609      1.0  0.71441  0.52334  0.75173  1.0000
  H   H610      1.0  0.83477  0.55542  0.80666  1.0000
  H   H611      1.0  0.82934  0.57459  0.87289  1.0000
  H   H612      1.0  0.78210  0.54501  0.91469  1.0000
  H   H613      1.0  0.74151  0.49493  0.89091  1.0000
  H   H614      1.0  0.74583  0.47572  0.82460  1.0000
  H   H615      1.0  0.86904  0.49576  0.79593  1.0000
  H   H616      1.0  0.81968  0.49449  0.68495  1.0000
  H   H617      1.0  0.74365  0.47941  0.70008  1.0000
  C   C779      1.0  0.87942  0.48704  0.68766  1.0000
  S   S107      1.0  0.83000  0.51480  0.97051  1.0000
  Fe  Fe53      1.0  0.63811  0.38730  0.97075  1.0000
  C   C780      1.0  0.70010  0.66131  0.60155  1.0000
  C   C781      1.0  0.75907  0.39402  0.76362  1.0000
  H   H618      1.0  0.78711  0.63398  0.62932  1.0000
  H   H619      1.0  0.76362  0.36998  0.78108  1.0000
  C   C782      1.0  0.56314  0.59926  0.80360  1.0000
  C   C783      1.0  0.63571  0.59092  0.53520  1.0000
  P   P27       1.0  0.92189  0.39010  0.53217  1.0000
  C   C784      1.0  0.67514  0.59513  0.97335  1.0000
  C   C785      1.0  0.74242  0.44156  0.96312  1.0000
  C   C786      1.0  0.71457  0.45754  0.98580  1.0000
  C   C787      1.0  0.73397  0.59932  0.83560  1.0000
  P   P28       1.0  0.56913  0.55064  0.74282  1.0000
  C   C788      1.0  0.93578  0.38602  0.58100  1.0000
  C   C789      1.0  0.73132  0.42223  0.70865  1.0000
  C   C790      1.0  0.51781  0.54380  0.68336  1.0000
  H   H620      1.0  0.53747  0.62515  0.51642  1.0000
  C   C791      1.0  0.69377  0.63577  0.57253  1.0000
  H   H621      1.0  0.71773  0.58976  0.54179  1.0000
  C   C792      1.0  0.77757  0.45946  0.95835  1.0000
  C   C793      1.0  0.58975  0.58719  0.71478  1.0000
  H   H622      1.0  0.64681  0.66582  0.87660  1.0000
  C   C794      1.0  0.76078  0.63380  0.61411  1.0000
  C   C795      1.0  0.59335  0.63328  0.94938  1.0000
  H   H623      1.0  0.53639  0.47665  0.74768  1.0000
  H   H624      1.0  0.63617  0.66639  0.65695  1.0000
  C   C796      1.0  0.58443  0.64254  0.58575  1.0000
  H   H625      1.0  0.53340  0.64665  0.61839  1.0000
  Fe  Fe54      1.0  0.84193  0.57704  0.97243  1.0000
  C   C797      1.0  0.62318  0.64424  0.67282  1.0000
  H   H626      1.0  0.97588  0.43488  0.65247  1.0000
  C   C798      1.0  0.94367  0.34786  0.63682  1.0000
  C   C799      1.0  0.54711  0.56897  0.78482  1.0000
  H   H627      1.0  0.93683  0.57065  0.80478  1.0000
  C   C800      1.0  0.65852  0.36484  0.79382  1.0000
  C   C801      1.0  0.54607  0.61353  0.83597  1.0000
  H   H628      1.0  0.59130  0.61115  0.96967  1.0000
  H   H629      1.0  0.55008  0.62913  0.73266  1.0000
  H   H630      1.0  0.96991  0.38949  0.97561  1.0000
  C   C802      1.0  0.94113  0.37960  0.97534  1.0000
  H   H631      1.0  0.94942  0.34822  0.92453  1.0000
  Fe  Fe55      1.0  0.81499  0.65434  0.99269  1.0000
  C   C803      1.0  0.65388  0.57284  0.99800  1.0000
  H   H632      1.0  0.90240  0.52495  0.53588  1.0000
  C   C804      1.0  0.60720  0.51960  0.52389  1.0000
  C   C805      1.0  0.68484  0.36935  0.82254  1.0000
  H   H633      1.0  0.00263  0.37836  0.53578  1.0000
  C   C806      1.0  0.75625  0.51055  0.99627  1.0000
  Fe  Fe56      1.0  0.89893  0.63983  0.99098  1.0000
  H   H634      1.0  0.78328  0.40779  0.52317  1.0000
  C   C807      1.0  0.84343  0.40035  0.52662  1.0000
  S   S108      1.0  0.56104  0.34683  0.69777  1.0000
  H   H635      1.0  0.62863  0.55895  0.98849  1.0000
  H   H636      1.0  0.84831  0.42972  0.52683  1.0000
  H   H637      1.0  0.59613  0.49206  0.51954  1.0000
  C   C808      1.0  0.79819  0.35033  0.52406  1.0000
  C   C809      1.0  0.95314  0.36086  0.50530  1.0000
  H   H638      1.0  0.72201  0.65718  0.50429  1.0000
  H   H639      1.0  0.54280  0.65961  0.96971  1.0000
  S   S109      1.0  0.67107  0.43536  0.99669  1.0000
  C   C810      1.0  0.66115  0.66177  0.50101  1.0000
  C   C811      1.0  0.61689  0.58207  0.50168  1.0000
  H   H640      1.0  0.76653  0.94954  0.49160  1.0000
  C   C812      1.0  0.01046  0.74826  0.05474  1.0000
  C   C813      1.0  0.58685  0.74278  0.11741  1.0000
  C   C814      1.0  0.76746  0.90392  0.01436  1.0000
  C   C815      1.0  0.61192  0.70381  0.03391  1.0000
  H   H641      1.0  0.61488  0.70450  0.42917  1.0000
  C   C816      1.0  0.67521  0.70006  0.43366  1.0000
  C   C817      1.0  0.53140  0.81368  0.03082  1.0000
  C   C818      1.0  0.90611  0.79941  0.04667  1.0000
  C   C819      1.0  0.99509  0.71233  0.05334  1.0000
  H   H642      1.0  0.61091  0.75373  0.10222  1.0000
  C   C820      1.0  0.52552  0.71504  0.15828  1.0000
  H   H643      1.0  0.72885  0.75509  0.03568  1.0000
  H   H644      1.0  0.73394  0.69109  0.44564  1.0000
  C   C821      1.0  0.64059  0.68950  0.01093  1.0000
  H   H645      1.0  0.68067  0.71501  0.40779  1.0000
  H   H646      1.0  0.79606  0.81493  0.02154  1.0000
  C   C822      1.0  0.58820  0.83605  0.47576  1.0000
  C   C823      1.0  0.55350  0.81805  0.47959  1.0000
  H   H647      1.0  0.58032  0.79183  0.15088  1.0000
  H   H648      1.0  0.89734  0.71798  0.09354  1.0000
  C   C824      1.0  0.92071  0.88392  0.00478  1.0000
  C   C825      1.0  0.91323  0.77171  0.07308  1.0000
  H   H649      1.0  0.86490  0.85580  0.49469  1.0000
  S   S110      1.0  0.56441  0.85086  0.03126  1.0000
  C   C826      1.0  0.59487  0.73722  0.02391  1.0000
  C   C827      1.0  0.53899  0.75055  0.16554  1.0000
  H   H650      1.0  0.51579  0.92098  0.02038  1.0000
  H   H651      1.0  0.84410  0.71136  0.04928  1.0000
  H   H652      1.0  0.90267  0.88887  0.02888  1.0000
  C   C828      1.0  0.89095  0.73998  0.07395  1.0000
  C   C829      1.0  0.51838  0.79930  0.06529  1.0000
  C   C830      1.0  0.91003  0.87436  0.45923  1.0000
  C   C831      1.0  0.88905  0.87398  0.49260  1.0000
  C   C832      1.0  0.87642  0.79565  0.02085  1.0000
  C   C833      1.0  0.00128  0.77425  0.02717  1.0000
  H   H653      1.0  0.92495  0.82281  0.04586  1.0000
  H   H654      1.0  0.96245  0.92321  0.02299  1.0000
  C   C834      1.0  0.76668  0.86639  0.02332  1.0000
  H   H655      1.0  0.74198  0.85456  0.03665  1.0000
  C   C835      1.0  0.70520  0.68654  0.45495  1.0000
  C   C836      1.0  0.97046  0.70179  0.02428  1.0000
  H   H656      1.0  0.83106  0.75976  0.00252  1.0000
  H   H657      1.0  0.93700  0.77432  0.09194  1.0000
  P   P29       1.0  0.59643  0.67869  0.07503  1.0000
  H   H658      1.0  0.97339  0.94105  0.48143  1.0000
  C   C837      1.0  0.73442  0.75310  0.00582  1.0000
  C   C838      1.0  0.85383  0.76379  0.02233  1.0000
  H   H659      1.0  0.57186  0.74810  0.04037  1.0000
  H   H660      1.0  0.58900  0.86506  0.46847  1.0000
  H   H661      1.0  0.90248  0.85626  0.43622  1.0000
  H   H662      1.0  0.52921  0.81053  0.09115  1.0000
  C   C839      1.0  0.56969  0.76437  0.14517  1.0000
  C   C840      1.0  0.68854  0.98751  0.45489  1.0000
  C   C841      1.0  0.94066  0.89829  0.45539  1.0000
  C   C842      1.0  0.57306  0.70734  0.10946  1.0000
  C   C843      1.0  0.86111  0.73617  0.04880  1.0000
  C   C844      1.0  0.79760  0.84399  0.01485  1.0000
  C   C845      1.0  0.54259  0.69342  0.13054  1.0000
  H   H663      1.0  0.68322  0.92874  0.44767  1.0000
  C   C846      1.0  0.95004  0.92205  0.48477  1.0000
  C   C847      1.0  0.51327  0.70961  0.48162  1.0000
  H   H664      1.0  0.52220  0.87508  0.10775  1.0000
  S   S111      1.0  0.77109  0.68866  0.02202  1.0000
  H   H665      1.0  0.95704  0.89869  0.42957  1.0000
  C   C848      1.0  0.62168  0.81715  0.48293  1.0000
  H   H666      1.0  0.52586  0.76713  0.18723  1.0000
  H   H667      1.0  0.62933  0.92315  0.49212  1.0000
  H   H668      1.0  0.74348  0.92132  0.02088  1.0000
  C   C849      1.0  0.67239  0.95298  0.46178  1.0000
  C   C850      1.0  0.64216  0.94979  0.48681  1.0000
  H   H669      1.0  0.51824  0.93882  0.47175  1.0000
  H   H670      1.0  0.52788  0.83373  0.47577  1.0000
  C   C851      1.0  0.62053  0.78010  0.49355  1.0000
  C   C852      1.0  0.58593  0.76198  0.49708  1.0000
  H   H671      1.0  0.71211  0.99008  0.43563  1.0000
  C   C853      1.0  0.55218  0.78063  0.48969  1.0000
  H   H672      1.0  0.67818  0.69548  0.07604  1.0000
  C   C854      1.0  0.63820  0.69420  0.44573  1.0000
  H   H673      1.0  0.64849  0.83138  0.48108  1.0000
  H   H674      1.0  0.51889  0.68365  0.04965  1.0000
  C   C855      1.0  0.51578  0.95724  0.49545  1.0000
  H   H675      1.0  0.00171  0.69292  0.07535  1.0000
  C   C856      1.0  0.95454  0.90346  0.00157  1.0000
  Fe  Fe57      1.0  0.66672  0.82991  0.58941  1.0000
  S   S112      1.0  0.67725  0.85035  0.64784  1.0000
  S   S113      1.0  0.69749  0.78075  0.56232  1.0000
  Fe  Fe58      1.0  0.60146  0.88689  0.57702  1.0000
  S   S114      1.0  0.60763  0.91040  0.63511  1.0000
  S   S115      1.0  0.55840  0.90528  0.53272  1.0000
  Fe  Fe59      1.0  0.66976  0.90705  0.62354  1.0000
  S   S116      1.0  0.70763  0.95173  0.64569  1.0000
  Fe  Fe60      1.0  0.61450  0.85181  0.65432  1.0000
  S   S117      1.0  0.59039  0.82576  0.70684  1.0000
  S   S118      1.0  0.66378  0.88706  0.56409  1.0000
  S   S119      1.0  0.60366  0.82777  0.59710  1.0000
  H   H676      1.0  0.79670  0.68612  0.55063  1.0000
  Fe  Fe61      1.0  0.61189  0.90439  0.90518  1.0000
  S   S120      1.0  0.60187  0.92984  0.96198  1.0000
  S   S121      1.0  0.58445  0.92665  0.85273  1.0000
  Fe  Fe62      1.0  0.67149  0.85345  0.93477  1.0000
  H   H677      1.0  0.98425  0.98324  0.56593  1.0000
  C   C857      1.0  0.75871  0.99479  0.94374  1.0000
  Fe  Fe63      1.0  0.66534  0.93135  0.96681  1.0000
  H   H678      1.0  0.88652  0.76430  0.65041  1.0000
  S   S122      1.0  0.60920  0.84614  0.92652  1.0000
  S   S123      1.0  0.67458  0.90972  0.90874  1.0000
  H   H679      1.0  0.73453  0.00331  0.52068  1.0000
  C   C858      1.0  0.81118  0.92702  0.52527  1.0000
  H   H680      1.0  0.53885  0.71436  0.62702  1.0000
  H   H681      1.0  0.73849  0.68028  0.64422  1.0000
  S   S124      1.0  0.71112  0.81095  0.91099  1.0000
  H   H682      1.0  0.77321  0.76917  0.81528  1.0000
  C   C859      1.0  0.51823  0.79787  0.99745  1.0000
  C   C860      1.0  0.77874  0.84412  0.68992  1.0000
  H   H683      1.0  0.79254  0.96812  0.77885  1.0000
  C   C861      1.0  0.72792  0.77773  0.94266  1.0000
  C   C862      1.0  0.74801  0.74755  0.92861  1.0000
  C   C863      1.0  0.76204  0.72067  0.95310  1.0000
  C   C864      1.0  0.84066  0.98986  0.80763  1.0000
  H   H684      1.0  0.75291  0.74509  0.89871  1.0000
  H   H685      1.0  0.81520  0.92245  0.89483  1.0000
  C   C865      1.0  0.53333  0.94782  0.52957  1.0000
  C   C866      1.0  0.75366  0.72825  0.55606  1.0000
  C   C867      1.0  0.86149  0.99020  0.63012  1.0000
  C   C868      1.0  0.58695  0.89837  0.81240  1.0000
  C   C869      1.0  0.58528  0.91450  0.77656  1.0000
  C   C870      1.0  0.58730  0.89254  0.74404  1.0000
  C   C871      1.0  0.58978  0.85416  0.74717  1.0000
  C   C872      1.0  0.59127  0.83800  0.78302  1.0000
  C   C873      1.0  0.59055  0.86007  0.81552  1.0000
  H   H686      1.0  0.58275  0.94412  0.77395  1.0000
  H   H687      1.0  0.58601  0.90529  0.71661  1.0000
  H   H688      1.0  0.59311  0.80836  0.78568  1.0000
  H   H689      1.0  0.59185  0.84738  0.84300  1.0000
  C   C874      1.0  0.73937  0.75778  0.57746  1.0000
  C   C875      1.0  0.75858  0.76805  0.61009  1.0000
  C   C876      1.0  0.79157  0.74915  0.62101  1.0000
  C   C877      1.0  0.80547  0.71907  0.60012  1.0000
  C   C878      1.0  0.78632  0.70887  0.56733  1.0000
  C   C879      1.0  0.77584  0.88956  0.86335  1.0000
  H   H690      1.0  0.74792  0.79050  0.62690  1.0000
  H   H691      1.0  0.80636  0.75772  0.64598  1.0000
  C   C880      1.0  0.74013  0.00461  0.55045  1.0000
  C   C881      1.0  0.77032  0.86721  0.83180  1.0000
  C   C882      1.0  0.73005  0.98132  0.61363  1.0000
  H   H692      1.0  0.85901  0.87143  0.79492  1.0000
  C   C883      1.0  0.72118  0.78055  0.98133  1.0000
  C   C884      1.0  0.72317  0.97916  0.57501  1.0000
  C   C885      1.0  0.71417  0.97571  0.78265  1.0000
  H   H693      1.0  0.70428  0.95842  0.56411  1.0000
  C   C886      1.0  0.85514  0.74236  0.72860  1.0000
  C   C887      1.0  0.82903  0.77107  0.73128  1.0000
  C   C888      1.0  0.79910  0.91903  0.99670  1.0000
  H   H694      1.0  0.80784  0.77338  0.70982  1.0000
  C   C889      1.0  0.75036  0.89798  0.51720  1.0000
  H   H695      1.0  0.63978  0.71570  0.56056  1.0000
  H   H696      1.0  0.59142  0.74867  0.59722  1.0000
  C   C890      1.0  0.82964  0.79554  0.76193  1.0000
  H   H697      1.0  0.71315  0.73777  0.82891  1.0000
  S   S125      1.0  0.66675  0.87491  0.99392  1.0000
  H   H698      1.0  0.53211  0.69014  0.53587  1.0000
  C   C891      1.0  0.74834  0.77689  0.79966  1.0000
  H   H699      1.0  0.78531  0.92011  0.63411  1.0000
  H   H700      1.0  0.69016  0.97030  0.83868  1.0000
  C   C892      1.0  0.58940  0.71906  0.59390  1.0000
  H   H701      1.0  0.77812  0.69782  0.94207  1.0000
  H   H702      1.0  0.76497  0.85508  0.63194  1.0000
  H   H703      1.0  0.92899  0.83019  0.92650  1.0000
  C   C893      1.0  0.75477  0.00815  0.62742  1.0000
  H   H704      1.0  0.93812  0.91771  0.60657  1.0000
  C   C894      1.0  0.68177  0.76867  0.78777  1.0000
  H   H705      1.0  0.62939  0.00792  0.93885  1.0000
  H   H706      1.0  0.76829  0.81617  0.68846  1.0000
  C   C895      1.0  0.88097  0.93548  0.59574  1.0000
  C   C896      1.0  0.70511  0.92217  0.74247  1.0000
  C   C897      1.0  0.88212  0.76077  0.78800  1.0000
  C   C898      1.0  0.88177  0.73727  0.75692  1.0000
  H   H707      1.0  0.86836  0.91053  0.85108  1.0000
  C   C899      1.0  0.60775  0.75708  0.99267  1.0000
  C   C900      1.0  0.85615  0.78967  0.79062  1.0000
  C   C901      1.0  0.77655  0.86615  0.65770  1.0000
  H   H708      1.0  0.85862  0.96695  0.80006  1.0000
  S   S126      1.0  0.86286  0.68265  0.96361  1.0000
  H   H709      1.0  0.65525  0.75513  0.79395  1.0000
  H   H710      1.0  0.81408  0.90845  0.75019  1.0000
  C   C902      1.0  0.68468  0.90478  0.77103  1.0000
  C   C903      1.0  0.71434  0.75885  0.80731  1.0000
  S   S127      1.0  0.84708  0.69614  0.61617  1.0000
  C   C904      1.0  0.97892  0.89649  0.97153  1.0000
  P   P30       1.0  0.87059  0.89680  0.56526  1.0000
  C   C905      1.0  0.88686  0.82152  0.57451  1.0000
  C   C906      1.0  0.81110  0.90518  0.87027  1.0000
  H   H711      1.0  0.79974  0.94817  0.98996  1.0000
  C   C907      1.0  0.74991  0.80533  0.77283  1.0000
  C   C908      1.0  0.68325  0.79648  0.76060  1.0000
  C   C909      1.0  0.88984  0.78903  0.59554  1.0000
  C   C910      1.0  0.93537  0.85080  0.94744  1.0000
  H   H712      1.0  0.71695  0.83736  0.73325  1.0000
  H   H713      1.0  0.70853  0.90882  0.71541  1.0000
  C   C911      1.0  0.71704  0.81505  0.75341  1.0000
  C   C912      1.0  0.78805  0.90291  0.65890  1.0000
  H   H714      1.0  0.85644  0.80646  0.81565  1.0000
  H   H715      1.0  0.65799  0.80420  0.74553  1.0000
  C   C913      1.0  0.76155  0.86896  0.54050  1.0000
  C   C914      1.0  0.68023  0.92205  0.80577  1.0000
  C   C915      1.0  0.87224  0.85530  0.63144  1.0000
  H   H716      1.0  0.64737  0.75901  0.94677  1.0000
  C   C916      1.0  0.85335  0.96178  0.60481  1.0000
  P   P31       1.0  0.79337  0.83054  0.76621  1.0000
  C   C917      1.0  0.79237  0.85873  0.72389  1.0000
  C   C918      1.0  0.63707  0.74326  0.97065  1.0000
  H   H717      1.0  0.90211  0.75605  0.81050  1.0000
  C   C919      1.0  0.52572  0.68278  0.50721  1.0000
  H   H718      1.0  0.85436  0.72358  0.70481  1.0000
  Fe  Fe64      1.0  0.60381  0.87143  0.98404  1.0000
  H   H719      1.0  0.98859  0.86447  0.92157  1.0000
  C   C920      1.0  0.83562  0.87610  0.81396  1.0000
  H   H720      1.0  0.54675  0.71168  0.92499  1.0000
  C   C921      1.0  0.84100  0.89843  0.84560  1.0000
  C   C922      1.0  0.56771  0.68996  0.92407  1.0000
  C   C923      1.0  0.80034  0.85982  0.80702  1.0000
  C   C924      1.0  0.59705  0.69148  0.89787  1.0000
  C   C925      1.0  0.91658  0.93800  0.61271  1.0000
  C   C926      1.0  0.80186  0.91776  0.69231  1.0000
  C   C927      1.0  0.80401  0.89587  0.72467  1.0000
  H   H721      1.0  0.93711  0.94069  0.54016  1.0000
  H   H722      1.0  0.67667  0.69915  0.96315  1.0000
  C   C928      1.0  0.61672  0.70024  0.57310  1.0000
  C   C929      1.0  0.96924  0.87035  0.94437  1.0000
  H   H723      1.0  0.75275  0.89439  0.88271  1.0000
  H   H724      1.0  0.90161  0.71460  0.75518  1.0000
  C   C930      1.0  0.65345  0.70945  0.97977  1.0000
  H   H725      1.0  0.78998  0.80181  0.87355  1.0000
  C   C931      1.0  0.91101  0.85712  0.97795  1.0000
  C   C932      1.0  0.79761  0.86882  0.55614  1.0000
  C   C933      1.0  0.92477  0.96688  0.63745  1.0000
  H   H726      1.0  0.80814  0.83876  0.92806  1.0000
  H   H727      1.0  0.58552  0.73367  0.50634  1.0000
  H   H728      1.0  0.74257  0.85560  0.82730  1.0000
  H   H729      1.0  0.67149  0.87829  0.76618  1.0000
  H   H730      1.0  0.52783  0.80854  0.97065  1.0000
  C   C934      1.0  0.81509  0.79448  0.88901  1.0000
  C   C935      1.0  0.82544  0.81541  0.92032  1.0000
  H   H731      1.0  0.54359  0.96553  0.58638  1.0000
  H   H732      1.0  0.89118  0.82003  0.54451  1.0000
  H   H733      1.0  0.51419  0.81011  0.62458  1.0000
  C   C936      1.0  0.72005  0.95740  0.74827  1.0000
  H   H734      1.0  0.90201  0.76576  0.94769  1.0000
  H   H735      1.0  0.82692  0.74585  0.85593  1.0000
  H   H736      1.0  0.82546  0.96060  0.59273  1.0000
  C   C937      1.0  0.89721  0.99298  0.64616  1.0000
  C   C938      1.0  0.97668  0.76372  0.99811  1.0000
  H   H737      1.0  0.59877  0.71443  0.87834  1.0000
  C   C939      1.0  0.88432  0.78968  0.63442  1.0000
  C   C940      1.0  0.69488  0.95734  0.81170  1.0000
  H   H738      1.0  0.81016  0.94654  0.69321  1.0000
  C   C941      1.0  0.83572  0.76311  0.87918  1.0000
  C   C942      1.0  0.85668  0.80508  0.94201  1.0000
  H   H739      1.0  0.66429  0.90843  0.82776  1.0000
  C   C943      1.0  0.87790  0.85501  0.59227  1.0000
  H   H740      1.0  0.75224  0.96863  0.93065  1.0000
  C   C944      1.0  0.86756  0.75345  0.89982  1.0000
  C   C945      1.0  0.87795  0.77425  0.93121  1.0000
  H   H741      1.0  0.73530  0.97061  0.72548  1.0000
  H   H742      1.0  0.95255  0.96909  0.64977  1.0000
  H   H743      1.0  0.88344  0.72901  0.89224  1.0000
  C   C946      1.0  0.87560  0.82282  0.65240  1.0000
  H   H744      1.0  0.87123  0.82329  0.68254  1.0000
  H   H745      1.0  0.86490  0.88053  0.64589  1.0000
  H   H746      1.0  0.65201  0.00496  0.57825  1.0000
  H   H747      1.0  0.73935  0.72031  0.53057  1.0000
  H   H748      1.0  0.80582  0.84560  0.57340  1.0000
  C   C947      1.0  0.55970  0.69973  0.61063  1.0000
  H   H749      1.0  0.96924  0.78359  0.97675  1.0000
  C   C948      1.0  0.92938  0.92151  0.51833  1.0000
  C   C949      1.0  0.80321  0.99069  0.79555  1.0000
  H   H750      1.0  0.85358  0.90885  0.97310  1.0000
  H   H751      1.0  0.94285  0.71996  0.97398  1.0000
  C   C950      1.0  0.99129  0.00562  0.54706  1.0000
  C   C951      1.0  0.53040  0.97226  0.55987  1.0000
  H   H752      1.0  0.70542  0.80359  0.99234  1.0000
  H   H753      1.0  0.58056  0.67928  0.69678  1.0000
  P   P32       1.0  0.86879  0.82976  0.98440  1.0000
  S   S128      1.0  0.69462  0.98378  0.98860  1.0000
  H   H754      1.0  0.89604  0.76307  0.58171  1.0000
  C   C952      1.0  0.77516  0.92698  0.50960  1.0000
  H   H755      1.0  0.74239  0.84630  0.54616  1.0000
  C   C953      1.0  0.82985  0.89665  0.98771  1.0000
  H   H756      1.0  0.76049  0.00962  0.65726  1.0000
  C   C954      1.0  0.82265  0.89799  0.54873  1.0000
  H   H757      1.0  0.80994  0.00323  0.91177  1.0000
  H   H758      1.0  0.83025  0.94959  0.51882  1.0000
  H   H759      1.0  0.76152  0.68073  0.87370  1.0000
  H   H760      1.0  0.59540  0.78351  0.98584  1.0000
  H   H761      1.0  0.52912  0.80850  0.55699  1.0000
  C   C955      1.0  0.75494  0.72320  0.99167  1.0000
  H   H762      1.0  0.63160  0.99128  0.64290  1.0000
  C   C956      1.0  0.62814  0.98104  0.50503  1.0000
  C   C957      1.0  0.82964  0.85903  0.99732  1.0000
  H   H763      1.0  0.56163  0.00637  0.92257  1.0000
  C   C958      1.0  0.73514  0.00840  0.97213  1.0000
  H   H764      1.0  0.60458  0.97809  0.52415  1.0000
  C   C959      1.0  0.89900  0.89701  0.52282  1.0000
  C   C960      1.0  0.96142  0.72776  0.99663  1.0000
  H   H765      1.0  0.68035  0.68309  0.60748  1.0000
  H   H766      1.0  0.00574  0.91072  0.96983  1.0000
  H   H767      1.0  0.72248  0.89798  0.50501  1.0000
  H   H768      1.0  0.64649  0.76562  0.49974  1.0000
