data_image0
_chemical_formula_structural       HCHC5SHFeSC2SHCSC2PHCSCHSC2HC4H4C2H4CHCSC2HCHC2H2CHSHC2HC2HCSC4HC2HCFeHC2PH2CHC3H5CPCHCHSFe2C3H3CHCHCH2C3PC8SHC4H2CHC3H5CH3CFeH2CH3CSH2CHC4H2CH2C2HCH2CHC2HCHCHCFeC2H6C2H2CHSC3HSFeSCHFeSCSFeHSH2SHCH3CSH3SC6HCPHSH3C4H2CHCHCHSCH4CHC2HCFeC2HC5HC2H2C2HCH2SC2HC2PCH2C2HCHC3H4C2HFeHC2HC5H2C3H2CHCHC2HCH2C3FeC4H3CH3FeHFeHC2FeHC2SFeSHC2HC2HC5H3C2H2C2SCH2S2CHCSCHSCH3CH2C2HC2HCHC2SCSC3HC2SC6HC3H2FeH3PCH3CH4CHC2HC2H3CHCHC3HCHCHFeHC4PHC2SCH2CHC4H2CH2FeHCHCH2CHCHC2H2SC2HCSC2HCSCHC2H3SFeCHC3SH2C3H2CH2CH5CHCSCH2CHCH2CHC5FeCHC2PC2SFeCHSH2CHCHCH3CHCHCHSHCHCH2C2HC3HCHC4H2CH2C4H2CH4CHC2H2FeSC5H3C2SC6HCPC4HCHCH2FeH2C3H2C3SH4CH2C2HCFeHC2SCPC4H3CHCH2FeC4H2C3SCSC2H2CH2C2FeC2SCHCH2C2HSCHSC5PC3HC3H3CHCH2SC2H2CHCHFeH2C3FeC2HC2H3PHC3HC2SHPHCHC4HCHSC3H2FeCH7CH2CHC2H2C5HCHSCHCHCHC2HCHCSCHCHC2H2FeCHSC4H2SCHSFeCSHC3HC2H3CH2FeHFeCH3CPHCHC2H2SHC2H2CSCHCHC2HCHC3HCH2C7HFeC3HSC3H8CHCSCH14CSCSHCHC2FeCHC4PC5HC2SHC11HCH2CHSC6HCHC2SHC3FeHSCHSC3H2CFeC2SH3CH2SCSHCH2SCHSCH2CHC2H4C3H2C3HFeCHCH5C4H4PC12H3C2H5CHFeHC2HC6PSC6H3C3HC2H4C4H2SC3H2C3HC2PCHCH2C5FeCHSHCH3CH2CH8C3HC2HC4HC2HCH4CH2C4SCHCHC3HC3H2CHS2CSFeCSFeCSH3S2CH2SHCSHFeC4H2C5H2C2HC3H2C6H2CH2C4SC2HC4HC2HPC3HC4HCHC3HC2H2CHCH3PHCHC5H4CH2FeCHFeCH2C2HCH2C5HC4H5CHSHPH3CSC3SH2CH2C2FeCPFeCPC2HSH4C3HC
_chemical_formula_sum              "H576 C720 S96 Fe48 P24"
_cell_length_a       38.8243
_cell_length_b       38.5448
_cell_length_c       38.6758
_cell_angle_alpha    89.9065
_cell_angle_beta     89.9137
_cell_angle_gamma    96.7478

_space_group_name_H-M_alt    "P 1"
_space_group_IT_number       1

loop_
  _space_group_symop_operation_xyz
  'x, y, z'

loop_
  _atom_site_type_symbol
  _atom_site_label
  _atom_site_symmetry_multiplicity
  _atom_site_fract_x
  _atom_site_fract_y
  _atom_site_fract_z
  _atom_site_occupancy
  H   H1        1.0  0.15827  0.28948  0.43283  1.0000
  C   C1        1.0  0.07866  0.45546  0.10187  1.0000
  H   H2        1.0  0.37229  0.09343  0.40139  1.0000
  C   C2        1.0  0.09404  0.23679  0.47370  1.0000
  C   C3        1.0  0.43188  0.06221  0.35102  1.0000
  C   C4        1.0  0.46590  0.10313  0.01944  1.0000
  C   C5        1.0  0.42907  0.04108  0.38055  1.0000
  C   C6        1.0  0.10298  0.08796  0.48066  1.0000
  S   S1        1.0  0.41813  0.27370  0.03956  1.0000
  H   H3        1.0  0.42204  0.06690  0.08434  1.0000
  Fe  Fe1       1.0  0.41421  0.21497  0.04622  1.0000
  S   S2        1.0  0.40315  0.19064  0.10009  1.0000
  C   C7        1.0  0.41418  0.12105  0.09081  1.0000
  C   C8        1.0  0.34436  0.08998  0.40456  1.0000
  S   S3        1.0  0.36967  0.99611  0.32207  1.0000
  H   H4        1.0  0.00389  0.21963  0.38138  1.0000
  C   C9        1.0  0.02519  0.20388  0.38317  1.0000
  S   S4        1.0  0.99920  0.44213  0.17170  1.0000
  C   C10       1.0  0.45700  0.38505  0.03085  1.0000
  C   C11       1.0  0.09864  0.48607  0.11279  1.0000
  P   P1        1.0  0.12681  0.21831  0.41358  1.0000
  H   H5        1.0  0.07882  0.09854  0.43232  1.0000
  C   C12       1.0  0.32980  0.08791  0.43766  1.0000
  S   S5        1.0  0.43995  0.02544  0.25782  1.0000
  C   C13       1.0  0.30240  0.35638  0.03278  1.0000
  H   H6        1.0  0.41285  0.12616  0.06339  1.0000
  S   S6        1.0  0.42525  0.03642  0.15170  1.0000
  C   C14       1.0  0.41006  0.14786  0.11419  1.0000
  C   C15       1.0  0.44048  0.41348  0.04191  1.0000
  H   H7        1.0  0.30103  0.35992  0.06042  1.0000
  C   C16       1.0  0.41977  0.07985  0.13846  1.0000
  C   C17       1.0  0.41585  0.10670  0.16198  1.0000
  C   C18       1.0  0.41085  0.14041  0.14987  1.0000
  C   C19       1.0  0.30038  0.44200  0.09936  1.0000
  H   H8        1.0  0.41634  0.10143  0.18943  1.0000
  H   H9        1.0  0.40756  0.16088  0.16825  1.0000
  H   H10       1.0  0.20186  0.12429  0.39833  1.0000
  H   H11       1.0  0.31122  0.10802  0.28992  1.0000
  C   C20       1.0  0.44364  0.36473  0.00307  1.0000
  C   C21       1.0  0.18184  0.01016  0.37892  1.0000
  H   H12       1.0  0.08682  0.44148  0.07965  1.0000
  H   H13       1.0  0.13775  0.18869  0.48305  1.0000
  H   H14       1.0  0.03312  0.41879  0.11154  1.0000
  H   H15       1.0  0.28250  0.08109  0.46739  1.0000
  C   C22       1.0  0.36231  0.41220  0.09235  1.0000
  H   H16       1.0  0.27591  0.45285  0.10121  1.0000
  C   C23       1.0  0.29379  0.08304  0.44168  1.0000
  S   S7        1.0  0.12946  0.05814  0.46128  1.0000
  C   C24       1.0  0.31359  0.02824  0.25368  1.0000
  C   C25       1.0  0.32458  0.33320  0.01924  1.0000
  H   H17       1.0  0.25763  0.20837  0.36383  1.0000
  C   C26       1.0  0.17129  0.14927  0.47547  1.0000
  H   H18       1.0  0.00668  0.33343  0.34918  1.0000
  C   C27       1.0  0.33721  0.39843  0.11622  1.0000
  C   C28       1.0  0.41911  0.08737  0.10285  1.0000
  H   H19       1.0  0.48182  0.14787  0.05050  1.0000
  H   H20       1.0  0.24791  0.22989  0.99493  1.0000
  C   C29       1.0  0.28101  0.37394  0.01108  1.0000
  H   H21       1.0  0.14781  0.32775  0.48174  1.0000
  S   S8        1.0  0.46484  0.21164  0.01943  1.0000
  H   H22       1.0  0.20204  0.29554  0.30631  1.0000
  C   C30       1.0  0.00902  0.00073  0.47306  1.0000
  C   C31       1.0  0.18663  0.25047  0.38167  1.0000
  H   H23       1.0  0.13065  0.07025  0.35142  1.0000
  C   C32       1.0  0.36619  0.47762  0.00508  1.0000
  C   C33       1.0  0.41043  0.42191  0.02505  1.0000
  H   H24       1.0  0.98864  0.33928  0.07662  1.0000
  C   C34       1.0  0.20516  0.26958  0.35547  1.0000
  S   S9        1.0  0.21984  0.01716  0.47297  1.0000
  C   C35       1.0  0.25971  0.25429  0.04388  1.0000
  C   C36       1.0  0.25461  0.28198  0.06584  1.0000
  C   C37       1.0  0.23352  0.30702  0.05537  1.0000
  C   C38       1.0  0.15051  0.24216  0.37910  1.0000
  H   H25       1.0  0.20286  0.32530  0.01497  1.0000
  C   C39       1.0  0.08069  0.10501  0.45947  1.0000
  C   C40       1.0  0.45889  0.03039  0.39580  1.0000
  H   H26       1.0  0.23295  0.27634  0.35781  1.0000
  C   C41       1.0  0.13299  0.30223  0.47956  1.0000
  Fe  Fe2       1.0  0.42965  0.00742  0.20323  1.0000
  H   H27       1.0  0.28624  0.40189  0.13722  1.0000
  C   C42       1.0  0.32369  0.99514  0.37635  1.0000
  C   C43       1.0  0.35655  0.44096  0.07168  1.0000
  P   P2        1.0  0.45577  0.00013  0.43161  1.0000
  H   H28       1.0  0.28720  0.99685  0.41854  1.0000
  H   H29       1.0  0.04389  0.14322  0.45629  1.0000
  C   C44       1.0  0.05741  0.21882  0.39539  1.0000
  H   H30       1.0  0.45088  0.42833  0.06402  1.0000
  C   C45       1.0  0.15182  0.02587  0.37287  1.0000
  C   C46       1.0  0.39658  0.40048  0.99792  1.0000
  C   C47       1.0  0.32555  0.45608  0.07576  1.0000
  H   H31       1.0  0.27657  0.23519  0.05174  1.0000
  H   H32       1.0  0.26759  0.28445  0.09063  1.0000
  H   H33       1.0  0.23035  0.32915  0.07187  1.0000
  H   H34       1.0  0.32031  0.47829  0.06027  1.0000
  H   H35       1.0  0.47992  0.37820  0.04400  1.0000
  C   C48       1.0  0.08510  0.19857  0.39827  1.0000
  P   P3        1.0  0.38840  0.45812  0.03995  1.0000
  C   C49       1.0  0.03732  0.46013  0.14934  1.0000
  H   H36       1.0  0.38586  0.39994  0.08980  1.0000
  C   C50       1.0  0.30614  0.41315  0.11951  1.0000
  H   H37       1.0  0.34029  0.01775  0.38523  1.0000
  S   S10       1.0  0.25130  0.40035  0.03021  1.0000
  Fe  Fe3       1.0  0.46713  0.26948  0.00943  1.0000
  Fe  Fe4       1.0  0.16387  0.48604  0.04221  1.0000
  C   C51       1.0  0.15241  0.17585  0.46417  1.0000
  C   C52       1.0  0.04819  0.44264  0.12002  1.0000
  C   C53       1.0  0.00683  0.38035  0.04093  1.0000
  H   H38       1.0  0.34152  0.37581  0.13156  1.0000
  H   H39       1.0  0.20238  0.10913  0.46049  1.0000
  H   H40       1.0  0.06047  0.24614  0.40279  1.0000
  C   C54       1.0  0.00484  0.41096  0.47198  1.0000
  H   H41       1.0  0.18712  0.09949  0.33207  1.0000
  C   C55       1.0  0.11943  0.24736  0.44877  1.0000
  H   H42       1.0  0.34008  0.31923  0.03643  1.0000
  C   C56       1.0  0.02018  0.16859  0.37412  1.0000
  H   H43       1.0  0.04362  0.12085  0.37003  1.0000
  H   H44       1.0  0.20036  0.24259  0.40421  1.0000
  C   C57       1.0  0.27227  0.08064  0.41259  1.0000
  C   C58       1.0  0.28668  0.08239  0.37917  1.0000
  C   C59       1.0  0.32292  0.08729  0.37541  1.0000
  P   P4        1.0  0.25902  0.08206  0.34155  1.0000
  C   C60       1.0  0.21674  0.05932  0.35189  1.0000
  C   C61       1.0  0.25416  0.12654  0.32955  1.0000
  C   C62       1.0  0.24351  0.13406  0.29595  1.0000
  C   C63       1.0  0.23819  0.16816  0.28688  1.0000
  C   C64       1.0  0.24323  0.19493  0.31133  1.0000
  C   C65       1.0  0.25372  0.18763  0.34486  1.0000
  C   C66       1.0  0.25924  0.15358  0.35398  1.0000
  C   C67       1.0  0.24370  0.25163  0.01148  1.0000
  S   S11       1.0  0.15725  0.43285  0.01799  1.0000
  H   H45       1.0  0.12693  0.01326  0.38175  1.0000
  C   C68       1.0  0.15400  0.05803  0.35584  1.0000
  C   C69       1.0  0.18625  0.07456  0.34501  1.0000
  C   C70       1.0  0.27937  0.06086  0.30647  1.0000
  C   C71       1.0  0.30431  0.08035  0.28557  1.0000
  H   H46       1.0  0.99489  0.15690  0.36555  1.0000
  H   H47       1.0  0.07857  0.21158  0.47175  1.0000
  C   C72       1.0  0.06079  0.13039  0.47301  1.0000
  H   H48       1.0  0.03189  0.37113  0.03710  1.0000
  C   C73       1.0  0.13881  0.28037  0.45179  1.0000
  C   C74       1.0  0.33516  0.46023  0.99192  1.0000
  C   C75       1.0  0.21799  0.30479  0.02274  1.0000
  H   H49       1.0  0.24444  0.07738  0.41636  1.0000
  H   H50       1.0  0.33480  0.08875  0.35005  1.0000
  H   H51       1.0  0.23903  0.11347  0.27684  1.0000
  H   H52       1.0  0.23010  0.17380  0.26085  1.0000
  H   H53       1.0  0.23905  0.22132  0.30421  1.0000
  C   C76       1.0  0.21416  0.02700  0.36900  1.0000
  H   H54       1.0  0.26718  0.14847  0.38013  1.0000
  H   H55       1.0  0.10081  0.14697  0.39042  1.0000
  H   H56       1.0  0.46952  0.22278  0.12801  1.0000
  C   C77       1.0  0.15182  0.18462  0.42891  1.0000
  Fe  Fe5       1.0  0.21549  0.43955  0.01024  1.0000
  H   H57       1.0  0.32500  0.43474  0.00167  1.0000
  H   H58       1.0  0.44701  0.11618  0.00528  1.0000
  C   C78       1.0  0.35998  0.00927  0.47267  1.0000
  H   H59       1.0  0.25348  0.00870  0.31647  1.0000
  H   H60       1.0  0.17638  0.21677  0.00619  1.0000
  H   H61       1.0  0.13829  0.28097  0.30143  1.0000
  C   C79       1.0  0.18922  0.13083  0.45175  1.0000
  S   S12       1.0  0.38226  0.20455  0.99783  1.0000
  H   H62       1.0  0.34087  0.07906  0.24358  1.0000
  H   H63       1.0  0.34641  0.09008  0.46021  1.0000
  C   C80       1.0  0.48581  0.12113  0.04523  1.0000
  H   H64       1.0  0.40704  0.04301  0.46244  1.0000
  C   C81       1.0  0.18872  0.13927  0.41666  1.0000
  C   C82       1.0  0.22300  0.27710  0.00044  1.0000
  C   C83       1.0  0.32129  0.06407  0.25930  1.0000
  C   C84       1.0  0.08010  0.16329  0.38836  1.0000
  H   H65       1.0  0.40864  0.06905  0.33849  1.0000
  H   H66       1.0  0.16957  0.17188  0.37783  1.0000
  C   C85       1.0  0.15185  0.27226  0.32374  1.0000
  H   H67       1.0  0.47454  0.99426  0.11779  1.0000
  H   H68       1.0  0.10538  0.24759  0.34737  1.0000
  C   C86       1.0  0.17024  0.16614  0.40523  1.0000
  C   C87       1.0  0.18777  0.28045  0.32650  1.0000
  H   H69       1.0  0.40349  0.03183  0.39018  1.0000
  C   C88       1.0  0.13323  0.25325  0.34994  1.0000
  H   H70       1.0  0.23715  0.01492  0.37510  1.0000
  H   H71       1.0  0.12052  0.17948  0.01024  1.0000
  C   C89       1.0  0.39410  0.01661  0.46063  1.0000
  H   H72       1.0  0.01596  0.41933  0.44718  1.0000
  C   C90       1.0  0.04298  0.99217  0.47478  1.0000
  C   C91       1.0  0.46437  0.07253  0.33631  1.0000
  H   H73       1.0  0.45464  0.05489  0.99191  1.0000
  C   C92       1.0  0.99814  0.37531  0.47943  1.0000
  H   H74       1.0  0.46639  0.08784  0.31273  1.0000
  C   C93       1.0  0.04764  0.14833  0.37664  1.0000
  H   H75       1.0  0.06464  0.01191  0.46955  1.0000
  C   C94       1.0  0.47017  0.06850  0.01199  1.0000
  Fe  Fe6       1.0  0.16216  0.01646  0.48214  1.0000
  C   C95       1.0  0.28879  0.00868  0.27419  1.0000
  C   C96       1.0  0.48072  0.01707  0.46859  1.0000
  H   H76       1.0  0.00447  0.02720  0.46657  1.0000
  H   H77       1.0  0.34661  0.02966  0.48392  1.0000
  H   H78       1.0  0.01822  0.42465  0.00713  1.0000
  H   H79       1.0  0.45636  0.34258  0.99469  1.0000
  H   H80       1.0  0.48411  0.16227  0.12789  1.0000
  H   H81       1.0  0.46115  0.48417  0.02576  1.0000
  C   C97       1.0  0.99912  0.41055  0.02408  1.0000
  C   C98       1.0  0.27181  0.02481  0.30055  1.0000
  H   H82       1.0  0.32729  0.01549  0.23381  1.0000
  H   H83       1.0  0.00406  0.35603  0.46053  1.0000
  C   C99       1.0  0.12442  0.19927  0.99023  1.0000
  H   H84       1.0  0.06959  0.24953  0.52122  1.0000
  S   S13       1.0  0.47803  0.00757  0.76726  1.0000
  C   C100      1.0  0.17209  0.08920  0.64688  1.0000
  C   C101      1.0  0.10475  0.09642  0.51586  1.0000
  C   C102      1.0  0.28326  0.36919  0.97535  1.0000
  H   H85       1.0  0.17075  0.14195  0.50251  1.0000
  S   S14       1.0  0.21197  0.46380  0.95744  1.0000
  Fe  Fe7       1.0  0.15412  0.46168  0.96715  1.0000
  S   S15       1.0  0.10896  0.44033  0.93157  1.0000
  C   C103      1.0  0.23625  0.21790  0.87717  1.0000
  H   H86       1.0  0.16678  0.12698  0.56772  1.0000
  Fe  Fe8       1.0  0.43342  0.20308  0.97037  1.0000
  S   S16       1.0  0.44638  0.15410  0.94108  1.0000
  C   C104      1.0  0.43006  0.44328  0.92858  1.0000
  S   S17       1.0  0.44023  0.26103  0.95800  1.0000
  Fe  Fe9       1.0  0.42754  0.03063  0.76810  1.0000
  H   H87       1.0  0.44930  0.05948  0.85598  1.0000
  S   S18       1.0  0.41636  0.08252  0.79260  1.0000
  H   H88       1.0  0.26202  0.06963  0.63871  1.0000
  H   H89       1.0  0.40856  0.00447  0.88081  1.0000
  S   S19       1.0  0.42229  0.02706  0.70997  1.0000
  H   H90       1.0  0.39952  0.14701  0.82163  1.0000
  C   C105      1.0  0.43099  0.03685  0.58717  1.0000
  H   H91       1.0  0.13824  0.26950  0.91799  1.0000
  H   H92       1.0  0.21257  0.07399  0.73005  1.0000
  H   H93       1.0  0.00173  0.39957  0.59800  1.0000
  C   C106      1.0  0.28705  0.24584  0.90651  1.0000
  S   S20       1.0  0.27099  0.01334  0.55634  1.0000
  H   H94       1.0  0.14924  0.13421  0.62863  1.0000
  H   H95       1.0  0.10353  0.30796  0.52617  1.0000
  H   H96       1.0  0.33576  0.03498  0.59073  1.0000
  S   S21       1.0  0.04067  0.17329  0.52620  1.0000
  C   C107      1.0  0.43583  0.13402  0.90021  1.0000
  C   C108      1.0  0.44646  0.10098  0.89340  1.0000
  C   C109      1.0  0.44061  0.08467  0.86085  1.0000
  C   C110      1.0  0.42376  0.10118  0.83462  1.0000
  C   C111      1.0  0.41262  0.13397  0.84163  1.0000
  C   C112      1.0  0.41844  0.15024  0.87420  1.0000
  H   H97       1.0  0.40263  0.35597  0.96572  1.0000
  C   C113      1.0  0.41341  0.37235  0.98673  1.0000
  P   P5        1.0  0.19976  0.02902  0.66946  1.0000
  H   H98       1.0  0.41004  0.17558  0.87895  1.0000
  S   S22       1.0  0.16523  0.99591  0.53639  1.0000
  H   H99       1.0  0.21453  0.03601  0.59575  1.0000
  H   H100      1.0  0.22486  0.20138  0.85655  1.0000
  H   H101      1.0  0.01530  0.43986  0.84529  1.0000
  C   C114      1.0  0.09783  0.20346  0.96681  1.0000
  C   C115      1.0  0.08524  0.46031  0.89893  1.0000
  C   C116      1.0  0.05635  0.44083  0.88342  1.0000
  C   C117      1.0  0.03728  0.45532  0.85699  1.0000
  H   H102      1.0  0.04883  0.41419  0.89166  1.0000
  H   H103      1.0  0.05801  0.45424  0.67989  1.0000
  C   C118      1.0  0.25634  0.01791  0.71069  1.0000
  H   H104      1.0  0.03803  0.39918  0.64941  1.0000
  C   C119      1.0  0.30422  0.06212  0.67229  1.0000
  H   H105      1.0  0.37264  0.40495  0.98543  1.0000
  C   C120      1.0  0.13461  0.25016  0.93846  1.0000
  H   H106      1.0  0.26736  0.38281  0.95828  1.0000
  S   S23       1.0  0.99714  0.26122  0.50209  1.0000
  C   C121      1.0  0.47897  0.42507  0.89757  1.0000
  H   H107      1.0  0.29161  0.46300  0.95808  1.0000
  H   H108      1.0  0.23815  0.00079  0.72599  1.0000
  H   H109      1.0  0.40270  0.43956  0.93500  1.0000
  H   H110      1.0  0.27766  0.27727  0.95031  1.0000
  C   C122      1.0  0.08875  0.25839  0.50171  1.0000
  H   H111      1.0  0.14351  0.00272  0.62259  1.0000
  C   C123      1.0  0.29142  0.99566  0.59263  1.0000
  C   C124      1.0  0.20047  0.05750  0.60325  1.0000
  H   H112      1.0  0.00044  0.32702  0.65798  1.0000
  C   C125      1.0  0.01159  0.48690  0.61542  1.0000
  Fe  Fe10      1.0  0.47064  0.99976  0.70987  1.0000
  C   C126      1.0  0.31599  0.47631  0.96733  1.0000
  C   C127      1.0  0.32364  0.01215  0.60423  1.0000
  H   H113      1.0  0.19976  0.07791  0.55143  1.0000
  C   C128      1.0  0.18773  0.05833  0.73354  1.0000
  C   C129      1.0  0.16374  0.11287  0.62163  1.0000
  C   C130      1.0  0.30550  0.34606  0.96175  1.0000
  C   C131      1.0  0.27233  0.22438  0.88008  1.0000
  C   C132      1.0  0.17487  0.03406  0.70827  1.0000
  H   H114      1.0  0.16388  0.09273  0.67324  1.0000
  C   C133      1.0  0.13631  0.04300  0.76843  1.0000
  C   C134      1.0  0.06322  0.13954  0.50803  1.0000
  H   H115      1.0  0.12148  0.08346  0.53263  1.0000
  H   H116      1.0  0.36468  0.01290  0.64234  1.0000
  C   C135      1.0  0.16573  0.33155  0.95592  1.0000
  C   C136      1.0  0.20936  0.36712  0.90668  1.0000
  H   H117      1.0  0.08240  0.23205  0.92263  1.0000
  C   C137      1.0  0.17367  0.10885  0.58726  1.0000
  H   H118      1.0  0.43636  0.06474  0.59137  1.0000
  H   H119      1.0  0.17455  0.40683  0.90905  1.0000
  S   S24       1.0  0.35086  0.29602  0.96508  1.0000
  C   C138      1.0  0.26952  0.05667  0.66184  1.0000
  C   C139      1.0  0.18031  0.38171  0.91872  1.0000
  H   H120      1.0  0.41253  0.02796  0.94042  1.0000
  C   C140      1.0  0.15867  0.36404  0.94350  1.0000
  C   C141      1.0  0.19454  0.31638  0.94352  1.0000
  P   P6        1.0  0.20243  0.27353  0.95841  1.0000
  C   C142      1.0  0.14234  0.01456  0.71327  1.0000
  H   H121      1.0  0.12147  0.04639  0.79169  1.0000
  H   H122      1.0  0.44929  0.02366  0.63738  1.0000
  C   C143      1.0  0.31506  0.04520  0.70162  1.0000
  C   C144      1.0  0.21489  0.23271  0.90082  1.0000
  H   H123      1.0  0.34214  0.04865  0.70919  1.0000
  C   C145      1.0  0.10804  0.29117  0.50457  1.0000
  H   H124      1.0  0.17873  0.08130  0.78300  1.0000
  C   C146      1.0  0.45175  0.47076  0.94343  1.0000
  C   C147      1.0  0.34020  0.99963  0.63350  1.0000
  C   C148      1.0  0.19029  0.06111  0.63778  1.0000
  H   H125      1.0  0.14869  0.31832  0.97521  1.0000
  H   H126      1.0  0.09814  0.00387  0.74702  1.0000
  H   H127      1.0  0.31504  0.25101  0.90895  1.0000
  H   H128      1.0  0.08747  0.12897  0.55641  1.0000
  C   C149      1.0  0.24522  0.03460  0.68107  1.0000
  C   C150      1.0  0.41715  0.02402  0.55576  1.0000
  H   H129      1.0  0.23926  0.32387  0.90950  1.0000
  Fe  Fe11      1.0  0.99553  0.20218  0.50620  1.0000
  H   H130      1.0  0.41183  0.04198  0.53546  1.0000
  C   C151      1.0  0.16128  0.24651  0.96224  1.0000
  C   C152      1.0  0.26578  0.26071  0.93007  1.0000
  H   H131      1.0  0.28893  0.21282  0.86191  1.0000
  C   C153      1.0  0.21651  0.33457  0.91901  1.0000
  C   C154      1.0  0.32581  0.32735  0.98361  1.0000
  C   C155      1.0  0.00069  0.45583  0.59742  1.0000
  C   C156      1.0  0.01074  0.42424  0.60984  1.0000
  C   C157      1.0  0.03168  0.42386  0.63917  1.0000
  H   H132      1.0  0.29989  0.00925  0.74292  1.0000
  H   H133      1.0  0.13639  0.37566  0.95305  1.0000
  C   C158      1.0  0.15610  0.22058  0.98790  1.0000
  C   C159      1.0  0.99684  0.43574  0.49627  1.0000
  C   C160      1.0  0.10296  0.22885  0.94089  1.0000
  H   H134      1.0  0.18708  0.22746  0.89800  1.0000
  H   H135      1.0  0.32297  0.07876  0.65714  1.0000
  C   C161      1.0  0.41831  0.00154  0.93557  1.0000
  H   H136      1.0  0.45937  0.08800  0.91351  1.0000
  C   C162      1.0  0.44369  0.42027  0.90586  1.0000
  H   H137      1.0  0.13160  0.99594  0.69412  1.0000
  C   C163      1.0  0.29116  0.02298  0.72069  1.0000
  C   C164      1.0  0.08538  0.12230  0.52928  1.0000
  H   H138      1.0  0.30644  0.34205  0.93411  1.0000
  C   C165      1.0  0.43823  0.01365  0.61320  1.0000
  H   H139      1.0  0.22640  0.38116  0.88786  1.0000
  H   H140      1.0  0.42700  0.39850  0.89499  1.0000
  C   C166      1.0  0.48204  0.99608  0.49813  1.0000
  C   C167      1.0  0.19215  0.08124  0.57810  1.0000
  C   C168      1.0  0.04679  0.48963  0.84566  1.0000
  Fe  Fe12      1.0  0.22217  0.99220  0.52584  1.0000
  C   C169      1.0  0.04278  0.45488  0.65648  1.0000
  C   C170      1.0  0.16856  0.06266  0.76354  1.0000
  C   C171      1.0  0.22956  0.25405  0.92768  1.0000
  C   C172      1.0  0.12320  0.01902  0.74328  1.0000
  H   H141      1.0  0.47598  0.20195  0.84086  1.0000
  H   H142      1.0  0.44090  0.48729  0.96209  1.0000
  H   H143      1.0  0.07327  0.18698  0.96870  1.0000
  C   C173      1.0  0.03283  0.48642  0.64454  1.0000
  H   H144      1.0  0.47865  0.08534  0.73319  1.0000
  H   H145      1.0  0.42962  0.99176  0.98844  1.0000
  H   H146      1.0  0.00191  0.46301  0.48950  1.0000
  Fe  Fe13      1.0  0.39072  0.26316  0.98889  1.0000
  H   H147      1.0  0.44914  0.62419  0.06351  1.0000
  Fe  Fe14      1.0  0.40082  0.98058  0.27496  1.0000
  H   H148      1.0  0.10554  0.88042  0.46383  1.0000
  C   C174      1.0  0.40731  0.51233  0.08656  1.0000
  C   C175      1.0  0.28072  0.93658  0.35413  1.0000
  Fe  Fe15      1.0  0.46755  0.76326  0.02963  1.0000
  H   H149      1.0  0.21936  0.55751  0.10042  1.0000
  C   C176      1.0  0.07395  0.62926  0.10601  1.0000
  C   C177      1.0  0.45643  0.94466  0.38591  1.0000
  S   S25       1.0  0.44059  0.94268  0.27987  1.0000
  Fe  Fe16      1.0  0.43066  0.93080  0.22289  1.0000
  S   S26       1.0  0.42272  0.87537  0.20008  1.0000
  H   H150      1.0  0.16652  0.77813  0.01557  1.0000
  C   C178      1.0  0.18859  0.58937  0.07044  1.0000
  C   C179      1.0  0.15520  0.78105  0.45388  1.0000
  H   H151      1.0  0.08348  0.60859  0.99315  1.0000
  C   C180      1.0  0.18863  0.61746  0.04728  1.0000
  C   C181      1.0  0.45798  0.94482  0.03054  1.0000
  H   H152      1.0  0.27619  0.63957  0.04097  1.0000
  C   C182      1.0  0.47022  0.91627  0.37101  1.0000
  C   C183      1.0  0.43792  0.80956  0.12005  1.0000
  C   C184      1.0  0.42433  0.82539  0.14922  1.0000
  C   C185      1.0  0.43908  0.85833  0.16119  1.0000
  C   C186      1.0  0.09059  0.68096  0.47029  1.0000
  H   H153      1.0  0.06475  0.83435  0.43596  1.0000
  H   H154      1.0  0.42662  0.78396  0.11169  1.0000
  H   H155      1.0  0.40247  0.81175  0.16293  1.0000
  C   C187      1.0  0.33339  0.59466  0.02433  1.0000
  C   C188      1.0  0.06048  0.71681  0.41754  1.0000
  H   H156      1.0  0.29255  0.55114  0.02364  1.0000
  H   H157      1.0  0.34505  0.58606  0.04772  1.0000
  C   C189      1.0  0.42390  0.63968  0.10944  1.0000
  C   C190      1.0  0.06263  0.83905  0.46340  1.0000
  S   S27       1.0  0.13702  0.50404  0.09075  1.0000
  C   C191      1.0  0.17557  0.73437  0.04766  1.0000
  H   H158      1.0  0.04904  0.50470  0.18243  1.0000
  H   H159      1.0  0.10270  0.52745  0.15054  1.0000
  S   S28       1.0  0.15040  0.96295  0.45827  1.0000
  S   S29       1.0  0.00958  0.78489  0.46173  1.0000
  C   C192      1.0  0.39427  0.95580  0.44490  1.0000
  H   H160      1.0  0.40114  0.52601  0.00307  1.0000
  C   C193      1.0  0.46073  0.67270  0.15126  1.0000
  S   S30       1.0  0.41401  0.75545  0.00687  1.0000
  C   C194      1.0  0.42797  0.65707  0.14109  1.0000
  H   H161      1.0  0.45740  0.90300  0.34905  1.0000
  S   S31       1.0  0.23263  0.93850  0.40654  1.0000
  C   C195      1.0  0.47012  0.98071  0.09335  1.0000
  H   H162      1.0  0.04047  0.58516  0.12615  1.0000
  H   H163      1.0  0.18021  0.98500  0.39165  1.0000
  H   H164      1.0  0.38362  0.83442  0.07043  1.0000
  C   C196      1.0  0.25166  0.62590  0.04961  1.0000
  H   H165      1.0  0.40562  0.65874  0.15753  1.0000
  H   H166      1.0  0.35026  0.80228  0.02337  1.0000
  C   C197      1.0  0.09904  0.58123  0.06116  1.0000
  C   C198      1.0  0.14012  0.78173  0.48694  1.0000
  H   H167      1.0  0.10899  0.56203  0.04454  1.0000
  C   C199      1.0  0.22052  0.63533  0.03655  1.0000
  C   C200      1.0  0.09399  0.71766  0.47061  1.0000
  H   H168      1.0  0.28346  0.98073  0.27030  1.0000
  C   C201      1.0  0.45266  0.63734  0.08823  1.0000
  H   H169      1.0  0.42618  0.88467  0.05705  1.0000
  C   C202      1.0  0.16268  0.74996  0.01851  1.0000
  C   C203      1.0  0.30358  0.57482  0.01077  1.0000
  S   S32       1.0  0.38415  0.65083  0.02756  1.0000
  C   C204      1.0  0.21978  0.57966  0.08305  1.0000
  S   S33       1.0  0.38746  0.96526  0.21965  1.0000
  C   C205      1.0  0.46444  0.54522  0.08918  1.0000
  C   C206      1.0  0.43024  0.53911  0.10105  1.0000
  C   C207      1.0  0.47557  0.52494  0.06241  1.0000
  H   H170      1.0  0.46344  0.68560  0.17611  1.0000
  C   C208      1.0  0.17097  0.69802  0.05132  1.0000
  C   C209      1.0  0.41605  0.88370  0.00168  1.0000
  S   S34       1.0  0.47221  0.97214  0.20480  1.0000
  C   C210      1.0  0.07285  0.57018  0.08490  1.0000
  C   C211      1.0  0.41103  0.87215  0.03609  1.0000
  C   C212      1.0  0.47307  0.96237  0.41412  1.0000
  C   C213      1.0  0.36002  0.94870  0.45658  1.0000
  C   C214      1.0  0.46690  0.82626  0.10270  1.0000
  C   C215      1.0  0.14507  0.72921  0.99305  1.0000
  H   H171      1.0  0.15218  0.75737  0.43860  1.0000
  C   C216      1.0  0.11327  0.61642  0.05994  1.0000
  C   C217      1.0  0.25131  0.59805  0.07282  1.0000
  C   C218      1.0  0.38699  0.84329  0.04390  1.0000
  H   H172      1.0  0.22145  0.65630  0.01779  1.0000
  H   H173      1.0  0.48224  0.56583  0.10053  1.0000
  Fe  Fe17      1.0  0.41951  0.69769  0.00566  1.0000
  H   H174      1.0  0.43306  0.95320  0.37503  1.0000
  H   H175      1.0  0.04883  0.73080  0.39723  1.0000
  H   H176      1.0  0.34654  0.92251  0.45468  1.0000
  P   P7        1.0  0.14845  0.62996  0.03035  1.0000
  C   C219      1.0  0.48544  0.65316  0.09819  1.0000
  H   H177      1.0  0.27551  0.59027  0.08224  1.0000
  H   H178      1.0  0.40698  0.93454  0.43472  1.0000
  H   H179      1.0  0.04303  0.66596  0.39672  1.0000
  C   C220      1.0  0.06033  0.59408  0.10736  1.0000
  H   H180      1.0  0.99525  0.88060  0.44820  1.0000
  H   H181      1.0  0.16467  0.57468  0.07884  1.0000
  H   H182      1.0  0.46741  0.87536  0.25815  1.0000
  H   H183      1.0  0.00650  0.77406  0.38426  1.0000
  C   C221      1.0  0.08753  0.50372  0.14188  1.0000
  H   H184      1.0  0.26404  0.91390  0.34525  1.0000
  C   C222      1.0  0.43061  0.95784  0.04828  1.0000
  C   C223      1.0  0.15345  0.67695  0.02575  1.0000
  H   H185      1.0  0.31722  0.93512  0.31178  1.0000
  C   C224      1.0  0.05701  0.49097  0.15996  1.0000
  C   C225      1.0  0.31091  0.94853  0.33509  1.0000
  H   H186      1.0  0.42144  0.55522  0.12144  1.0000
  H   H187      1.0  0.06948  0.63411  0.44360  1.0000
  H   H188      1.0  0.11074  0.66770  0.08226  1.0000
  C   C226      1.0  0.34287  0.97543  0.47035  1.0000
  H   H189      1.0  0.39839  0.62839  0.10098  1.0000
  C   C227      1.0  0.46738  0.87557  0.14311  1.0000
  H   H190      1.0  0.06440  0.64776  0.12365  1.0000
  C   C228      1.0  0.99690  0.50783  0.39828  1.0000
  C   C229      1.0  0.99679  0.50954  0.01576  1.0000
  C   C230      1.0  0.34798  0.62568  0.00804  1.0000
  H   H191      1.0  0.06301  0.54281  0.08660  1.0000
  C   C231      1.0  0.08586  0.86525  0.47917  1.0000
  H   H192      1.0  0.18940  0.75044  0.06733  1.0000
  C   C232      1.0  0.46727  0.89328  0.48500  1.0000
  H   H193      1.0  0.18125  0.68629  0.07400  1.0000
  Fe  Fe18      1.0  0.20839  0.96220  0.45370  1.0000
  H   H194      1.0  0.46284  0.88511  0.45842  1.0000
  C   C233      1.0  0.27172  0.95394  0.38427  1.0000
  C   C234      1.0  0.05727  0.68033  0.41729  1.0000
  C   C235      1.0  0.03698  0.81874  0.48284  1.0000
  C   C236      1.0  0.10035  0.64044  0.08245  1.0000
  P   P8        1.0  0.44918  0.91943  0.99148  1.0000
  H   H195      1.0  0.40439  0.95356  0.03828  1.0000
  C   C237      1.0  0.43677  0.97595  0.07937  1.0000
  C   C238      1.0  0.48129  0.85950  0.11425  1.0000
  S   S35       1.0  0.47123  0.70536  0.03288  1.0000
  C   C239      1.0  0.41144  0.98997  0.44637  1.0000
  H   H196      1.0  0.18541  0.81047  0.41447  1.0000
  H   H197      1.0  0.00743  0.61103  0.36097  1.0000
  C   C240      1.0  0.07222  0.66241  0.44372  1.0000
  H   H198      1.0  0.19382  0.86501  0.44892  1.0000
  C   C241      1.0  0.45247  0.49875  0.04729  1.0000
  C   C242      1.0  0.02439  0.50119  0.03621  1.0000
  C   C243      1.0  0.07839  0.73540  0.44426  1.0000
  C   C244      1.0  0.17435  0.81097  0.44019  1.0000
  H   H199      1.0  0.07974  0.76366  0.44455  1.0000
  H   H200      1.0  0.48094  0.86019  0.01891  1.0000
  C   C245      1.0  0.17923  0.84166  0.45961  1.0000
  H   H201      1.0  0.38085  0.50820  0.09591  1.0000
  H   H202      1.0  0.41556  0.98591  0.09305  1.0000
  Fe  Fe19      1.0  0.47905  0.98679  0.26117  1.0000
  H   H203      1.0  0.48287  0.84496  0.31127  1.0000
  C   C246      1.0  0.33242  0.97818  0.34590  1.0000
  H   H204      1.0  0.47900  0.90093  0.15181  1.0000
  C   C247      1.0  0.36823  0.82520  0.01744  1.0000
  H   H205      1.0  0.31621  0.96996  0.47911  1.0000
  H   H206      1.0  0.48272  0.79683  0.18130  1.0000
  C   C248      1.0  0.48545  0.60038  0.99863  1.0000
  H   H207      1.0  0.00483  0.53001  0.44904  1.0000
  C   C249      1.0  0.29361  0.98320  0.39542  1.0000
  H   H208      1.0  0.02231  0.51821  0.38874  1.0000
  C   C250      1.0  0.04900  0.95826  0.48364  1.0000
  C   C251      1.0  0.05665  0.49818  0.02117  1.0000
  H   H209      1.0  0.02063  0.49624  0.06367  1.0000
  H   H210      1.0  0.07809  0.49161  0.03687  1.0000
  S   S36       1.0  0.15840  0.51460  0.99207  1.0000
  C   C252      1.0  0.37781  0.51142  0.99299  1.0000
  C   C253      1.0  0.14041  0.69282  0.99661  1.0000
  H   H211      1.0  0.48603  0.74596  0.14358  1.0000
  C   C254      1.0  0.98695  0.51458  0.43210  1.0000
  S   S37       1.0  0.22237  0.49127  0.03831  1.0000
  C   C255      1.0  0.41848  0.49146  0.06001  1.0000
  C   C256      1.0  0.98689  0.94129  0.48939  1.0000
  H   H212      1.0  0.07532  0.95163  0.48547  1.0000
  C   C257      1.0  0.43315  0.93355  0.92260  1.0000
  S   S38       1.0  0.39534  0.97888  0.77721  1.0000
  C   C258      1.0  0.41683  0.96453  0.57688  1.0000
  H   H213      1.0  0.15161  0.65283  0.58566  1.0000
  C   C259      1.0  0.45598  0.60598  0.97980  1.0000
  C   C260      1.0  0.99597  0.88878  0.59450  1.0000
  H   H214      1.0  0.07144  0.58387  0.93494  1.0000
  H   H215      1.0  0.20822  0.90293  0.65130  1.0000
  H   H216      1.0  0.45012  0.86201  0.59318  1.0000
  S   S39       1.0  0.44171  0.94595  0.71605  1.0000
  Fe  Fe20      1.0  0.44576  0.95512  0.77400  1.0000
  C   C261      1.0  0.29279  0.95360  0.63962  1.0000
  H   H217      1.0  0.28065  0.93085  0.65325  1.0000
  C   C262      1.0  0.08425  0.87095  0.51484  1.0000
  C   C263      1.0  0.40948  0.84122  0.86381  1.0000
  C   C264      1.0  0.42021  0.86979  0.84177  1.0000
  S   S40       1.0  0.34279  0.95487  0.69038  1.0000
  H   H218      1.0  0.38286  0.82924  0.86290  1.0000
  H   H219      1.0  0.40187  0.87954  0.82427  1.0000
  C   C265      1.0  0.41043  0.98799  0.55051  1.0000
  C   C266      1.0  0.32446  0.97068  0.65190  1.0000
  C   C267      1.0  0.30282  0.61659  0.96424  1.0000
  H   H220      1.0  0.01460  0.81049  0.53348  1.0000
  H   H221      1.0  0.36898  0.91931  0.63151  1.0000
  C   C268      1.0  0.13675  0.69170  0.55031  1.0000
  H   H222      1.0  0.34368  0.66003  0.96478  1.0000
  H   H223      1.0  0.29100  0.62536  0.94099  1.0000
  C   C269      1.0  0.30854  0.91960  0.53841  1.0000
  H   H224      1.0  0.48426  0.92482  0.57931  1.0000
  H   H225      1.0  0.02630  0.90694  0.49824  1.0000
  H   H226      1.0  0.45054  0.83094  0.64875  1.0000
  H   H227      1.0  0.40221  0.87121  0.94834  1.0000
  H   H228      1.0  0.12646  0.76991  0.57513  1.0000
  C   C270      1.0  0.00125  0.51476  0.97995  1.0000
  H   H229      1.0  0.10987  0.68802  0.55858  1.0000
  C   C271      1.0  0.43284  0.82769  0.88667  1.0000
  S   S41       1.0  0.44306  0.69989  0.95251  1.0000
  C   C272      1.0  0.09453  0.49470  0.88787  1.0000
  H   H230      1.0  0.00029  0.73738  0.55771  1.0000
  H   H231      1.0  0.42285  0.58896  0.93720  1.0000
  C   C273      1.0  0.41597  0.98834  0.90195  1.0000
  H   H232      1.0  0.36069  0.82058  0.96236  1.0000
  C   C274      1.0  0.02112  0.93293  0.49084  1.0000
  H   H233      1.0  0.03124  0.57844  0.85310  1.0000
  H   H234      1.0  0.13378  0.81452  0.53155  1.0000
  C   C275      1.0  0.47794  0.87217  0.86540  1.0000
  H   H235      1.0  0.31965  0.83864  0.50891  1.0000
  C   C276      1.0  0.38695  0.88189  0.66626  1.0000
  C   C277      1.0  0.12527  0.58251  0.92229  1.0000
  C   C278      1.0  0.46291  0.55528  0.94474  1.0000
  C   C279      1.0  0.43533  0.94637  0.95666  1.0000
  C   C280      1.0  0.10491  0.60309  0.97692  1.0000
  Fe  Fe21      1.0  0.15546  0.94228  0.51187  1.0000
  C   C281      1.0  0.15948  0.58898  0.93388  1.0000
  H   H236      1.0  0.31189  0.52299  0.93764  1.0000
  C   C282      1.0  0.20437  0.95759  0.65974  1.0000
  C   C283      1.0  0.32750  0.51001  0.95572  1.0000
  P   P9        1.0  0.40967  0.91820  0.56863  1.0000
  C   C284      1.0  0.98936  0.62225  0.91351  1.0000
  C   C285      1.0  0.14531  0.81268  0.50630  1.0000
  S   S42       1.0  0.24920  0.56308  0.96354  1.0000
  Fe  Fe22      1.0  0.39355  0.97400  0.71871  1.0000
  C   C286      1.0  0.09891  0.76357  0.57068  1.0000
  H   H237      1.0  0.23318  0.70311  0.52150  1.0000
  S   S43       1.0  0.46995  0.92140  0.81478  1.0000
  H   H238      1.0  0.00632  0.52860  0.88790  1.0000
  H   H239      1.0  0.22663  0.96052  0.67665  1.0000
  C   C287      1.0  0.01566  0.58298  0.87562  1.0000
  H   H240      1.0  0.25201  0.95259  0.60123  1.0000
  C   C288      1.0  0.43275  0.85023  0.64483  1.0000
  H   H241      1.0  0.03952  0.56346  0.51453  1.0000
  C   C289      1.0  0.36711  0.90632  0.55028  1.0000
  H   H242      1.0  0.28895  0.93742  0.54016  1.0000
  H   H243      1.0  0.46841  0.97001  0.49862  1.0000
  H   H244      1.0  0.04040  0.73195  0.50934  1.0000
  C   C290      1.0  0.27642  0.96591  0.61017  1.0000
  H   H245      1.0  0.34625  0.95376  0.56594  1.0000
  C   C291      1.0  0.00954  0.61681  0.88449  1.0000
  H   H246      1.0  0.40021  0.97829  0.52591  1.0000
  C   C292      1.0  0.37387  0.83567  0.98311  1.0000
  H   H247      1.0  0.37761  0.85471  0.53465  1.0000
  S   S44       1.0  0.02334  0.50969  0.81280  1.0000
  H   H248      1.0  0.98978  0.59858  0.51556  1.0000
  C   C293      1.0  0.04020  0.75803  0.59302  1.0000
  H   H249      1.0  0.36665  0.55408  0.96022  1.0000
  C   C294      1.0  0.34137  0.92899  0.55269  1.0000
  H   H250      1.0  0.43779  0.96022  0.62857  1.0000
  H   H251      1.0  0.41038  0.84357  0.69586  1.0000
  C   C295      1.0  0.16652  0.60282  0.96684  1.0000
  C   C296      1.0  0.32587  0.86400  0.52085  1.0000
  H   H252      1.0  0.98908  0.84170  0.62508  1.0000
  C   C297      1.0  0.00144  0.55460  0.89554  1.0000
  C   C298      1.0  0.13931  0.60998  0.98864  1.0000
  C   C299      1.0  0.46715  0.84367  0.88757  1.0000
  H   H253      1.0  0.08575  0.49939  0.97365  1.0000
  C   C300      1.0  0.05082  0.74180  0.53381  1.0000
  H   H254      1.0  0.43963  0.90765  0.91669  1.0000
  C   C301      1.0  0.35873  0.87329  0.53522  1.0000
  C   C302      1.0  0.33277  0.63629  0.97764  1.0000
  C   C303      1.0  0.14781  0.71621  0.52447  1.0000
  C   C304      1.0  0.08664  0.75090  0.53837  1.0000
  H   H255      1.0  0.15783  0.89490  0.61117  1.0000
  H   H256      1.0  0.48545  0.83380  0.90505  1.0000
  C   C305      1.0  0.09796  0.58931  0.94387  1.0000
  H   H257      1.0  0.12694  0.67725  0.97645  1.0000
  H   H258      1.0  0.18074  0.58299  0.91753  1.0000
  C   C306      1.0  0.18275  0.72010  0.51411  1.0000
  C   C307      1.0  0.20624  0.69993  0.52952  1.0000
  C   C308      1.0  0.19504  0.67573  0.55530  1.0000
  C   C309      1.0  0.16031  0.67160  0.56566  1.0000
  H   H259      1.0  0.19204  0.73867  0.49424  1.0000
  H   H260      1.0  0.08534  0.77739  0.62252  1.0000
  C   C310      1.0  0.19395  0.92472  0.64536  1.0000
  H   H261      1.0  0.02037  0.63875  0.86879  1.0000
  H   H262      1.0  0.19326  0.60761  0.97513  1.0000
  H   H263      1.0  0.27537  0.88017  0.51113  1.0000
  H   H264      1.0  0.12000  0.57211  0.89660  1.0000
  C   C311      1.0  0.03366  0.51100  0.96510  1.0000
  H   H265      1.0  0.16851  0.86619  0.50771  1.0000
  C   C312      1.0  0.28778  0.58599  0.98090  1.0000
  C   C313      1.0  0.18663  0.98622  0.65148  1.0000
  H   H266      1.0  0.21329  0.66018  0.56727  1.0000
  H   H267      1.0  0.04046  0.51031  0.65871  1.0000
  Fe  Fe23      1.0  0.44146  0.75852  0.95506  1.0000
  S   S45       1.0  0.41755  0.79089  0.91309  1.0000
  C   C314      1.0  0.30087  0.88729  0.52220  1.0000
  C   C315      1.0  0.16500  0.84234  0.49274  1.0000
  C   C316      1.0  0.45465  0.88531  0.84216  1.0000
  C   C317      1.0  0.47914  0.91559  0.55312  1.0000
  C   C318      1.0  0.41006  0.85720  0.67133  1.0000
  H   H268      1.0  0.05659  0.85520  0.56174  1.0000
  H   H269      1.0  0.36933  0.88735  0.68681  1.0000
  H   H270      1.0  0.42178  0.94425  0.86932  1.0000
  C   C319      1.0  0.05831  0.85096  0.53420  1.0000
  C   C320      1.0  0.06115  0.50289  0.98562  1.0000
  S   S46       1.0  0.11444  0.90196  0.53653  1.0000
  C   C321      1.0  0.03451  0.82539  0.51825  1.0000
  C   C322      1.0  0.14749  0.94834  0.61505  1.0000
  C   C323      1.0  0.07573  0.76749  0.59774  1.0000
  C   C324      1.0  0.42333  0.95437  0.89550  1.0000
  C   C325      1.0  0.38690  0.90008  0.63496  1.0000
  C   C326      1.0  0.41010  0.89386  0.60851  1.0000
  H   H271      1.0  0.45467  0.53920  0.92267  1.0000
  C   C327      1.0  0.42794  0.98072  0.96282  1.0000
  P   P10       1.0  0.11712  0.74213  0.50495  1.0000
  C   C328      1.0  0.43263  0.86826  0.61339  1.0000
  C   C329      1.0  0.44498  0.90960  0.54069  1.0000
  C   C330      1.0  0.44492  0.58366  0.95263  1.0000
  C   C331      1.0  0.00952  0.51654  0.53326  1.0000
  H   H272      1.0  0.02216  0.76040  0.61406  1.0000
  C   C332      1.0  0.39770  0.86467  0.97522  1.0000
  H   H273      1.0  0.44233  0.62825  0.98559  1.0000
  C   C333      1.0  0.07539  0.50926  0.86154  1.0000
  H   H274      1.0  0.08311  0.53573  0.85295  1.0000
  H   H275      1.0  0.11690  0.50973  0.89924  1.0000
  Fe  Fe24      1.0  0.21639  0.51516  0.98613  1.0000
  H   H276      1.0  0.03166  0.50184  0.53383  1.0000
  H   H277      1.0  0.03769  0.51321  0.93747  1.0000
  C   C334      1.0  0.01415  0.55150  0.52261  1.0000
  C   C335      1.0  0.35846  0.52749  0.96844  1.0000
  C   C336      1.0  0.43928  0.89919  0.50616  1.0000
  H   H278      1.0  0.00293  0.51149  0.60781  1.0000
  H   H279      1.0  0.12558  0.94481  0.59754  1.0000
  C   C337      1.0  0.15789  0.98122  0.62923  1.0000
  C   C338      1.0  0.02782  0.74504  0.56117  1.0000
  C   C339      1.0  0.43142  0.97760  0.60811  1.0000
  S   S47       1.0  0.21266  0.93712  0.50593  1.0000
  H   H280      1.0  0.13527  0.74130  0.97034  1.0000
  H   H281      1.0  0.99764  0.93200  0.55944  1.0000
  H   H282      1.0  0.01461  0.90243  0.61204  1.0000
  H   H283      1.0  0.41351  0.89617  0.49525  1.0000
  C   C340      1.0  0.16565  0.92016  0.62285  1.0000
  H   H284      1.0  0.10183  0.66655  0.49053  1.0000
  H   H285      1.0  0.93551  0.41836  0.44590  1.0000
  C   C341      1.0  0.82926  0.46417  0.15221  1.0000
  C   C342      1.0  0.49253  0.21661  0.11453  1.0000
  H   H286      1.0  0.71776  0.11316  0.40904  1.0000
  C   C343      1.0  0.87144  0.25191  0.37897  1.0000
  Fe  Fe25      1.0  0.92535  0.43691  0.28088  1.0000
  H   H287      1.0  0.83589  0.31403  0.41298  1.0000
  C   C344      1.0  0.85098  0.37101  0.08113  1.0000
  C   C345      1.0  0.50087  0.18231  0.11434  1.0000
  S   S48       1.0  0.91536  0.43526  0.22317  1.0000
  C   C346      1.0  0.80515  0.33813  0.37590  1.0000
  P   P11       1.0  0.88572  0.47008  0.43540  1.0000
  C   C347      1.0  0.81386  0.25232  0.46109  1.0000
  C   C348      1.0  0.51298  0.24266  0.09621  1.0000
  C   C349      1.0  0.82030  0.47757  0.33661  1.0000
  C   C350      1.0  0.75666  0.18992  0.44149  1.0000
  H   H288      1.0  0.91760  0.31033  0.41465  1.0000
  H   H289      1.0  0.92743  0.35687  0.46516  1.0000
  H   H290      1.0  0.80609  0.42549  0.11621  1.0000
  C   C351      1.0  0.84902  0.22830  0.39874  1.0000
  H   H291      1.0  0.84446  0.44639  0.16524  1.0000
  C   C352      1.0  0.83900  0.12096  0.47803  1.0000
  H   H292      1.0  0.82022  0.36355  0.37820  1.0000
  H   H293      1.0  0.84506  0.36786  0.05389  1.0000
  Fe  Fe26      1.0  0.72457  0.48339  0.03410  1.0000
  C   C353      1.0  0.83887  0.35290  0.14036  1.0000
  C   C354      1.0  0.75343  0.15018  0.38088  1.0000
  C   C355      1.0  0.93060  0.32481  0.39345  1.0000
  C   C356      1.0  0.54269  0.34081  0.00742  1.0000
  H   H294      1.0  0.78566  0.04662  0.45665  1.0000
  H   H295      1.0  0.98141  0.48324  0.34997  1.0000
  C   C357      1.0  0.49830  0.05107  0.46868  1.0000
  C   C358      1.0  0.83515  0.44713  0.34402  1.0000
  C   C359      1.0  0.95031  0.37464  0.06854  1.0000
  S   S49       1.0  0.97065  0.19314  0.45421  1.0000
  C   C360      1.0  0.85374  0.44454  0.37464  1.0000
  S   S50       1.0  0.91591  0.24729  0.47566  1.0000
  C   C361      1.0  0.77509  0.18183  0.38243  1.0000
  C   C362      1.0  0.89008  0.18552  0.39297  1.0000
  H   H296      1.0  0.49737  0.06662  0.12524  1.0000
  H   H297      1.0  0.93221  0.36069  0.08644  1.0000
  C   C363      1.0  0.91236  0.20936  0.37391  1.0000
  H   H298      1.0  0.62828  0.13290  0.00345  1.0000
  H   H299      1.0  0.61545  0.01106  0.38210  1.0000
  C   C364      1.0  0.79369  0.07181  0.46820  1.0000
  C   C365      1.0  0.94239  0.40509  0.05177  1.0000
  Fe  Fe27      1.0  0.89932  0.48920  0.22787  1.0000
  C   C366      1.0  0.92977  0.48346  0.42137  1.0000
  C   C367      1.0  0.82800  0.08794  0.46370  1.0000
  S   S51       1.0  0.90553  0.39578  0.32174  1.0000
  C   C368      1.0  0.83153  0.34963  0.10507  1.0000
  H   H300      1.0  0.56920  0.13638  0.02572  1.0000
  C   C369      1.0  0.54061  0.44809  0.03267  1.0000
  H   H301      1.0  0.49151  0.04501  0.18495  1.0000
  H   H302      1.0  0.87169  0.37983  0.17906  1.0000
  C   C370      1.0  0.57641  0.00939  0.34186  1.0000
  C   C371      1.0  0.91331  0.34891  0.37446  1.0000
  H   H303      1.0  0.84615  0.07477  0.44879  1.0000
  S   S52       1.0  0.51507  0.30591  0.02682  1.0000
  C   C372      1.0  0.88092  0.42499  0.44947  1.0000
  H   H304      1.0  0.82363  0.33654  0.15894  1.0000
  S   S53       1.0  0.88238  0.14034  0.46989  1.0000
  C   C373      1.0  0.97378  0.48817  0.37631  1.0000
  C   C374      1.0  0.54197  0.23449  0.07787  1.0000
  C   C375      1.0  0.55050  0.20022  0.07770  1.0000
  C   C376      1.0  0.52998  0.17384  0.09601  1.0000
  C   C377      1.0  0.98067  0.33785  0.35657  1.0000
  P   P12       1.0  0.53873  0.12884  0.09451  1.0000
  C   C378      1.0  0.58225  0.12606  0.07891  1.0000
  C   C379      1.0  0.53346  0.11209  0.13813  1.0000
  C   C380      1.0  0.54643  0.11868  0.19951  1.0000
  H   H305      1.0  0.96517  0.45286  0.09999  1.0000
  C   C381      1.0  0.85859  0.19489  0.40533  1.0000
  C   C382      1.0  0.51206  0.08101  0.14540  1.0000
  C   C383      1.0  0.60894  0.11868  0.10129  1.0000
  H   H306      1.0  0.56584  0.15583  0.16064  1.0000
  H   H307      1.0  0.79493  0.44651  0.00236  1.0000
  H   H308      1.0  0.80676  0.47991  0.31237  1.0000
  C   C384      1.0  0.94679  0.47195  0.10000  1.0000
  H   H309      1.0  0.79107  0.19021  0.36027  1.0000
  C   C385      1.0  0.73365  0.13827  0.40967  1.0000
  H   H310      1.0  0.86519  0.27772  0.37285  1.0000
  H   H311      1.0  0.81791  0.36046  0.47431  1.0000
  S   S54       1.0  0.52958  0.00851  0.28812  1.0000
  C   C386      1.0  0.64236  0.11667  0.08845  1.0000
  C   C387      1.0  0.92951  0.36757  0.34632  1.0000
  H   H312      1.0  0.88712  0.35291  0.38142  1.0000
  H   H313      1.0  0.57279  0.19463  0.06291  1.0000
  C   C388      1.0  0.52569  0.08732  0.20643  1.0000
  H   H314      1.0  0.84502  0.21101  0.47346  1.0000
  C   C389      1.0  0.79551  0.27658  0.39170  1.0000
  H   H315      1.0  0.72021  0.14848  0.46228  1.0000
  Fe  Fe28      1.0  0.70225  0.01363  0.48534  1.0000
  H   H316      1.0  0.55725  0.25474  0.06308  1.0000
  H   H317      1.0  0.52254  0.07762  0.23276  1.0000
  C   C390      1.0  0.52397  0.46137  0.00437  1.0000
  C   C391      1.0  0.98242  0.36238  0.06310  1.0000
  C   C392      1.0  0.51456  0.06977  0.05611  1.0000
  Fe  Fe29      1.0  0.96858  0.25154  0.45173  1.0000
  C   C393      1.0  0.80742  0.45243  0.12437  1.0000
  C   C394      1.0  0.84215  0.43665  0.02761  1.0000
  H   H318      1.0  0.81056  0.33070  0.09625  1.0000
  C   C395      1.0  0.91482  0.46555  0.08267  1.0000
  C   C396      1.0  0.88517  0.39902  0.12790  1.0000
  H   H319      1.0  0.96156  0.44658  0.01705  1.0000
  H   H320      1.0  0.83354  0.42600  0.32538  1.0000
  H   H321      1.0  0.75264  0.13438  0.35770  1.0000
  P   P13       1.0  0.90291  0.42387  0.06163  1.0000
  H   H322      1.0  0.84191  0.17600  0.42038  1.0000
  C   C397      1.0  0.86588  0.37735  0.15171  1.0000
  C   C398      1.0  0.78692  0.47504  0.10739  1.0000
  C   C399      1.0  0.55009  0.13119  0.16556  1.0000
  H   H323      1.0  0.93709  0.20239  0.36503  1.0000
  C   C400      1.0  0.87659  0.42938  0.02360  1.0000
  C   C401      1.0  0.77712  0.20181  0.41287  1.0000
  S   S55       1.0  0.75896  0.45819  0.07317  1.0000
  H   H324      1.0  0.92028  0.26093  0.35188  1.0000
  P   P14       1.0  0.80856  0.24020  0.41607  1.0000
  H   H325      1.0  0.66291  0.11126  0.10588  1.0000
  C   C402      1.0  0.76961  0.08877  0.48672  1.0000
  H   H326      1.0  0.57791  0.03751  0.33978  1.0000
  C   C403      1.0  0.56835  0.46825  0.04858  1.0000
  C   C404      1.0  0.75847  0.30032  0.34928  1.0000
  C   C405      1.0  0.77743  0.33329  0.35276  1.0000
  C   C406      1.0  0.90974  0.40635  0.45246  1.0000
  H   H327      1.0  0.55011  0.01473  0.21396  1.0000
  C   C407      1.0  0.90289  0.24239  0.36664  1.0000
  H   H328      1.0  0.53285  0.42165  0.04152  1.0000
  S   S56       1.0  0.90405  0.48876  0.28612  1.0000
  C   C408      1.0  0.96354  0.36225  0.33784  1.0000
  C   C409      1.0  0.96424  0.31867  0.38425  1.0000
  C   C410      1.0  0.87741  0.39648  0.09245  1.0000
  H   H329      1.0  0.61560  0.39638  0.02756  1.0000
  H   H330      1.0  0.55936  0.13348  0.22054  1.0000
  Fe  Fe30      1.0  0.96993  0.46279  0.21757  1.0000
  C   C411      1.0  0.58944  0.13077  0.04348  1.0000
  H   H331      1.0  0.73701  0.29661  0.33127  1.0000
  H   H332      1.0  0.77083  0.35505  0.33730  1.0000
  H   H333      1.0  0.58185  0.45758  0.06990  1.0000
  H   H334      1.0  0.50590  0.26905  0.09549  1.0000
  H   H335      1.0  0.67533  0.12050  0.04338  1.0000
  H   H336      1.0  0.83092  0.43872  0.05306  1.0000
  H   H337      1.0  0.90596  0.41783  0.13735  1.0000
  C   C412      1.0  0.76746  0.27201  0.36865  1.0000
  H   H338      1.0  0.89744  0.15988  0.39883  1.0000
  H   H339      1.0  0.60426  0.11441  0.12858  1.0000
  C   C413      1.0  0.96711  0.42291  0.02966  1.0000
  H   H340      1.0  0.51459  0.03102  0.39076  1.0000
  C   C414      1.0  0.62288  0.12879  0.03075  1.0000
  C   C415      1.0  0.84771  0.40801  0.45693  1.0000
  H   H341      1.0  0.75259  0.24669  0.36535  1.0000
  H   H342      1.0  0.57469  0.34855  0.05293  1.0000
  C   C416      1.0  0.85800  0.47254  0.39807  1.0000
  C   C417      1.0  0.57067  0.35724  0.02679  1.0000
  C   C418      1.0  0.64936  0.12182  0.05324  1.0000
  C   C419      1.0  0.51025  0.10461  0.06384  1.0000
  C   C420      1.0  0.59394  0.38442  0.01250  1.0000
  H   H343      1.0  0.53363  0.05669  0.06983  1.0000
  C   C421      1.0  0.50841  0.06871  0.17942  1.0000
  H   H344      1.0  0.49737  0.06810  0.44654  1.0000
  S   S57       1.0  0.66656  0.48571  0.03590  1.0000
  C   C422      1.0  0.81400  0.30999  0.39549  1.0000
  H   H345      1.0  0.51912  0.06830  0.33878  1.0000
  C   C423      1.0  0.73502  0.15829  0.43978  1.0000
  H   H346      1.0  0.49766  0.02488  0.02455  1.0000
  C   C424      1.0  0.87241  0.35508  0.47178  1.0000
  H   H347      1.0  0.86619  0.42122  0.37916  1.0000
  C   C425      1.0  0.90535  0.37150  0.46347  1.0000
  C   C426      1.0  0.79741  0.27982  0.47493  1.0000
  H   H348      1.0  0.78085  0.29394  0.45904  1.0000
  C   C427      1.0  0.88928  0.42496  0.98996  1.0000
  H   H349      1.0  0.97639  0.37630  0.31629  1.0000
  C   C428      1.0  0.56664  0.99996  0.16333  1.0000
  S   S58       1.0  0.64411  0.99997  0.47844  1.0000
  C   C429      1.0  0.83314  0.23311  0.48309  1.0000
  H   H350      1.0  0.86575  0.48589  0.07352  1.0000
  C   C430      1.0  0.82136  0.44066  0.99877  1.0000
  H   H351      1.0  0.82509  0.42178  0.45410  1.0000
  C   C431      1.0  0.49442  0.05175  0.03037  1.0000
  C   C432      1.0  0.59782  0.99446  0.36588  1.0000
  H   H352      1.0  0.56206  0.02445  0.15141  1.0000
  H   H353      1.0  0.75806  0.20428  0.46555  1.0000
  Fe  Fe31      1.0  0.91957  0.18961  0.48307  1.0000
  C   C433      1.0  0.49141  0.04045  0.38054  1.0000
  H   H354      1.0  0.50312  0.44479  0.99209  1.0000
  S   S59       1.0  0.98082  0.46050  0.27504  1.0000
  C   C434      1.0  0.84353  0.37329  0.46832  1.0000
  C   C435      1.0  0.49411  0.06162  0.35106  1.0000
  C   C436      1.0  0.55983  0.99451  0.19852  1.0000
  C   C437      1.0  0.94039  0.47596  0.38771  1.0000
  H   H355      1.0  0.92302  0.46118  0.36984  1.0000
  H   H356      1.0  0.86944  0.32813  0.48061  1.0000
  S   S60       1.0  0.98632  0.28643  0.40531  1.0000
  C   C438      1.0  0.89103  0.49023  0.08535  1.0000
  H   H357      1.0  0.93591  0.40671  0.86157  1.0000
  S   S61       1.0  0.95213  0.43024  0.78382  1.0000
  Fe  Fe32      1.0  0.95327  0.42706  0.72529  1.0000
  C   C439      1.0  0.80437  0.44944  0.86072  1.0000
  S   S62       1.0  0.94450  0.19699  0.53542  1.0000
  H   H358      1.0  0.51644  0.34020  0.95844  1.0000
  C   C440      1.0  0.58953  0.39557  0.97853  1.0000
  C   C441      1.0  0.51908  0.04213  0.52677  1.0000
  C   C442      1.0  0.93087  0.46093  0.87058  1.0000
  H   H359      1.0  0.72296  0.09111  0.56213  1.0000
  C   C443      1.0  0.98281  0.36444  0.51091  1.0000
  C   C444      1.0  0.88434  0.44942  0.62044  1.0000
  H   H360      1.0  0.76901  0.07505  0.60110  1.0000
  H   H361      1.0  0.98162  0.29384  0.60481  1.0000
  H   H362      1.0  0.66987  0.07172  0.85724  1.0000
  C   C445      1.0  0.48701  0.47660  0.93423  1.0000
  H   H363      1.0  0.56205  0.04692  0.61880  1.0000
  H   H364      1.0  0.66526  0.05606  0.56185  1.0000
  Fe  Fe33      1.0  0.90284  0.45562  0.77783  1.0000
  H   H365      1.0  0.93680  0.47330  0.62464  1.0000
  Fe  Fe34      1.0  0.66469  0.46408  0.98195  1.0000
  C   C446      1.0  0.80213  0.28922  0.50972  1.0000
  H   H366      1.0  0.76123  0.03290  0.75004  1.0000
  H   H367      1.0  0.79473  0.42260  0.85491  1.0000
  H   H368      1.0  0.76308  0.45576  0.89718  1.0000
  C   C447      1.0  0.50850  0.00202  0.87936  1.0000
  P   P15       1.0  0.97192  0.45663  0.56060  1.0000
  H   H369      1.0  0.87708  0.45915  0.64540  1.0000
  C   C448      1.0  0.73657  0.03214  0.62479  1.0000
  H   H370      1.0  0.53419  0.05155  0.54913  1.0000
  C   C449      1.0  0.78634  0.46820  0.88480  1.0000
  C   C450      1.0  0.95794  0.35833  0.65803  1.0000
  H   H371      1.0  0.78980  0.31066  0.52027  1.0000
  H   H372      1.0  0.96804  0.39976  0.91616  1.0000
  S   S63       1.0  0.85549  0.44021  0.81296  1.0000
  H   H373      1.0  0.55743  0.38807  0.93308  1.0000
  C   C451      1.0  0.95923  0.42467  0.90994  1.0000
  C   C452      1.0  0.55948  0.01876  0.61670  1.0000
  H   H374      1.0  0.75738  0.02478  0.64077  1.0000
  H   H375      1.0  0.59742  0.01911  0.57545  1.0000
  C   C453      1.0  0.80859  0.48626  0.70629  1.0000
  S   S64       1.0  0.61909  0.42846  0.95851  1.0000
  C   C454      1.0  0.71741  0.06960  0.58015  1.0000
  H   H376      1.0  0.85622  0.45770  0.50586  1.0000
  C   C455      1.0  0.53148  0.10163  0.71789  1.0000
  H   H377      1.0  0.83389  0.42202  0.61015  1.0000
  C   C456      1.0  0.97722  0.33260  0.64467  1.0000
  C   C457      1.0  0.49590  0.18940  0.85387  1.0000
  H   H378      1.0  0.50256  0.99208  0.54971  1.0000
  C   C458      1.0  0.75464  0.00862  0.73619  1.0000
  H   H379      1.0  0.66671  0.18225  0.84585  1.0000
  C   C459      1.0  0.67791  0.02158  0.60270  1.0000
  C   C460      1.0  0.91836  0.45738  0.60856  1.0000
  C   C461      1.0  0.50054  0.45316  0.91155  1.0000
  H   H380      1.0  0.64817  0.02828  0.66812  1.0000
  C   C462      1.0  0.56113  0.37964  0.95936  1.0000
  H   H381      1.0  0.50055  0.15357  0.81262  1.0000
  H   H382      1.0  0.58019  0.48471  0.93529  1.0000
  C   C463      1.0  0.52306  0.00429  0.84632  1.0000
  C   C464      1.0  0.57983  0.00304  0.59224  1.0000
  C   C465      1.0  0.50646  0.20006  0.88707  1.0000
  C   C466      1.0  0.70349  0.01296  0.62570  1.0000
  C   C467      1.0  0.83438  0.46514  0.84377  1.0000
  C   C468      1.0  0.90337  0.42513  0.55589  1.0000
  C   C469      1.0  0.83446  0.43698  0.96552  1.0000
  H   H383      1.0  0.82744  0.27869  0.55771  1.0000
  Fe  Fe35      1.0  0.94417  0.25508  0.52671  1.0000
  C   C470      1.0  0.92796  0.36518  0.64047  1.0000
  C   C471      1.0  0.51753  0.06344  0.49766  1.0000
  C   C472      1.0  0.81517  0.13747  0.49742  1.0000
  H   H384      1.0  0.89358  0.35113  0.59756  1.0000
  S   S65       1.0  0.98408  0.48010  0.71936  1.0000
  C   C473      1.0  0.68478  0.04999  0.58019  1.0000
  C   C474      1.0  0.82292  0.27101  0.53097  1.0000
  C   C475      1.0  0.83800  0.24268  0.51777  1.0000
  H   H385      1.0  0.91754  0.46411  0.84646  1.0000
  H   H386      1.0  0.98088  0.44959  0.95564  1.0000
  H   H387      1.0  0.76239  0.13500  0.51590  1.0000
  H   H388      1.0  0.59844  0.12420  0.77285  1.0000
  H   H389      1.0  0.53147  0.08950  0.49749  1.0000
  H   H390      1.0  0.53874  0.19104  0.93045  1.0000
  H   H391      1.0  0.85076  0.40044  0.55273  1.0000
  H   H392      1.0  0.59040  0.02467  0.69541  1.0000
  C   C476      1.0  0.94134  0.42858  0.87913  1.0000
  H   H393      1.0  0.87828  0.42576  0.93521  1.0000
  C   C477      1.0  0.86835  0.42897  0.96111  1.0000
  S   S66       1.0  0.51345  0.01982  0.67099  1.0000
  C   C478      1.0  0.95569  0.48563  0.92394  1.0000
  H   H394      1.0  0.91285  0.38486  0.65032  1.0000
  H   H395      1.0  0.49461  0.22071  0.89985  1.0000
  H   H396      1.0  0.85407  0.22845  0.53428  1.0000
  H   H397      1.0  0.52201  0.08749  0.90231  1.0000
  H   H398      1.0  0.60674  0.06119  0.84819  1.0000
  H   H399      1.0  0.58578  0.11861  0.71054  1.0000
  H   H400      1.0  0.91491  0.41779  0.98558  1.0000
  H   H401      1.0  0.49683  0.03036  0.92501  1.0000
  H   H402      1.0  0.52605  0.09863  0.69049  1.0000
  H   H403      1.0  0.56472  0.14273  0.90233  1.0000
  H   H404      1.0  0.79941  0.46149  0.69438  1.0000
  H   H405      1.0  0.52782  0.45602  0.90503  1.0000
  H   H406      1.0  0.54784  0.03784  0.80720  1.0000
  H   H407      1.0  0.96140  0.37996  0.55862  1.0000
  C   C479      1.0  0.93618  0.31993  0.59741  1.0000
  S   S67       1.0  0.97232  0.38053  0.69685  1.0000
  C   C480      1.0  0.86000  0.42877  0.60045  1.0000
  S   S68       1.0  0.92096  0.29644  0.55956  1.0000
  H   H408      1.0  0.60348  0.17224  0.83651  1.0000
  C   C481      1.0  0.91707  0.34593  0.61054  1.0000
  H   H409      1.0  0.97680  0.33680  0.51652  1.0000
  C   C482      1.0  0.53781  0.35245  0.97368  1.0000
  C   C483      1.0  0.52284  0.06452  0.88649  1.0000
  Fe  Fe36      1.0  0.97948  0.48451  0.77757  1.0000
  C   C484      1.0  0.86950  0.41668  0.56815  1.0000
  H   H410      1.0  0.70012  0.13217  0.85619  1.0000
  C   C485      1.0  0.56514  0.11269  0.72926  1.0000
  C   C486      1.0  0.57217  0.11577  0.76469  1.0000
  C   C487      1.0  0.54551  0.10740  0.78899  1.0000
  C   C488      1.0  0.51183  0.09641  0.77728  1.0000
  P   P16       1.0  0.55404  0.10897  0.83492  1.0000
  C   C489      1.0  0.53485  0.14441  0.85521  1.0000
  C   C490      1.0  0.53683  0.06714  0.85296  1.0000
  C   C491      1.0  0.96659  0.31366  0.61449  1.0000
  C   C492      1.0  0.74337  0.06054  0.60223  1.0000
  C   C493      1.0  0.53631  0.99840  0.63883  1.0000
  H   H411      1.0  0.65302  0.00567  0.60147  1.0000
  C   C494      1.0  0.53719  0.03666  0.83314  1.0000
  C   C495      1.0  0.50984  0.16159  0.83802  1.0000
  S   S69       1.0  0.90180  0.44746  0.71991  1.0000
  H   H412      1.0  0.82324  0.16238  0.50934  1.0000
  C   C496      1.0  0.53128  0.18316  0.90438  1.0000
  C   C497      1.0  0.54559  0.15559  0.88848  1.0000
  C   C498      1.0  0.60027  0.11600  0.84219  1.0000
  C   C499      1.0  0.61764  0.15009  0.84132  1.0000
  C   C500      1.0  0.65350  0.15585  0.84647  1.0000
  C   C501      1.0  0.67231  0.12764  0.85229  1.0000
  C   C502      1.0  0.65526  0.09361  0.85291  1.0000
  C   C503      1.0  0.61937  0.08775  0.84783  1.0000
  C   C504      1.0  0.73240  0.00756  0.70769  1.0000
  C   C505      1.0  0.96646  0.45309  0.93229  1.0000
  C   C506      1.0  0.78067  0.12163  0.50141  1.0000
  H   H413      1.0  0.91008  0.41580  0.53068  1.0000
  C   C507      1.0  0.50856  0.03207  0.89955  1.0000
  H   H414      1.0  0.72165  0.03109  0.69995  1.0000
  H   H415      1.0  0.83298  0.46254  0.74860  1.0000
  C   C508      1.0  0.50126  0.00850  0.52705  1.0000
  H   H416      1.0  0.81823  0.44016  0.94321  1.0000
  S   S70       1.0  0.72166  0.45692  0.98179  1.0000
  C   C509      1.0  0.92827  0.44492  0.57637  1.0000
  C   C510      1.0  0.63590  0.00317  0.67693  1.0000
  C   C511      1.0  0.82779  0.48687  0.73679  1.0000
  C   C512      1.0  0.60338  0.00137  0.69284  1.0000
  C   C513      1.0  0.86097  0.48546  0.50135  1.0000
  C   C514      1.0  0.50480  0.09388  0.74190  1.0000
  H   H417      1.0  0.49098  0.08951  0.79558  1.0000
  C   C515      1.0  0.97436  0.38911  0.53497  1.0000
  H   H418      1.0  0.48973  0.40687  0.88043  1.0000
  C   C516      1.0  0.98208  0.42506  0.52837  1.0000
  C   C517      1.0  0.93791  0.48933  0.89281  1.0000
  S   S71       1.0  0.72509  0.07121  0.49021  1.0000
  H   H419      1.0  0.98412  0.71432  0.40385  1.0000
  C   C518      1.0  0.86643  0.54604  0.01002  1.0000
  C   C519      1.0  0.50225  0.77944  0.18610  1.0000
  C   C520      1.0  0.55224  0.95199  0.32300  1.0000
  Fe  Fe37      1.0  0.91904  0.67966  0.46511  1.0000
  H   H420      1.0  0.51944  0.96694  0.44604  1.0000
  S   S72       1.0  0.90475  0.63148  0.43108  1.0000
  C   C521      1.0  0.82387  0.75130  0.25834  1.0000
  H   H421      1.0  0.77322  0.52747  0.10586  1.0000
  S   S73       1.0  0.91686  0.73557  0.44934  1.0000
  C   C522      1.0  0.52014  0.88577  0.24010  1.0000
  C   C523      1.0  0.55350  0.98831  0.32023  1.0000
  C   C524      1.0  0.56350  0.62926  0.14126  1.0000
  H   H422      1.0  0.89469  0.75271  0.20620  1.0000
  H   H423      1.0  0.58585  0.57310  0.20303  1.0000
  C   C525      1.0  0.95462  0.50226  0.11965  1.0000
  Fe  Fe38      1.0  0.65812  0.95776  0.44274  1.0000
  C   C526      1.0  0.53515  0.49504  0.99163  1.0000
  C   C527      1.0  0.94279  0.87587  0.46853  1.0000
  S   S74       1.0  0.64564  0.58172  0.03046  1.0000
  H   H424      1.0  0.52315  0.97086  0.08728  1.0000
  H   H425      1.0  0.77054  0.78849  0.46233  1.0000
  H   H426      1.0  0.58567  0.97843  0.11666  1.0000
  C   C528      1.0  0.49432  0.87242  0.26340  1.0000
  H   H427      1.0  0.54614  0.82369  0.11652  1.0000
  H   H428      1.0  0.84365  0.95598  0.46565  1.0000
  S   S75       1.0  0.85614  0.51429  0.20017  1.0000
  C   C529      1.0  0.92904  0.55344  0.00424  1.0000
  S   S76       1.0  0.71616  0.97429  0.44614  1.0000
  H   H429      1.0  0.92511  0.77090  0.30916  1.0000
  C   C530      1.0  0.83600  0.73429  0.28707  1.0000
  H   H430      1.0  0.93274  0.68253  0.37607  1.0000
  H   H431      1.0  0.60524  0.92821  0.28354  1.0000
  S   S77       1.0  0.98437  0.55623  0.31297  1.0000
  C   C531      1.0  0.52575  0.78640  0.21319  1.0000
  H   H432      1.0  0.53347  0.83397  0.00329  1.0000
  S   S78       1.0  0.95330  0.51669  0.22038  1.0000
  C   C532      1.0  0.95364  0.50218  0.44375  1.0000
  H   H433      1.0  0.98307  0.83415  0.40526  1.0000
  H   H434      1.0  0.60165  0.51706  0.04784  1.0000
  C   C533      1.0  0.81033  0.52136  0.14668  1.0000
  H   H435      1.0  0.53496  0.93540  0.30648  1.0000
  C   C534      1.0  0.78885  0.50976  0.11850  1.0000
  C   C535      1.0  0.93843  0.75765  0.32883  1.0000
  H   H436      1.0  0.93590  0.54890  0.13913  1.0000
  H   H437      1.0  0.53598  0.66600  0.21492  1.0000
  H   H438      1.0  0.50738  0.65143  0.08120  1.0000
  H   H439      1.0  0.97722  0.80184  0.33638  1.0000
  C   C536      1.0  0.92796  0.61089  0.39884  1.0000
  C   C537      1.0  0.91004  0.58387  0.37924  1.0000
  C   C538      1.0  0.92707  0.56643  0.35351  1.0000
  H   H440      1.0  0.88269  0.57655  0.38377  1.0000
  H   H441      1.0  0.91279  0.54579  0.33869  1.0000
  C   C539      1.0  0.56351  0.86352  0.27635  1.0000
  C   C540      1.0  0.57664  0.60036  0.15591  1.0000
  C   C541      1.0  0.96225  0.57620  0.34656  1.0000
  H   H442      1.0  0.97870  0.50616  0.13406  1.0000
  Fe  Fe39      1.0  0.67711  0.53854  0.00979  1.0000
  C   C542      1.0  0.87842  0.74787  0.22890  1.0000
  H   H443      1.0  0.59849  0.62585  0.05991  1.0000
  C   C543      1.0  0.86975  0.72456  0.28711  1.0000
  H   H444      1.0  0.54444  0.83708  0.32291  1.0000
  H   H445      1.0  0.57415  0.90906  0.34726  1.0000
  H   H446      1.0  0.95401  0.56518  0.01353  1.0000
  H   H447      1.0  0.83558  0.77118  0.20701  1.0000
  H   H448      1.0  0.81101  0.54805  0.15546  1.0000
  C   C544      1.0  0.57450  0.93712  0.34618  1.0000
  C   C545      1.0  0.92439  0.64998  0.29851  1.0000
  C   C546      1.0  0.96327  0.62045  0.39229  1.0000
  C   C547      1.0  0.55502  0.88180  0.24667  1.0000
  H   H449      1.0  0.59698  0.92312  0.14407  1.0000
  H   H450      1.0  0.52290  0.89390  0.48165  1.0000
  H   H451      1.0  0.91633  0.72255  0.25675  1.0000
  H   H452      1.0  0.79784  0.75884  0.25848  1.0000
  P   P17       1.0  0.53209  0.69060  0.14291  1.0000
  C   C548      1.0  0.55033  0.65426  0.16241  1.0000
  C   C549      1.0  0.55666  0.70853  0.10602  1.0000
  C   C550      1.0  0.59111  0.70201  0.10043  1.0000
  C   C551      1.0  0.60908  0.71527  0.07096  1.0000
  C   C552      1.0  0.59321  0.73595  0.04750  1.0000
  C   C553      1.0  0.55967  0.74406  0.05391  1.0000
  C   C554      1.0  0.54153  0.73054  0.08311  1.0000
  C   C555      1.0  0.50303  0.85508  0.29330  1.0000
  C   C556      1.0  0.92921  0.82263  0.41914  1.0000
  C   C557      1.0  0.57573  0.59558  0.19173  1.0000
  C   C558      1.0  0.88196  0.53530  0.46584  1.0000
  C   C559      1.0  0.57977  0.97399  0.14379  1.0000
  H   H453      1.0  0.52673  0.56914  0.00527  1.0000
  H   H454      1.0  0.84309  0.55113  0.02365  1.0000
  H   H455      1.0  0.71621  0.94188  0.28321  1.0000
  C   C560      1.0  0.55165  0.76471  0.21869  1.0000
  C   C561      1.0  0.59473  0.62638  0.03225  1.0000
  H   H456      1.0  0.60416  0.68649  0.11840  1.0000
  H   H457      1.0  0.63506  0.70885  0.06584  1.0000
  H   H458      1.0  0.60673  0.74540  0.02415  1.0000
  H   H459      1.0  0.54741  0.76039  0.03595  1.0000
  H   H460      1.0  0.50360  0.87279  0.10097  1.0000
  C   C562      1.0  0.76726  0.84093  0.48085  1.0000
  H   H461      1.0  0.66031  0.94638  0.31319  1.0000
  Fe  Fe40      1.0  0.95897  0.51229  0.27836  1.0000
  H   H462      1.0  0.97738  0.64111  0.40723  1.0000
  C   C563      1.0  0.84510  0.75820  0.22932  1.0000
  C   C564      1.0  0.96917  0.86751  0.44625  1.0000
  H   H463      1.0  0.57466  0.71984  0.20129  1.0000
  C   C565      1.0  0.56549  0.82795  0.13675  1.0000
  C   C566      1.0  0.59041  0.80488  0.14041  1.0000
  C   C567      1.0  0.61457  0.80954  0.16727  1.0000
  C   C568      1.0  0.61410  0.83757  0.19018  1.0000
  C   C569      1.0  0.59011  0.86180  0.18567  1.0000
  C   C570      1.0  0.56505  0.85607  0.15950  1.0000
  P   P18       1.0  0.58821  0.89728  0.21582  1.0000
  S   S79       1.0  0.65957  0.91781  0.48551  1.0000
  C   C571      1.0  0.62900  0.91062  0.23713  1.0000
  C   C572      1.0  0.62924  0.92502  0.27045  1.0000
  C   C573      1.0  0.66054  0.93585  0.28713  1.0000
  C   C574      1.0  0.69197  0.93335  0.27022  1.0000
  C   C575      1.0  0.69202  0.92041  0.23644  1.0000
  C   C576      1.0  0.66064  0.90938  0.21978  1.0000
  H   H464      1.0  0.84509  0.52488  0.40801  1.0000
  H   H465      1.0  0.94746  0.66762  0.30413  1.0000
  H   H466      1.0  0.57034  0.77067  0.23922  1.0000
  C   C577      1.0  0.57816  0.93652  0.19457  1.0000
  C   C578      1.0  0.58585  0.94248  0.15939  1.0000
  C   C579      1.0  0.93055  0.52632  0.12251  1.0000
  H   H467      1.0  0.55612  0.66276  0.03480  1.0000
  C   C580      1.0  0.61446  0.60649  0.01095  1.0000
  C   C581      1.0  0.56549  0.96293  0.21409  1.0000
  H   H468      1.0  0.92420  0.80149  0.40076  1.0000
  H   H469      1.0  0.59054  0.78307  0.12278  1.0000
  H   H470      1.0  0.63336  0.79113  0.17055  1.0000
  H   H471      1.0  0.63227  0.84008  0.21148  1.0000
  C   C582      1.0  0.96229  0.84114  0.42155  1.0000
  C   C583      1.0  0.90284  0.83069  0.44125  1.0000
  C   C584      1.0  0.89905  0.56010  0.02195  1.0000
  C   C585      1.0  0.87499  0.49889  0.46986  1.0000
  H   H472      1.0  0.71641  0.91918  0.22313  1.0000
  H   H473      1.0  0.66109  0.90022  0.19336  1.0000
  S   S80       1.0  0.62608  0.93766  0.39510  1.0000
  C   C586      1.0  0.52933  0.72768  0.17097  1.0000
  C   C587      1.0  0.59739  0.95816  0.36784  1.0000
  C   C588      1.0  0.54820  0.64851  0.19826  1.0000
  H   H474      1.0  0.89395  0.54644  0.44239  1.0000
  H   H475      1.0  0.56034  0.95936  0.24150  1.0000
  C   C589      1.0  0.86578  0.60341  0.28257  1.0000
  C   C590      1.0  0.89881  0.59488  0.27444  1.0000
  C   C591      1.0  0.89888  0.52037  0.10523  1.0000
  H   H476      1.0  0.54495  0.87315  0.15682  1.0000
  C   C592      1.0  0.89127  0.65870  0.30694  1.0000
  C   C593      1.0  0.86196  0.63534  0.29846  1.0000
  P   P19       1.0  0.88571  0.70155  0.32326  1.0000
  C   C594      1.0  0.85732  0.69997  0.36032  1.0000
  H   H477      1.0  0.54359  0.91743  0.41922  1.0000
  C   C595      1.0  0.92591  0.72366  0.33962  1.0000
  H   H478      1.0  0.56352  0.63193  0.11337  1.0000
  H   H479      1.0  0.55979  0.61526  0.24056  1.0000
  C   C596      1.0  0.84747  0.73124  0.37364  1.0000
  C   C597      1.0  0.82815  0.73103  0.40417  1.0000
  C   C598      1.0  0.81923  0.69978  0.42209  1.0000
  C   C599      1.0  0.82936  0.66865  0.40930  1.0000
  C   C600      1.0  0.84842  0.66869  0.37856  1.0000
  Fe  Fe41      1.0  0.96358  0.74871  0.48374  1.0000
  C   C601      1.0  0.53763  0.85059  0.29976  1.0000
  H   H480      1.0  0.81877  0.72839  0.30884  1.0000
  S   S81       1.0  0.73554  0.53769  0.01239  1.0000
  H   H481      1.0  0.51554  0.73711  0.08762  1.0000
  C   C602      1.0  0.50337  0.57191  0.99101  1.0000
  H   H482      1.0  0.84320  0.58531  0.27609  1.0000
  H   H483      1.0  0.90179  0.57013  0.26208  1.0000
  H   H484      1.0  0.59011  0.85933  0.28153  1.0000
  C   C603      1.0  0.94291  0.70809  0.36645  1.0000
  H   H485      1.0  0.83614  0.64199  0.30381  1.0000
  H   H486      1.0  0.81255  0.52907  0.35412  1.0000
  C   C604      1.0  0.96784  0.77548  0.34443  1.0000
  H   H487      1.0  0.58740  0.58157  0.13940  1.0000
  H   H488      1.0  0.85547  0.75593  0.36092  1.0000
  H   H489      1.0  0.82106  0.75527  0.41473  1.0000
  H   H490      1.0  0.80544  0.69999  0.44650  1.0000
  H   H491      1.0  0.82378  0.64467  0.42397  1.0000
  H   H492      1.0  0.85754  0.64457  0.37022  1.0000
  H   H493      1.0  0.51268  0.89883  0.21691  1.0000
  H   H494      1.0  0.87964  0.53834  0.10852  1.0000
  C   C605      1.0  0.57069  0.64741  0.01809  1.0000
  C   C606      1.0  0.83060  0.49864  0.16382  1.0000
  C   C607      1.0  0.56371  0.51465  0.00723  1.0000
  H   H495      1.0  0.97183  0.51025  0.02797  1.0000
  C   C608      1.0  0.84242  0.50282  0.39071  1.0000
  C   C609      1.0  0.90957  0.85724  0.46571  1.0000
  H   H496      1.0  0.52412  0.80894  0.22950  1.0000
  C   C610      1.0  0.78303  0.80972  0.47775  1.0000
  C   C611      1.0  0.51861  0.92429  0.41071  1.0000
  C   C612      1.0  0.97207  0.72607  0.38220  1.0000
  C   C613      1.0  0.57966  0.50163  0.03603  1.0000
  H   H497      1.0  0.87730  0.81590  0.44000  1.0000
  C   C614      1.0  0.92804  0.61823  0.28225  1.0000
  C   C615      1.0  0.55377  0.73571  0.19736  1.0000
  H   H498      1.0  0.50208  0.52962  0.05322  1.0000
  C   C616      1.0  0.56123  0.61946  0.21286  1.0000
  H   H499      1.0  0.95365  0.61140  0.27606  1.0000
  H   H500      1.0  0.89820  0.93040  0.45507  1.0000
  H   H501      1.0  0.90102  0.57622  0.04495  1.0000
  H   H502      1.0  0.51301  0.93960  0.03203  1.0000
  C   C617      1.0  0.49674  0.87117  0.99757  1.0000
  H   H503      1.0  0.74304  0.84342  0.46783  1.0000
  H   H504      1.0  0.49515  0.61893  0.01832  1.0000
  C   C618      1.0  0.89064  0.73091  0.25759  1.0000
  C   C619      1.0  0.98024  0.60327  0.36617  1.0000
  C   C620      1.0  0.49152  0.94983  0.04473  1.0000
  C   C621      1.0  0.50414  0.75040  0.16488  1.0000
  S   S82       1.0  0.48831  0.80537  0.06907  1.0000
  C   C622      1.0  0.82373  0.50530  0.36007  1.0000
  H   H505      1.0  0.51234  0.88454  0.37150  1.0000
  C   C623      1.0  0.50477  0.95253  0.42586  1.0000
  H   H506      1.0  0.57433  0.53968  0.99668  1.0000
  C   C624      1.0  0.50113  0.90590  0.38361  1.0000
  C   C625      1.0  0.98451  0.75978  0.37127  1.0000
  C   C626      1.0  0.49746  0.96760  0.07610  1.0000
  H   H507      1.0  0.94644  0.50784  0.46997  1.0000
  C   C627      1.0  0.48950  0.67190  0.12930  1.0000
  C   C628      1.0  0.89126  0.93660  0.48128  1.0000
  C   C629      1.0  0.86053  0.95137  0.48707  1.0000
  H   H508      1.0  0.88890  0.86283  0.48280  1.0000
  H   H509      1.0  0.95500  0.98283  0.47933  1.0000
  C   C630      1.0  0.98101  0.97542  0.48032  1.0000
  H   H510      1.0  0.87903  0.58584  0.48862  1.0000
  S   S83       1.0  0.83328  0.76553  0.48911  1.0000
  S   S84       1.0  0.93144  0.75739  0.53072  1.0000
  C   C631      1.0  0.87237  0.95331  0.54846  1.0000
  S   S85       1.0  0.53863  0.67767  0.96235  1.0000
  Fe  Fe42      1.0  0.93238  0.50101  0.71590  1.0000
  C   C632      1.0  0.91947  0.59944  0.75331  1.0000
  S   S86       1.0  0.91295  0.53205  0.67019  1.0000
  Fe  Fe43      1.0  0.93272  0.69939  0.54077  1.0000
  C   C633      1.0  0.78078  0.59778  0.85736  1.0000
  S   S87       1.0  0.92998  0.51001  0.77359  1.0000
  H   H511      1.0  0.90092  0.61689  0.57686  1.0000
  H   H512      1.0  0.71098  0.86756  0.55603  1.0000
  H   H513      1.0  0.88790  0.55992  0.60748  1.0000
  S   S88       1.0  0.94830  0.67989  0.59400  1.0000
  S   S89       1.0  0.70445  0.97739  0.53084  1.0000
  C   C634      1.0  0.86121  0.65210  0.67164  1.0000
  H   H514      1.0  0.92362  0.51030  0.55420  1.0000
  H   H515      1.0  0.84286  0.49749  0.55223  1.0000
  S   S90       1.0  0.77539  0.52856  0.92130  1.0000
  H   H516      1.0  0.84866  0.64236  0.81464  1.0000
  C   C635      1.0  0.81442  0.86467  0.51748  1.0000
  S   S91       1.0  0.67423  0.51692  0.95587  1.0000
  H   H517      1.0  0.57518  0.59399  0.86844  1.0000
  Fe  Fe44      1.0  0.64747  0.96108  0.52133  1.0000
  C   C636      1.0  0.60520  0.51985  0.89754  1.0000
  C   C637      1.0  0.53333  0.96201  0.63575  1.0000
  C   C638      1.0  0.55406  0.94630  0.61164  1.0000
  C   C639      1.0  0.57766  0.96662  0.58990  1.0000
  H   H518      1.0  0.51582  0.94594  0.65262  1.0000
  H   H519      1.0  0.55211  0.91812  0.61015  1.0000
  C   C640      1.0  0.79807  0.50309  0.89233  1.0000
  C   C641      1.0  0.54704  0.86934  0.96083  1.0000
  C   C642      1.0  0.79116  0.56936  0.80314  1.0000
  C   C643      1.0  0.81880  0.59527  0.79569  1.0000
  C   C644      1.0  0.73721  0.94584  0.70069  1.0000
  H   H520      1.0  0.62516  0.55983  0.86145  1.0000
  H   H521      1.0  0.80546  0.57316  0.69587  1.0000
  C   C645      1.0  0.96306  0.88760  0.54092  1.0000
  C   C646      1.0  0.95793  0.63015  0.64342  1.0000
  H   H522      1.0  0.75208  0.54979  0.84031  1.0000
  C   C647      1.0  0.94887  0.52109  0.54480  1.0000
  C   C648      1.0  0.55000  0.52739  0.92456  1.0000
  C   C649      1.0  0.93022  0.58321  0.82264  1.0000
  H   H523      1.0  0.97515  0.60533  0.74881  1.0000
  H   H524      1.0  0.98455  0.64850  0.92035  1.0000
  C   C650      1.0  0.85103  0.95963  0.52062  1.0000
  C   C651      1.0  0.86376  0.52561  0.98019  1.0000
  C   C652      1.0  0.95318  0.59975  0.76606  1.0000
  C   C653      1.0  0.50872  0.91379  0.95173  1.0000
  C   C654      1.0  0.82838  0.51870  0.87571  1.0000
  C   C655      1.0  0.97671  0.50087  0.54395  1.0000
  H   H525      1.0  0.83774  0.54565  0.88128  1.0000
  H   H526      1.0  0.86977  0.51212  0.83937  1.0000
  C   C656      1.0  0.94000  0.63748  0.61311  1.0000
  H   H527      1.0  0.93444  0.57600  0.84925  1.0000
  H   H528      1.0  0.96501  0.59250  0.68375  1.0000
  C   C657      1.0  0.92546  0.57219  0.64794  1.0000
  C   C658      1.0  0.90776  0.57936  0.61743  1.0000
  C   C659      1.0  0.91513  0.61164  0.59996  1.0000
  C   C660      1.0  0.80784  0.62394  0.84999  1.0000
  S   S92       1.0  0.60355  0.94494  0.56057  1.0000
  C   C661      1.0  0.84579  0.62673  0.72811  1.0000
  C   C662      1.0  0.95857  0.59162  0.80066  1.0000
  H   H529      1.0  0.94635  0.81070  0.58502  1.0000
  C   C663      1.0  0.73282  0.93173  0.61505  1.0000
  C   C664      1.0  0.72411  0.97633  0.68932  1.0000
  C   C665      1.0  0.67451  0.89380  0.58542  1.0000
  C   C666      1.0  0.83304  0.55027  0.73731  1.0000
  H   H530      1.0  0.81790  0.65920  0.76133  1.0000
  C   C667      1.0  0.86077  0.62448  0.69515  1.0000
  C   C668      1.0  0.65212  0.97276  0.67238  1.0000
  H   H531      1.0  0.87195  0.60120  0.68741  1.0000
  P   P20       1.0  0.51525  0.51187  0.95384  1.0000
  C   C669      1.0  0.98165  0.85461  0.60182  1.0000
  C   C670      1.0  0.60933  0.60761  0.97515  1.0000
  C   C671      1.0  0.80094  0.51753  0.69153  1.0000
  H   H532      1.0  0.56959  0.85699  0.95340  1.0000
  C   C672      1.0  0.78292  0.86882  0.50065  1.0000
  C   C673      1.0  0.87378  0.55778  0.49217  1.0000
  C   C674      1.0  0.94842  0.85342  0.54874  1.0000
  C   C675      1.0  0.58582  0.62918  0.96097  1.0000
  H   H533      1.0  0.85362  0.56170  0.54374  1.0000
  C   C676      1.0  0.67042  0.91962  0.60995  1.0000
  H   H534      1.0  0.91628  0.60497  0.72629  1.0000
  C   C677      1.0  0.54883  0.55818  0.90529  1.0000
  C   C678      1.0  0.75939  0.94696  0.72924  1.0000
  C   C679      1.0  0.69953  0.93849  0.62527  1.0000
  H   H535      1.0  0.75568  0.94726  0.62503  1.0000
  C   C680      1.0  0.70770  0.88675  0.57589  1.0000
  C   C681      1.0  0.56647  0.64945  0.98220  1.0000
  H   H536      1.0  0.50461  0.88395  0.86610  1.0000
  H   H537      1.0  0.85468  0.51851  0.77603  1.0000
  C   C682      1.0  0.89643  0.58270  0.80991  1.0000
  H   H538      1.0  0.91898  0.93333  0.56476  1.0000
  C   C683      1.0  0.89068  0.59114  0.77511  1.0000
  H   H539      1.0  0.81876  0.70748  0.71963  1.0000
  H   H540      1.0  0.87325  0.65029  0.64648  1.0000
  H   H541      1.0  0.98469  0.59057  0.80998  1.0000
  P   P21       1.0  0.84686  0.59118  0.75876  1.0000
  H   H542      1.0  0.86491  0.95980  0.57443  1.0000
  C   C684      1.0  0.83011  0.83344  0.51446  1.0000
  H   H543      1.0  0.85400  0.83072  0.52799  1.0000
  C   C685      1.0  0.63582  0.94081  0.68509  1.0000
  C   C686      1.0  0.89368  0.51839  0.96275  1.0000
  C   C687      1.0  0.50111  0.89837  0.49794  1.0000
  C   C688      1.0  0.83041  0.65684  0.73665  1.0000
  C   C689      1.0  0.60314  0.93908  0.70077  1.0000
  H   H544      1.0  0.87495  0.57505  0.82720  1.0000
  H   H545      1.0  0.64821  0.91719  0.68263  1.0000
  H   H546      1.0  0.84663  0.70341  0.66218  1.0000
  H   H547      1.0  0.59024  0.91426  0.70979  1.0000
  C   C690      1.0  0.82689  0.62265  0.81937  1.0000
  H   H548      1.0  0.82673  0.88573  0.53317  1.0000
  H   H549      1.0  0.78455  0.54745  0.78600  1.0000
  Fe  Fe45      1.0  0.73147  0.51117  0.96011  1.0000
  C   C691      1.0  0.77239  0.57061  0.83392  1.0000
  H   H550      1.0  0.81456  0.64468  0.86850  1.0000
  Fe  Fe46      1.0  0.71645  0.93703  0.49150  1.0000
  C   C692      1.0  0.53815  0.89821  0.94240  1.0000
  H   H551      1.0  0.62407  0.59248  0.95828  1.0000
  H   H552      1.0  0.55384  0.90828  0.92061  1.0000
  C   C693      1.0  0.58689  0.96934  0.70454  1.0000
  C   C694      1.0  0.84624  0.68206  0.68053  1.0000
  H   H553      1.0  0.64454  0.92558  0.61592  1.0000
  C   C695      1.0  0.91233  0.92918  0.50922  1.0000
  H   H554      1.0  0.49674  0.97696  0.88890  1.0000
  H   H555      1.0  0.65189  0.88021  0.57287  1.0000
  C   C696      1.0  0.81266  0.54940  0.70721  1.0000
  C   C697      1.0  0.83067  0.68435  0.71292  1.0000
  C   C698      1.0  0.84651  0.49985  0.85176  1.0000
  C   C699      1.0  0.73683  0.90563  0.59080  1.0000
  C   C700      1.0  0.84021  0.51869  0.75217  1.0000
  H   H556      1.0  0.58287  0.63047  0.93322  1.0000
  C   C701      1.0  0.95102  0.59762  0.66051  1.0000
  C   C702      1.0  0.52660  0.85619  0.98872  1.0000
  C   C703      1.0  0.98125  0.55973  0.92486  1.0000
  C   C704      1.0  0.50703  0.90981  0.53186  1.0000
  H   H557      1.0  0.82683  0.97049  0.52498  1.0000
  H   H558      1.0  0.89049  0.50237  0.93983  1.0000
  H   H559      1.0  0.76251  0.90095  0.58230  1.0000
  H   H560      1.0  0.78571  0.51707  0.66808  1.0000
  H   H561      1.0  0.73014  0.92114  0.68774  1.0000
  C   C705      1.0  0.92674  0.53189  0.97482  1.0000
  H   H562      1.0  0.53336  0.91435  0.54162  1.0000
  S   S93       1.0  0.76465  0.90927  0.50539  1.0000
  H   H563      1.0  0.56124  0.96798  0.71601  1.0000
  P   P22       1.0  0.95138  0.90891  0.50163  1.0000
  H   H564      1.0  0.92994  0.83923  0.53147  1.0000
  H   H565      1.0  0.52746  0.57364  0.90800  1.0000
  H   H566      1.0  0.76676  0.59793  0.88166  1.0000
  C   C706      1.0  0.95767  0.83708  0.57913  1.0000
  S   S94       1.0  0.88366  0.68419  0.51087  1.0000
  C   C707      1.0  0.60408  0.55070  0.87880  1.0000
  C   C708      1.0  0.57592  0.56986  0.88268  1.0000
  C   C709      1.0  0.95374  0.55616  0.53454  1.0000
  S   S95       1.0  0.49496  0.76797  0.97783  1.0000
  H   H567      1.0  0.62697  0.50485  0.89461  1.0000
  H   H568      1.0  0.52257  0.98098  0.83055  1.0000
  C   C710      1.0  0.57848  0.50840  0.92056  1.0000
  H   H569      1.0  0.96020  0.59879  0.95626  1.0000
  H   H570      1.0  0.50261  0.93635  0.93741  1.0000
  C   C711      1.0  0.85947  0.54418  0.52319  1.0000
  C   C712      1.0  0.90296  0.93820  0.54283  1.0000
  Fe  Fe47      1.0  0.49471  0.70919  0.97999  1.0000
  C   C713      1.0  0.97546  0.59388  0.93380  1.0000
  P   P23       1.0  0.96566  0.52291  0.95200  1.0000
  Fe  Fe48      1.0  0.88471  0.74153  0.49705  1.0000
  C   C714      1.0  0.85330  0.50803  0.52787  1.0000
  P   P24       1.0  0.69476  0.97509  0.65315  1.0000
  C   C715      1.0  0.81472  0.80575  0.49426  1.0000
  C   C716      1.0  0.49171  0.54843  0.96461  1.0000
  H   H571      1.0  0.76959  0.92339  0.73776  1.0000
  S   S96       1.0  0.96802  0.69203  0.49573  1.0000
  H   H572      1.0  0.83834  0.51536  0.97050  1.0000
  H   H573      1.0  0.93250  0.57196  0.53608  1.0000
  H   H574      1.0  0.92959  0.51418  0.88554  1.0000
  H   H575      1.0  0.97719  0.64988  0.65389  1.0000
  C   C717      1.0  0.98622  0.57129  0.52321  1.0000
  C   C718      1.0  0.76825  0.97836  0.74688  1.0000
  C   C719      1.0  0.98649  0.90536  0.56438  1.0000
  H   H576      1.0  0.78546  0.97918  0.76898  1.0000
  C   C720      1.0  0.48742  0.89995  0.97901  1.0000
