data_image0
_chemical_formula_structural       FeCSCHSFeSHFeS2FeSFeS3HSHFeS2FeCFeCS2CSCFeSCH2C7H4CHSCH2C2HC7H6CSCHSC4H3FeCH5CHC2SHCH4CHC3HCFeH2C2HC2HCH2C3HC2HCH2C2H2C4H2C2H2C3PC4H2C9HC2HC2H8CPH2CHC2HC2H2SH2C4HPC2H5CHCHCSC3PHC2HC5HCHC8PC13HCH9CH3CH2C2HCH3C7HC2H3CH2CH2C2HC3HC2HCHC3PHCHCSHFeSCFeHSC2SHC2HC9H4C6H4FeHFeS2FeS2FeSFeHS2HSCFeSHFeHFeS3HC4H3C4HCHCHC2H2C3H2C3H3C2HC2H2C3FeHPC2HCSH2C3PC3H2FeCHC3HC8PC9HC7H10CH2CSHC4HSC2H3CH2C5H6CH3CH2CH2CH2CH2CHC3H4S2HFeHC3HCHSCHC4H4CHC2H3CH3SH4C3HC8H2PHCH3CSCHC2HCPH3CHCSHC4HCHFeSHFeS2FeSFeS3FeS2FeS2FeSFeS3C3HC4HCHC6H2CH2C6H3CHC4HCHPHC3HC2HC2HC3H2CPHC3HC7H5C2H2PC3HCHC7HCHC2HC2HCH8CHC8H3CSH2CHC2H6C2H2CHC9PC12HC3H7C2H5C5HC2H3CHC2H5C7H3CHCH2C4PHC8HCH4C2H2CH2CH2CHC2SCH2CHCH2CH2C2H4CHCH2C3HCH2C3H4CH5FeHSC2SFeS2FeS2FeSFeS3CSHFeS2FeCFeHSCHSCFeS2HPHC6H4C4H2C3HC6H4C7HC3H2CHCSC2SCHC2FeC2HFeH2C3HCH2C10H5C2H5CH5CHCSHC2H2CHCSCSCH5C6PC8H2C8H6CH6CH6C2H2CHCHCH2CHC2H2C6PC7HC6H6PCHCH3FeC3H2C5HFeCH2CH3C5PHC4H3CH2CH2CHCH2CH4C2S2H3C3HC4H2CH4C2H2CH2CHSCHC2HCH3CSHFeSCFeCSHCSC3H4C6H4C6H4CHFeS2FeS2FeSFeHS2FeSHFeS2FeCFeS3C5H3FeC2HC2H2C6PCHC7H6C3H7C4PC5HC3PHC3H2C3HCH2CHCSH4C3H2C2HC2HPCSC7HC3H7PH8CHCH3SCHC4HCHCH2C2HCH2CH2C3H5CHC3HC5SHC2HC2HC2H5CHC3HCHCHC2HC2HC3HCSCH4CHCHCHC2HC2H2CH3CH4C3HC2H2C4FeSCFeS2FeSFeS3FeS2FeS2FeSFeS3HC3H4CHC7H3C5H4C10H3C3HC2H2CHC4H2CHC3H3C2HCH5CHCH3SC3HC8HCHC6HC2HCHCH2C4H4C7H2C5H2C2H2CHC2HC2H2C4HCHCHC6HC9H4PCH4C2HC2HC2HC2PCHCHCSHC2H2C6H2CH2C2HCH4CHC6PC3HCH2C7HCHC3H2PH10C3HC4HC3H8CH2PHPH3C4H5CH2CHCH2C2H5C3HCH3C4Fe2SH2SFeS2FeS2FeCFeCS2CSH2FeCH2FeSCHS2CPC2HC2HCSHCHCHFeC3HC2HC2HCSHC2H5CHSHC7H4FeCSCHC7PC3H4CHCHSC6H3FeHC3FeH2C2H5C2H2CH5C5HC2HCHC2H2CHC5HC2HCHC2SCHC2HC2HCH4CHC3PC18H2CH13SH2C2H3C7PC7HC4SC3H6CH7CHCH2CHCHC2HCH3SC2H3CHCHPCH3CHCFeS2FeS2FeHSCHSCHC4H4CHCSCHCHC2H2C4H2C3H2FeS2FeS2FeS2FeHSCHC2HSC2H3CHC2HC2HC3HC6HC7PC9HC8H12CH7C2HC4PC13HC2H12SC2H2C4HCHC4H4C3H6CFeC3HC3H7PC2H2C7H2CH2CH2C3H3C2H4CH2CH6C2HC2HC4HCH3CHC4H2CH3CHCHCHC2HC4SC2HC3H4SHFeS2FeSCFeS2FeCFeS3CSCHCSCSFeSC2FeHSFeHSCH2C3H4C2H2CHC4H2C2H3C2H2CH5C6H4CHCH2FeC2H2CHC2H3CSHCH2C7PC8HC5HC3H11CH2C2H3CH2C2HCPC8HC2HFeHC2HSH4C2H2C3HCHCHC7PC2HFeC4HC8H6SHSH4CHC5HCPCH2C5HC2SH4C3H2C2HSH2C4HCHC2HSH2C2HC3PCHCSH2SC2H2CFeHS2CSFeS2FeS2FeCFeHS2CSC2HSHSFeSHC2SH2CHC2HFeH2C3HC6HFeCHCHC2H2C2HSCFeSHC2HC6H4SHSH2CFeC7PC3HC9H14C2H6C3HCHFeH3CHCH4C3HCHC2H2CHC2H3C8PC3HC5HC4HC3H6SHCH2SC3HCH4CHCH2FeC3PCHSC4HC10HCPHFeC2HC2H7C4HPHC14H2CH5CH3CHC3H2C2SCPC2HCHCH3SC2HCHC2H2C2H3CH2CH2CHCH3CHSHCFeS2FeS2FeHSHCSC2H2C2H4CPC5HC4H2C6H3FeS2FeCSFeS2C2SC3H2C2H2CHCH2CSCH2CHC8HCSC4HC2H3CH2CHC4HCH5C2HPH2C3HSHCHSHCSC8HFeHPH2C2HC4H2FeC2HC3H3CH2CH3C4H5C3HCHCH2CHCH4C4HCH4C2HCHC2SHC7PC2HCHC11HCH18CHC3PC4HC10H2CHC8H2C3H6C2H8CHC8H5PCH3CHC3PH2CHC3H2CH3CHSCFeSCFeSCFeS2FeSFeS3CSCHS2CHFeSHCFeHSHCSCHC4HCH3CHCSCHC3HCH2C6HCH2CH2C6H5C6PCHCH3C6HC3H5CH3C4H2CH3PHSCH3CHCH2FeCHCHC7HC2HSHS3PH2CH3CHCH3SCHCHC6HC2H2C8PC13H13CHC3HCHC3H2C5H4C2HC2HCH3CH4C2PH4SC3HCH2FeC3PCHCHC2HC6HC3HFe2HCH2C3SC2HCH2FeH2CHCHCH3CHC4HCHCH2
_chemical_formula_sum              "Fe128 C1920 S256 H1536 P64"
_cell_length_a       33.126
_cell_length_b       44.7158
_cell_length_c       42.613
_cell_angle_alpha    90.0103
_cell_angle_beta     89.9679
_cell_angle_gamma    90.0986

_space_group_name_H-M_alt    "P 1"
_space_group_IT_number       1

loop_
  _space_group_symop_operation_xyz
  'x, y, z'

loop_
  _atom_site_type_symbol
  _atom_site_label
  _atom_site_symmetry_multiplicity
  _atom_site_fract_x
  _atom_site_fract_y
  _atom_site_fract_z
  _atom_site_occupancy
  Fe  Fe1       1.0  0.15162  0.33244  0.29444  1.0000
  C   C1        1.0  0.45832  0.96707  0.08260  1.0000
  S   S1        1.0  0.19820  0.32666  0.25564  1.0000
  C   C2        1.0  0.17737  0.15380  0.11567  1.0000
  H   H1        1.0  0.28517  0.12011  0.04194  1.0000
  S   S2        1.0  0.08424  0.33529  0.28924  1.0000
  Fe  Fe2       1.0  0.27624  0.24893  0.05361  1.0000
  S   S3        1.0  0.27252  0.20458  0.07821  1.0000
  H   H2        1.0  0.22977  0.26551  0.29464  1.0000
  Fe  Fe3       1.0  0.35055  0.26629  0.09265  1.0000
  S   S4        1.0  0.35192  0.22311  0.11941  1.0000
  S   S5        1.0  0.39152  0.30577  0.10214  1.0000
  Fe  Fe4       1.0  0.33997  0.20240  0.07211  1.0000
  S   S6        1.0  0.36603  0.15770  0.05660  1.0000
  Fe  Fe5       1.0  0.28463  0.22923  0.12303  1.0000
  S   S7        1.0  0.24621  0.21836  0.16591  1.0000
  S   S8        1.0  0.34312  0.24538  0.04463  1.0000
  S   S9        1.0  0.28399  0.27371  0.09917  1.0000
  H   H3        1.0  0.04031  0.06732  0.18322  1.0000
  S   S10       1.0  0.09223  0.01289  0.05635  1.0000
  H   H4        1.0  0.38490  0.18760  0.28708  1.0000
  Fe  Fe6       1.0  0.15591  0.99382  0.13053  1.0000
  S   S11       1.0  0.14833  0.04069  0.11277  1.0000
  S   S12       1.0  0.19306  0.97800  0.17206  1.0000
  Fe  Fe7       1.0  0.08296  0.02796  0.10631  1.0000
  C   C3        1.0  0.39896  0.16835  0.24207  1.0000
  Fe  Fe8       1.0  0.15871  0.02111  0.06444  1.0000
  C   C4        1.0  0.30443  0.12227  0.11990  1.0000
  S   S13       1.0  0.08991  0.98263  0.12780  1.0000
  S   S14       1.0  0.16959  0.97476  0.08290  1.0000
  C   C5        1.0  0.37645  0.97074  0.24351  1.0000
  S   S15       1.0  0.39378  0.06415  0.30686  1.0000
  C   C6        1.0  0.14348  0.39011  0.04604  1.0000
  Fe  Fe9       1.0  0.32711  0.05646  0.30274  1.0000
  S   S16       1.0  0.29857  0.06599  0.25537  1.0000
  C   C7        1.0  0.99979  0.96674  0.17964  1.0000
  H   H5        1.0  0.29702  0.36754  0.18044  1.0000
  H   H6        1.0  0.06185  0.17589  0.06189  1.0000
  C   C8        1.0  0.17838  0.18953  0.29016  1.0000
  C   C9        1.0  0.22085  0.00288  0.19591  1.0000
  C   C10       1.0  0.21796  0.03387  0.19230  1.0000
  C   C11       1.0  0.24168  0.05294  0.21100  1.0000
  C   C12       1.0  0.26771  0.04121  0.23389  1.0000
  C   C13       1.0  0.27025  0.01026  0.23779  1.0000
  C   C14       1.0  0.24709  0.99116  0.21865  1.0000
  H   H7        1.0  0.19777  0.04316  0.17493  1.0000
  H   H8        1.0  0.23983  0.07690  0.20773  1.0000
  H   H9        1.0  0.29067  0.00111  0.25508  1.0000
  H   H10       1.0  0.02951  0.22539  0.06735  1.0000
  C   C15       1.0  0.41648  0.15381  0.04382  1.0000
  H   H11       1.0  0.33472  0.12358  0.28246  1.0000
  S   S17       1.0  0.06384  0.42185  0.29110  1.0000
  C   C16       1.0  0.36542  0.32546  0.23481  1.0000
  H   H12       1.0  0.12525  0.38034  0.23944  1.0000
  H   H13       1.0  0.42918  0.20092  0.04054  1.0000
  C   C17       1.0  0.42567  0.10931  0.20349  1.0000
  C   C18       1.0  0.27556  0.29538  0.31129  1.0000
  H   H14       1.0  0.45932  0.10566  0.30152  1.0000
  C   C19       1.0  0.23186  0.43970  0.16749  1.0000
  C   C20       1.0  0.20885  0.29597  0.23065  1.0000
  C   C21       1.0  0.19032  0.26795  0.23372  1.0000
  C   C22       1.0  0.20175  0.24422  0.21370  1.0000
  C   C23       1.0  0.23154  0.24843  0.19050  1.0000
  C   C24       1.0  0.24952  0.27652  0.18736  1.0000
  C   C25       1.0  0.23824  0.30001  0.20735  1.0000
  H   H15       1.0  0.16759  0.26448  0.25160  1.0000
  H   H16       1.0  0.18751  0.22257  0.21620  1.0000
  H   H17       1.0  0.27255  0.28012  0.16976  1.0000
  H   H18       1.0  0.25292  0.32140  0.20505  1.0000
  H   H19       1.0  0.08899  0.16816  0.00344  1.0000
  H   H20       1.0  0.00961  0.96658  0.06287  1.0000
  C   C26       1.0  0.39999  0.20297  0.19837  1.0000
  S   S18       1.0  0.02773  0.05595  0.11728  1.0000
  C   C27       1.0  0.11980  0.11266  0.13682  1.0000
  H   H21       1.0  0.00865  0.36213  0.05321  1.0000
  S   S19       1.0  0.04682  0.41732  0.06989  1.0000
  C   C28       1.0  0.43850  0.33583  0.14387  1.0000
  C   C29       1.0  0.42442  0.30760  0.13482  1.0000
  C   C30       1.0  0.43757  0.28223  0.15138  1.0000
  C   C31       1.0  0.46843  0.12876  0.29968  1.0000
  H   H22       1.0  0.28779  0.44399  0.14224  1.0000
  H   H23       1.0  0.42714  0.26029  0.14440  1.0000
  H   H24       1.0  0.12386  0.17678  0.26600  1.0000
  Fe  Fe10      1.0  0.10245  0.96804  0.07858  1.0000
  C   C32       1.0  0.37327  0.37927  0.23725  1.0000
  H   H25       1.0  0.35482  0.06057  0.05048  1.0000
  H   H26       1.0  0.37814  0.30356  0.23023  1.0000
  H   H27       1.0  0.18126  0.43393  0.19839  1.0000
  H   H28       1.0  0.44232  0.99412  0.02287  1.0000
  H   H29       1.0  0.48996  0.11766  0.20771  1.0000
  C   C33       1.0  0.22432  0.13629  0.04747  1.0000
  H   H30       1.0  0.39835  0.09648  0.13686  1.0000
  C   C34       1.0  0.31584  0.14248  0.27638  1.0000
  C   C35       1.0  0.11472  0.37131  0.03236  1.0000
  S   S20       1.0  0.20637  0.04560  0.03470  1.0000
  H   H31       1.0  0.44889  0.03522  0.24795  1.0000
  C   C36       1.0  0.46164  0.15132  0.12864  1.0000
  H   H32       1.0  0.22257  0.42072  0.24428  1.0000
  H   H33       1.0  0.26218  0.31468  0.29998  1.0000
  H   H34       1.0  0.42862  0.35548  0.13124  1.0000
  H   H35       1.0  0.10230  0.37666  0.00964  1.0000
  C   C37       1.0  0.38933  0.19195  0.26231  1.0000
  H   H36       1.0  0.07831  0.33184  0.03799  1.0000
  C   C38       1.0  0.27975  0.42658  0.22002  1.0000
  C   C39       1.0  0.27381  0.15833  0.01263  1.0000
  C   C40       1.0  0.21378  0.43312  0.19627  1.0000
  H   H37       1.0  0.21642  0.11893  0.06413  1.0000
  C   C41       1.0  0.12363  0.38618  0.21477  1.0000
  Fe  Fe11      1.0  0.08861  0.37960  0.31387  1.0000
  H   H38       1.0  0.20129  0.15215  0.16264  1.0000
  H   H39       1.0  0.02802  0.25968  0.01302  1.0000
  C   C42       1.0  0.24545  0.17954  0.00296  1.0000
  C   C43       1.0  0.11860  0.12280  0.10578  1.0000
  H   H40       1.0  0.18488  0.19568  0.00764  1.0000
  C   C44       1.0  0.30666  0.14802  0.24492  1.0000
  C   C45       1.0  0.12668  0.10194  0.03003  1.0000
  H   H41       1.0  0.14604  0.26781  0.06357  1.0000
  C   C46       1.0  0.37144  0.06004  0.00187  1.0000
  H   H42       1.0  0.15358  0.40994  0.03369  1.0000
  H   H43       1.0  0.09469  0.11483  0.09057  1.0000
  C   C47       1.0  0.33704  0.15420  0.15822  1.0000
  C   C48       1.0  0.10084  0.34618  0.04854  1.0000
  C   C49       1.0  0.43210  0.12496  0.03956  1.0000
  H   H44       1.0  0.00868  0.98942  0.18539  1.0000
  C   C50       1.0  0.10084  0.41938  0.17364  1.0000
  C   C51       1.0  0.26311  0.13653  0.03457  1.0000
  H   H45       1.0  0.47480  0.36104  0.17632  1.0000
  C   C52       1.0  0.43546  0.03424  0.10286  1.0000
  H   H46       1.0  0.14721  0.09269  0.04726  1.0000
  H   H47       1.0  0.27862  0.11714  0.10526  1.0000
  C   C53       1.0  0.30364  0.14727  0.13952  1.0000
  C   C54       1.0  0.38957  0.35090  0.23184  1.0000
  H   H48       1.0  0.41289  0.10593  0.04404  1.0000
  H   H49       1.0  0.44755  0.06569  0.06541  1.0000
  C   C55       1.0  0.39074  0.22653  0.21868  1.0000
  C   C56       1.0  0.38512  0.22099  0.25065  1.0000
  C   C57       1.0  0.40345  0.17363  0.20982  1.0000
  C   C58       1.0  0.01164  0.30559  0.00513  1.0000
  H   H50       1.0  0.48759  0.17462  0.20219  1.0000
  H   H51       1.0  0.38792  0.24903  0.20950  1.0000
  C   C59       1.0  0.47447  0.04262  0.15039  1.0000
  C   C60       1.0  0.46539  0.10235  0.21237  1.0000
  H   H52       1.0  0.39248  0.39857  0.23390  1.0000
  H   H53       1.0  0.36337  0.09414  0.20506  1.0000
  C   C61       1.0  0.48091  0.17432  0.02696  1.0000
  C   C62       1.0  0.39762  0.02508  0.04059  1.0000
  C   C63       1.0  0.37289  0.04950  0.03276  1.0000
  P   P1        1.0  0.39987  0.01193  0.08068  1.0000
  C   C64       1.0  0.34937  0.01400  0.09675  1.0000
  C   C65       1.0  0.41679  0.97345  0.08149  1.0000
  C   C66       1.0  0.17846  0.14365  0.14670  1.0000
  C   C67       1.0  0.29776  0.43253  0.19081  1.0000
  H   H54       1.0  0.37855  0.04721  0.23238  1.0000
  H   H55       1.0  0.42103  0.34858  0.22520  1.0000
  C   C68       1.0  0.38267  0.97016  0.27593  1.0000
  C   C69       1.0  0.34249  0.02296  0.12792  1.0000
  C   C70       1.0  0.30311  0.02473  0.13960  1.0000
  C   C71       1.0  0.27034  0.01779  0.12028  1.0000
  C   C72       1.0  0.27689  0.00896  0.08930  1.0000
  C   C73       1.0  0.31615  0.00696  0.07757  1.0000
  C   C74       1.0  0.25997  0.44614  0.29677  1.0000
  C   C75       1.0  0.11893  0.13277  0.02922  1.0000
  C   C76       1.0  0.44257  0.05559  0.23508  1.0000
  H   H56       1.0  0.30432  0.15897  0.00365  1.0000
  C   C77       1.0  0.11953  0.40126  0.15112  1.0000
  C   C78       1.0  0.42175  0.01205  0.01728  1.0000
  H   H57       1.0  0.11693  0.40747  0.12666  1.0000
  C   C79       1.0  0.27524  0.18508  0.29201  1.0000
  C   C80       1.0  0.39447  0.08914  0.21088  1.0000
  H   H58       1.0  0.31770  0.13308  0.22687  1.0000
  H   H59       1.0  0.36704  0.02901  0.14330  1.0000
  H   H60       1.0  0.29790  0.03173  0.16363  1.0000
  H   H61       1.0  0.23978  0.01939  0.12918  1.0000
  H   H62       1.0  0.25139  0.00405  0.07424  1.0000
  H   H63       1.0  0.32042  0.00019  0.05339  1.0000
  H   H64       1.0  0.43366  0.00576  0.14394  1.0000
  H   H65       1.0  0.99520  0.06179  0.22930  1.0000
  C   C81       1.0  0.14991  0.12287  0.15720  1.0000
  P   P2        1.0  0.31119  0.41892  0.25365  1.0000
  H   H66       1.0  0.47501  0.26580  0.18945  1.0000
  H   H67       1.0  0.48044  0.98497  0.08242  1.0000
  C   C82       1.0  0.46487  0.33896  0.16932  1.0000
  H   H68       1.0  0.09733  0.09676  0.14499  1.0000
  C   C83       1.0  0.28406  0.17317  0.23680  1.0000
  C   C84       1.0  0.26883  0.19187  0.26023  1.0000
  H   H69       1.0  0.19565  0.17172  0.27946  1.0000
  C   C85       1.0  0.45400  0.05935  0.08929  1.0000
  C   C86       1.0  0.44650  0.02566  0.13337  1.0000
  H   H70       1.0  0.33029  0.43209  0.18830  1.0000
  H   H71       1.0  0.27655  0.35858  0.25430  1.0000
  S   S21       1.0  0.15629  0.37807  0.31621  1.0000
  H   H72       1.0  0.27780  0.17797  0.21238  1.0000
  H   H73       1.0  0.25082  0.21102  0.25359  1.0000
  C   C87       1.0  0.12755  0.24776  0.06311  1.0000
  C   C88       1.0  0.33866  0.10409  0.11897  1.0000
  C   C89       1.0  0.37212  0.11088  0.13770  1.0000
  C   C90       1.0  0.14799  0.14292  0.09479  1.0000
  H   H74       1.0  0.08502  0.43943  0.16640  1.0000
  P   P3        1.0  0.14597  0.15741  0.05533  1.0000
  C   C91       1.0  0.19611  0.15820  0.03880  1.0000
  C   C92       1.0  0.08042  0.19586  0.06181  1.0000
  H   H75       1.0  0.43762  0.14090  0.11536  1.0000
  H   H76       1.0  0.33930  0.08493  0.10350  1.0000
  H   H77       1.0  0.37765  0.23916  0.26641  1.0000
  H   H78       1.0  0.21314  0.44533  0.14748  1.0000
  H   H79       1.0  0.08209  0.21614  0.29131  1.0000
  C   C93       1.0  0.11389  0.21411  0.29695  1.0000
  H   H80       1.0  0.00413  0.36400  0.26294  1.0000
  C   C94       1.0  0.06204  0.22385  0.06510  1.0000
  H   H81       1.0  0.07143  0.27152  0.06795  1.0000
  C   C95       1.0  0.14601  0.21978  0.06045  1.0000
  S   S22       1.0  0.22284  0.26227  0.02259  1.0000
  C   C96       1.0  0.40300  0.06232  0.22633  1.0000
  C   C97       1.0  0.47232  0.12068  0.02989  1.0000
  C   C98       1.0  0.08560  0.24982  0.06553  1.0000
  P   P4        1.0  0.41434  0.14361  0.18276  1.0000
  H   H82       1.0  0.08807  0.42573  0.22286  1.0000
  C   C99       1.0  0.23728  0.44767  0.32444  1.0000
  C   C100      1.0  0.13742  0.19206  0.28270  1.0000
  H   H83       1.0  0.27720  0.16150  0.14008  1.0000
  C   C101      1.0  0.27331  0.24242  0.32396  1.0000
  C   C102      1.0  0.38286  0.44173  0.27799  1.0000
  C   C103      1.0  0.44853  0.15062  0.31740  1.0000
  C   C104      1.0  0.30064  0.16116  0.29991  1.0000
  C   C105      1.0  0.23747  0.42621  0.22240  1.0000
  H   H84       1.0  0.17864  0.21867  0.05994  1.0000
  C   C106      1.0  0.27386  0.43922  0.16468  1.0000
  H   H85       1.0  0.40441  0.20762  0.17366  1.0000
  C   C107      1.0  0.30835  0.35670  0.24855  1.0000
  C   C108      1.0  0.35022  0.44690  0.25770  1.0000
  C   C109      1.0  0.10647  0.27517  0.16367  1.0000
  C   C110      1.0  0.13088  0.25230  0.15192  1.0000
  C   C111      1.0  0.16499  0.25935  0.13415  1.0000
  C   C112      1.0  0.17527  0.28921  0.12865  1.0000
  C   C113      1.0  0.15146  0.31237  0.14088  1.0000
  C   C114      1.0  0.11635  0.30509  0.15781  1.0000
  P   P5        1.0  0.16323  0.35084  0.13142  1.0000
  C   C115      1.0  0.14057  0.37542  0.16031  1.0000
  C   C116      1.0  0.21765  0.35495  0.13118  1.0000
  C   C117      1.0  0.23872  0.36252  0.15864  1.0000
  C   C118      1.0  0.28098  0.36283  0.15889  1.0000
  C   C119      1.0  0.30257  0.35612  0.13164  1.0000
  C   C120      1.0  0.28191  0.34936  0.10400  1.0000
  C   C121      1.0  0.23968  0.34852  0.10376  1.0000
  C   C122      1.0  0.44097  0.17855  0.03743  1.0000
  C   C123      1.0  0.14250  0.36811  0.19235  1.0000
  C   C124      1.0  0.14405  0.35882  0.09266  1.0000
  C   C125      1.0  0.11521  0.34001  0.07867  1.0000
  C   C126      1.0  0.45838  0.15568  0.16117  1.0000
  C   C127      1.0  0.01210  0.43127  0.28819  1.0000
  H   H86       1.0  0.38445  0.42130  0.29160  1.0000
  C   C128      1.0  0.15817  0.38389  0.07610  1.0000
  H   H87       1.0  0.07995  0.26972  0.17741  1.0000
  H   H88       1.0  0.12359  0.22910  0.15663  1.0000
  H   H89       1.0  0.18388  0.24164  0.12492  1.0000
  H   H90       1.0  0.20175  0.29405  0.11474  1.0000
  H   H91       1.0  0.09649  0.32243  0.16647  1.0000
  H   H92       1.0  0.22284  0.36721  0.18024  1.0000
  H   H93       1.0  0.33532  0.35543  0.13204  1.0000
  H   H94       1.0  0.29878  0.34347  0.08308  1.0000
  H   H95       1.0  0.22442  0.34179  0.08242  1.0000
  C   C129      1.0  0.20650  0.17921  0.01565  1.0000
  H   H96       1.0  0.15819  0.34818  0.20000  1.0000
  H   H97       1.0  0.10345  0.32075  0.09100  1.0000
  H   H98       1.0  0.19936  0.17025  0.10803  1.0000
  C   C130      1.0  0.33272  0.38237  0.24647  1.0000
  H   H99       1.0  0.40231  0.14609  0.25170  1.0000
  H   H100      1.0  0.18002  0.39887  0.08664  1.0000
  C   C131      1.0  0.10266  0.41175  0.20542  1.0000
  C   C132      1.0  0.32485  0.32835  0.24319  1.0000
  H   H101      1.0  0.11606  0.05922  0.00845  1.0000
  C   C133      1.0  0.12251  0.19370  0.05867  1.0000
  H   H102      1.0  0.15091  0.11482  0.18118  1.0000
  H   H103      1.0  0.30137  0.37705  0.30737  1.0000
  H   H104      1.0  0.30605  0.30857  0.24523  1.0000
  C   C134      1.0  0.46156  0.18047  0.31486  1.0000
  C   C135      1.0  0.37170  0.13614  0.15735  1.0000
  C   C136      1.0  0.46497  0.28533  0.17669  1.0000
  C   C137      1.0  0.28232  0.42032  0.28966  1.0000
  C   C138      1.0  0.25698  0.26739  0.30856  1.0000
  C   C139      1.0  0.99878  0.04681  0.15091  1.0000
  C   C140      1.0  0.47848  0.31386  0.18578  1.0000
  H   H105      1.0  0.33540  0.17366  0.17321  1.0000
  C   C141      1.0  0.01132  0.05643  0.18059  1.0000
  C   C142      1.0  0.47374  0.07561  0.22813  1.0000
  H   H106      1.0  0.24959  0.96719  0.22130  1.0000
  H   H107      1.0  0.25219  0.96723  0.29049  1.0000
  H   H108      1.0  0.99892  0.97466  0.12978  1.0000
  C   C143      1.0  0.09381  0.14432  0.00561  1.0000
  H   H109      1.0  0.44660  0.19766  0.32837  1.0000
  H   H110      1.0  0.18350  0.97776  0.27141  1.0000
  C   C144      1.0  0.28319  0.39669  0.31141  1.0000
  H   H111      1.0  0.40601  0.98397  0.28635  1.0000
  H   H112      1.0  0.26753  0.07619  0.99927  1.0000
  C   C145      1.0  0.19636  0.20959  0.31144  1.0000
  C   C146      1.0  0.13122  0.23340  0.31888  1.0000
  H   H113      1.0  0.48282  0.03592  0.17392  1.0000
  C   C147      1.0  0.49336  0.18847  0.29448  1.0000
  C   C148      1.0  0.99698  0.40927  0.05794  1.0000
  C   C149      1.0  0.49207  0.06800  0.13693  1.0000
  H   H114      1.0  0.48427  0.09835  0.02708  1.0000
  C   C150      1.0  0.10896  0.08285  0.00800  1.0000
  C   C151      1.0  0.00049  0.45429  0.26764  1.0000
  H   H115      1.0  0.39491  0.98502  0.22881  1.0000
  C   C152      1.0  0.48208  0.07619  0.10628  1.0000
  H   H116      1.0  0.30844  0.15658  0.32408  1.0000
  C   C153      1.0  0.31103  0.29851  0.32870  1.0000
  C   C154      1.0  0.17221  0.23110  0.32631  1.0000
  C   C155      1.0  0.48963  0.17053  0.17715  1.0000
  P   P6        1.0  0.24906  0.20630  0.32173  1.0000
  H   H117      1.0  0.43891  0.45895  0.29652  1.0000
  C   C156      1.0  0.03316  0.27943  0.99890  1.0000
  H   H118      1.0  0.11268  0.25015  0.33010  1.0000
  C   C157      1.0  0.38036  0.06598  0.47826  1.0000
  S   S23       1.0  0.08176  0.36086  0.36279  1.0000
  H   H119      1.0  0.18505  0.24611  0.34360  1.0000
  Fe  Fe12      1.0  0.14950  0.35531  0.36280  1.0000
  S   S24       1.0  0.18992  0.36914  0.40366  1.0000
  C   C158      1.0  0.23702  0.42353  0.34527  1.0000
  Fe  Fe13      1.0  0.31568  0.05172  0.37467  1.0000
  H   H120      1.0  0.44528  0.97452  0.51038  1.0000
  S   S25       1.0  0.26668  0.03205  0.40669  1.0000
  C   C159      1.0  0.02547  0.31867  0.52043  1.0000
  C   C160      1.0  0.16891  0.39588  0.56398  1.0000
  S   S26       1.0  0.38151  0.06144  0.38429  1.0000
  H   H121      1.0  0.14373  0.01751  0.40876  1.0000
  C   C161      1.0  0.27863  0.06727  0.59394  1.0000
  C   C162      1.0  0.47126  0.99329  0.38163  1.0000
  H   H122      1.0  0.99816  0.01848  0.66158  1.0000
  C   C163      1.0  0.42486  0.20185  0.42844  1.0000
  C   C164      1.0  0.25012  0.20591  0.38736  1.0000
  C   C165      1.0  0.31880  0.44169  0.39715  1.0000
  C   C166      1.0  0.21549  0.04568  0.50625  1.0000
  C   C167      1.0  0.20645  0.01999  0.48895  1.0000
  C   C168      1.0  0.22335  0.01595  0.45889  1.0000
  C   C169      1.0  0.24942  0.03746  0.44574  1.0000
  C   C170      1.0  0.25951  0.06271  0.46345  1.0000
  C   C171      1.0  0.24258  0.06676  0.49356  1.0000
  H   H123      1.0  0.18594  0.00352  0.49849  1.0000
  H   H124      1.0  0.21565  0.99621  0.44550  1.0000
  H   H125      1.0  0.27953  0.07944  0.45368  1.0000
  H   H126      1.0  0.25000  0.08660  0.50694  1.0000
  C   C172      1.0  0.21573  0.34119  0.42527  1.0000
  C   C173      1.0  0.24064  0.34924  0.45069  1.0000
  C   C174      1.0  0.26131  0.32720  0.46815  1.0000
  C   C175      1.0  0.25708  0.29696  0.46020  1.0000
  C   C176      1.0  0.23263  0.28911  0.43463  1.0000
  C   C177      1.0  0.21194  0.31100  0.41741  1.0000
  H   H127      1.0  0.24378  0.37257  0.45697  1.0000
  H   H128      1.0  0.28018  0.33356  0.48777  1.0000
  H   H129      1.0  0.22918  0.26584  0.42833  1.0000
  H   H130      1.0  0.19284  0.30439  0.39816  1.0000
  Fe  Fe14      1.0  0.08903  0.97537  0.58406  1.0000
  H   H131      1.0  0.36576  0.07630  0.45823  1.0000
  Fe  Fe15      1.0  0.31632  0.26674  0.52690  1.0000
  S   S27       1.0  0.29495  0.23292  0.56254  1.0000
  S   S28       1.0  0.28075  0.26774  0.48125  1.0000
  Fe  Fe16      1.0  0.39456  0.27772  0.56324  1.0000
  S   S29       1.0  0.37867  0.24456  0.60041  1.0000
  S   S30       1.0  0.45658  0.29810  0.56579  1.0000
  Fe  Fe17      1.0  0.35886  0.21552  0.56061  1.0000
  S   S31       1.0  0.37621  0.16662  0.55568  1.0000
  Fe  Fe18      1.0  0.31704  0.26573  0.59898  1.0000
  H   H132      1.0  0.41703  0.24608  0.38079  1.0000
  S   S32       1.0  0.37871  0.24735  0.52336  1.0000
  S   S33       1.0  0.33433  0.30091  0.56332  1.0000
  H   H133      1.0  0.07626  0.42490  0.44074  1.0000
  S   S34       1.0  0.08191  0.02070  0.56192  1.0000
  C   C178      1.0  0.35951  0.06303  0.50662  1.0000
  Fe  Fe19      1.0  0.13814  0.00053  0.63915  1.0000
  S   S35       1.0  0.13475  0.04720  0.62072  1.0000
  H   H134      1.0  0.48671  0.15786  0.45565  1.0000
  Fe  Fe20      1.0  0.06982  0.03647  0.61115  1.0000
  H   H135      1.0  0.34335  0.03035  0.63530  1.0000
  Fe  Fe21      1.0  0.14779  0.02703  0.57320  1.0000
  S   S36       1.0  0.19458  0.05228  0.54399  1.0000
  S   S37       1.0  0.07204  0.99090  0.63237  1.0000
  S   S38       1.0  0.15603  0.98069  0.59266  1.0000
  H   H136      1.0  0.12723  0.41757  0.39010  1.0000
  C   C179      1.0  0.42506  0.15860  0.54093  1.0000
  C   C180      1.0  0.43540  0.12909  0.53283  1.0000
  C   C181      1.0  0.44896  0.29634  0.62977  1.0000
  C   C182      1.0  0.45430  0.18102  0.53832  1.0000
  H   H137      1.0  0.41289  0.11170  0.53434  1.0000
  H   H138      1.0  0.44703  0.20377  0.54488  1.0000
  H   H139      1.0  0.23368  0.01424  0.65701  1.0000
  C   C183      1.0  0.24825  0.08850  0.59852  1.0000
  C   C184      1.0  0.21487  0.26485  0.65429  1.0000
  C   C185      1.0  0.47552  0.29564  0.60429  1.0000
  C   C186      1.0  0.45699  0.16317  0.61608  1.0000
  H   H140      1.0  0.36387  0.18538  0.49065  1.0000
  C   C187      1.0  0.13947  0.39010  0.58670  1.0000
  H   H141      1.0  0.08221  0.01913  0.49710  1.0000
  C   C188      1.0  0.34836  0.17808  0.44222  1.0000
  H   H142      1.0  0.34754  0.17781  0.62183  1.0000
  C   C189      1.0  0.38820  0.43236  0.41304  1.0000
  C   C190      1.0  0.41774  0.03883  0.52968  1.0000
  H   H143      1.0  0.02087  0.42312  0.64485  1.0000
  H   H144      1.0  0.02623  0.30164  0.64074  1.0000
  C   C191      1.0  0.41186  0.19912  0.45970  1.0000
  C   C192      1.0  0.11480  0.43844  0.38146  1.0000
  C   C193      1.0  0.26016  0.39818  0.33888  1.0000
  H   H145      1.0  0.05409  0.25238  0.48757  1.0000
  H   H146      1.0  0.41684  0.29835  0.62584  1.0000
  C   C194      1.0  0.04096  0.38081  0.60542  1.0000
  C   C195      1.0  0.48678  0.96540  0.54758  1.0000
  C   C196      1.0  0.38271  0.36301  0.43587  1.0000
  H   H147      1.0  0.04140  0.39126  0.50953  1.0000
  H   H148      1.0  0.17924  0.36186  0.64405  1.0000
  H   H149      1.0  0.46640  0.36562  0.41417  1.0000
  C   C197      1.0  0.36811  0.33559  0.44698  1.0000
  C   C198      1.0  0.13018  0.00568  0.42835  1.0000
  H   H150      1.0  0.12525  0.15272  0.65024  1.0000
  C   C199      1.0  0.07383  0.44042  0.37383  1.0000
  C   C200      1.0  0.37752  0.32615  0.47733  1.0000
  H   H151      1.0  0.08586  0.96391  0.50046  1.0000
  H   H152      1.0  0.46826  0.09087  0.62584  1.0000
  C   C201      1.0  0.46350  0.44306  0.49258  1.0000
  C   C202      1.0  0.01085  0.36200  0.59365  1.0000
  C   C203      1.0  0.32300  0.18430  0.63711  1.0000
  Fe  Fe22      1.0  0.39337  0.02954  0.34478  1.0000
  H   H153      1.0  0.43142  0.20517  0.47900  1.0000
  P   P7        1.0  0.47626  0.21249  0.41966  1.0000
  C   C204      1.0  0.41974  0.18946  0.65678  1.0000
  C   C205      1.0  0.04035  0.43655  0.65942  1.0000
  H   H154      1.0  0.28717  0.14525  0.55464  1.0000
  C   C206      1.0  0.24719  0.19234  0.41683  1.0000
  S   S39       1.0  0.40700  0.14195  0.34246  1.0000
  H   H155      1.0  0.16893  0.38338  0.54224  1.0000
  H   H156      1.0  0.33523  0.41722  0.43847  1.0000
  C   C207      1.0  0.40167  0.34404  0.49661  1.0000
  C   C208      1.0  0.42521  0.16418  0.63765  1.0000
  C   C209      1.0  0.36126  0.18023  0.41109  1.0000
  P   P8        1.0  0.42370  0.41758  0.44133  1.0000
  C   C210      1.0  0.41892  0.07039  0.60098  1.0000
  C   C211      1.0  0.13848  0.40663  0.61478  1.0000
  C   C212      1.0  0.25091  0.11643  0.58400  1.0000
  H   H157      1.0  0.34157  0.10871  0.54795  1.0000
  H   H158      1.0  0.40925  0.33652  0.52010  1.0000
  Fe  Fe23      1.0  0.08195  0.31645  0.33836  1.0000
  C   C213      1.0  0.37115  0.04288  0.63293  1.0000
  H   H159      1.0  0.11121  0.26359  0.38678  1.0000
  C   C214      1.0  0.31199  0.07389  0.57475  1.0000
  C   C215      1.0  0.44137  0.07722  0.62784  1.0000
  C   C216      1.0  0.32822  0.27354  0.34318  1.0000
  H   H160      1.0  0.36590  0.30498  0.48592  1.0000
  C   C217      1.0  0.28459  0.12347  0.56566  1.0000
  C   C218      1.0  0.00545  0.33347  0.60639  1.0000
  C   C219      1.0  0.48113  0.23929  0.38814  1.0000
  C   C220      1.0  0.12033  0.26208  0.41109  1.0000
  C   C221      1.0  0.15531  0.23606  0.45264  1.0000
  C   C222      1.0  0.14234  0.25764  0.47415  1.0000
  C   C223      1.0  0.11894  0.28205  0.46413  1.0000
  C   C224      1.0  0.10760  0.28387  0.43243  1.0000
  P   P9        1.0  0.10014  0.30887  0.49236  1.0000
  C   C225      1.0  0.05063  0.29766  0.50566  1.0000
  C   C226      1.0  0.13492  0.31131  0.52508  1.0000
  C   C227      1.0  0.12109  0.31140  0.55629  1.0000
  C   C228      1.0  0.14869  0.31180  0.58121  1.0000
  C   C229      1.0  0.19019  0.31219  0.57516  1.0000
  C   C230      1.0  0.20412  0.31225  0.54420  1.0000
  C   C231      1.0  0.17662  0.31191  0.51932  1.0000
  C   C232      1.0  0.47854  0.21245  0.63245  1.0000
  C   C233      1.0  0.35805  0.96702  0.49027  1.0000
  H   H161      1.0  0.27868  0.17857  0.60080  1.0000
  C   C234      1.0  0.03579  0.26883  0.49957  1.0000
  C   C235      1.0  0.09463  0.34499  0.47374  1.0000
  C   C236      1.0  0.12390  0.36744  0.47756  1.0000
  C   C237      1.0  0.11728  0.39612  0.46556  1.0000
  C   C238      1.0  0.08173  0.40249  0.44928  1.0000
  C   C239      1.0  0.05316  0.37998  0.44424  1.0000
  C   C240      1.0  0.05954  0.35135  0.45641  1.0000
  H   H162      1.0  0.17389  0.21762  0.46050  1.0000
  H   H163      1.0  0.15066  0.25517  0.49857  1.0000
  H   H164      1.0  0.08868  0.30187  0.42402  1.0000
  H   H165      1.0  0.08918  0.31091  0.56159  1.0000
  H   H166      1.0  0.13796  0.31165  0.60524  1.0000
  H   H167      1.0  0.21161  0.31221  0.59443  1.0000
  H   H168      1.0  0.23628  0.31214  0.53937  1.0000
  H   H169      1.0  0.18777  0.31163  0.49546  1.0000
  H   H170      1.0  0.03632  0.34105  0.52514  1.0000
  H   H171      1.0  0.25982  0.37959  0.35524  1.0000
  C   C241      1.0  0.48866  0.96627  0.39109  1.0000
  H   H172      1.0  0.15171  0.36308  0.48990  1.0000
  H   H173      1.0  0.48919  0.45986  0.42828  1.0000
  C   C242      1.0  0.47272  0.41315  0.42322  1.0000
  S   S40       1.0  0.44101  0.99360  0.34755  1.0000
  H   H174      1.0  0.03669  0.33433  0.45276  1.0000
  C   C243      1.0  0.33251  0.45786  0.37121  1.0000
  C   C244      1.0  0.09598  0.00650  0.47838  1.0000
  C   C245      1.0  0.06537  0.37155  0.63051  1.0000
  C   C246      1.0  0.19746  0.43437  0.59703  1.0000
  H   H175      1.0  0.42618  0.28186  0.33726  1.0000
  S   S41       1.0  0.29524  0.28204  0.64695  1.0000
  C   C247      1.0  0.46397  0.29592  0.66052  1.0000
  C   C248      1.0  0.24803  0.18858  0.35986  1.0000
  H   H176      1.0  0.22681  0.13253  0.58687  1.0000
  H   H177      1.0  0.46872  0.03264  0.49867  1.0000
  H   H178      1.0  0.21900  0.42431  0.36648  1.0000
  C   C249      1.0  0.99621  0.26131  0.50785  1.0000
  H   H179      1.0  0.32351  0.22629  0.35172  1.0000
  H   H180      1.0  0.22044  0.42272  0.55138  1.0000
  C   C250      1.0  0.24155  0.16141  0.41911  1.0000
  C   C251      1.0  0.23868  0.14408  0.39189  1.0000
  C   C252      1.0  0.24134  0.15765  0.36237  1.0000
  C   C253      1.0  0.47721  0.01901  0.39995  1.0000
  C   C254      1.0  0.02823  0.43117  0.53551  1.0000
  H   H181      1.0  0.00493  0.32390  0.39166  1.0000
  H   H182      1.0  0.43423  0.38519  0.50122  1.0000
  H   H183      1.0  0.13963  0.41350  0.46912  1.0000
  H   H184      1.0  0.40465  0.14536  0.63916  1.0000
  H   H185      1.0  0.48213  0.09936  0.51576  1.0000
  H   H186      1.0  0.46472  0.04013  0.39245  1.0000
  C   C255      1.0  0.13198  0.97448  0.42968  1.0000
  H   H187      1.0  0.23931  0.15084  0.44195  1.0000
  H   H188      1.0  0.23414  0.12009  0.39364  1.0000
  H   H189      1.0  0.14694  0.96298  0.41066  1.0000
  C   C256      1.0  0.19792  0.41800  0.56914  1.0000
  H   H190      1.0  0.11758  0.37278  0.58202  1.0000
  H   H191      1.0  0.21416  0.26091  0.62925  1.0000
  C   C257      1.0  0.41582  0.37170  0.48576  1.0000
  H   H192      1.0  0.28665  0.43931  0.40124  1.0000
  H   H193      1.0  0.02256  0.00580  0.44653  1.0000
  C   C258      1.0  0.14436  0.23830  0.42108  1.0000
  H   H194      1.0  0.27733  0.02212  0.54418  1.0000
  H   H195      1.0  0.25350  0.22997  0.38621  1.0000
  C   C259      1.0  0.31532  0.10249  0.56152  1.0000
  H   H196      1.0  0.37539  0.36975  0.41215  1.0000
  H   H197      1.0  0.15234  0.25278  0.66151  1.0000
  C   C260      1.0  0.43832  0.04136  0.50108  1.0000
  H   H198      1.0  0.34910  0.32169  0.43224  1.0000
  C   C261      1.0  0.49343  0.17398  0.52790  1.0000
  C   C262      1.0  0.37362  0.18754  0.46648  1.0000
  C   C263      1.0  0.42887  0.44367  0.47356  1.0000
  H   H199      1.0  0.24937  0.97129  0.54232  1.0000
  H   H200      1.0  0.34264  0.01988  0.43425  1.0000
  H   H201      1.0  0.15423  0.22154  0.40439  1.0000
  H   H202      1.0  0.08756  0.10498  0.64671  1.0000
  S   S42       1.0  0.07979  0.43863  0.54307  1.0000
  S   S43       1.0  0.32820  0.01795  0.33650  1.0000
  H   H203      1.0  0.22102  0.19343  0.63453  1.0000
  Fe  Fe24      1.0  0.37795  0.09579  0.34526  1.0000
  H   H204      1.0  0.24939  0.20589  0.43792  1.0000
  C   C264      1.0  0.00746  0.27646  0.38289  1.0000
  C   C265      1.0  0.25131  0.19284  0.64407  1.0000
  C   C266      1.0  0.99761  0.44955  0.54710  1.0000
  H   H205      1.0  0.34226  0.17204  0.39223  1.0000
  C   C267      1.0  0.47880  0.25663  0.46534  1.0000
  H   H206      1.0  0.21981  0.45171  0.60094  1.0000
  S   S44       1.0  0.04080  0.27774  0.35041  1.0000
  C   C268      1.0  0.35528  0.00046  0.44576  1.0000
  H   H207      1.0  0.07884  0.33471  0.66200  1.0000
  C   C269      1.0  0.34646  0.42914  0.41811  1.0000
  C   C270      1.0  0.33127  0.00943  0.56949  1.0000
  C   C271      1.0  0.40608  0.38159  0.45539  1.0000
  C   C272      1.0  0.42844  0.06725  0.65726  1.0000
  H   H208      1.0  0.04514  0.40275  0.59507  1.0000
  H   H209      1.0  0.99720  0.99732  0.50079  1.0000
  H   H210      1.0  0.48707  0.42675  0.48848  1.0000
  H   H211      1.0  0.16826  0.44203  0.64086  1.0000
  C   C273      1.0  0.06019  0.34267  0.64289  1.0000
  H   H212      1.0  0.31841  0.00520  0.48693  1.0000
  C   C274      1.0  0.35295  0.98541  0.58233  1.0000
  C   C275      1.0  0.99522  0.06656  0.65913  1.0000
  H   H213      1.0  0.27390  0.96261  0.65338  1.0000
  H   H214      1.0  0.43352  0.45257  0.38279  1.0000
  H   H215      1.0  0.05436  0.42111  0.37632  1.0000
  C   C276      1.0  0.28377  0.18453  0.62506  1.0000
  H   H216      1.0  0.25339  0.96701  0.40203  1.0000
  H   H217      1.0  0.23789  0.14396  0.34154  1.0000
  H   H218      1.0  0.38233  0.98901  0.59282  1.0000
  S   S45       1.0  0.02195  0.07030  0.62347  1.0000
  H   H219      1.0  0.43564  0.05738  0.45337  1.0000
  H   H220      1.0  0.40976  0.19235  0.38021  1.0000
  H   H221      1.0  0.27565  0.04564  0.60509  1.0000
  H   H222      1.0  0.35019  0.34020  0.64904  1.0000
  C   C277      1.0  0.29404  0.00398  0.55488  1.0000
  C   C278      1.0  0.11231  0.02169  0.45274  1.0000
  C   C279      1.0  0.30978  0.24549  0.34046  1.0000
  H   H223      1.0  0.00322  0.22851  0.38023  1.0000
  C   C280      1.0  0.44723  0.25195  0.37350  1.0000
  C   C281      1.0  0.38410  0.05257  0.60326  1.0000
  C   C282      1.0  0.03028  0.32375  0.63086  1.0000
  C   C283      1.0  0.47466  0.12205  0.52233  1.0000
  C   C284      1.0  0.38515  0.98375  0.43078  1.0000
  C   C285      1.0  0.48345  0.18737  0.61331  1.0000
  C   C286      1.0  0.41975  0.05523  0.47550  1.0000
  C   C287      1.0  0.39311  0.05033  0.65985  1.0000
  H   H224      1.0  0.45095  0.26471  0.45508  1.0000
  H   H225      1.0  0.42841  0.07959  0.57868  1.0000
  P   P10       1.0  0.35182  0.04679  0.56974  1.0000
  H   H226      1.0  0.43251  0.02798  0.54924  1.0000
  C   C288      1.0  0.37850  0.05034  0.53289  1.0000
  H   H227      1.0  0.31920  0.16854  0.44772  1.0000
  H   H228      1.0  0.22194  0.08290  0.61247  1.0000
  H   H229      1.0  0.35554  0.27595  0.35685  1.0000
  C   C289      1.0  0.34172  0.99215  0.47551  1.0000
  S   S46       1.0  0.14938  0.30960  0.34130  1.0000
  C   C290      1.0  0.39948  0.19188  0.40428  1.0000
  H   H230      1.0  0.32858  0.07062  0.50786  1.0000
  C   C291      1.0  0.27812  0.97506  0.55380  1.0000
  C   C292      1.0  0.09780  0.97525  0.47995  1.0000
  H   H231      1.0  0.02568  0.38483  0.43144  1.0000
  C   C293      1.0  0.45222  0.27264  0.34912  1.0000
  P   P11       1.0  0.10365  0.39646  0.64584  1.0000
  H   H232      1.0  0.47974  0.29085  0.50093  1.0000
  H   H233      1.0  0.11184  0.04593  0.45205  1.0000
  H   H234      1.0  0.46033  0.14402  0.60075  1.0000
  C   C294      1.0  0.16779  0.42889  0.61967  1.0000
  H   H235      1.0  0.39516  0.99021  0.40756  1.0000
  C   C295      1.0  0.40168  0.44887  0.38700  1.0000
  S   S47       1.0  0.31059  0.08967  0.34010  1.0000
  H   H236      1.0  0.42345  0.35092  0.65400  1.0000
  C   C296      1.0  0.01773  0.40553  0.51829  1.0000
  C   C297      1.0  0.48563  0.38513  0.41222  1.0000
  C   C298      1.0  0.08140  0.42952  0.66349  1.0000
  C   C299      1.0  0.44698  0.21348  0.65423  1.0000
  H   H237      1.0  0.34740  0.96088  0.51332  1.0000
  C   C300      1.0  0.49092  0.28144  0.33986  1.0000
  H   H238      1.0  0.32512  0.32028  0.33094  1.0000
  Fe  Fe25      1.0  0.06511  0.26476  0.83259  1.0000
  S   S48       1.0  0.08848  0.30383  0.86021  1.0000
  H   H239      1.0  0.32191  0.32249  0.74219  1.0000
  Fe  Fe26      1.0  0.12387  0.27477  0.77764  1.0000
  S   S49       1.0  0.15154  0.31447  0.80157  1.0000
  S   S50       1.0  0.13574  0.25913  0.72738  1.0000
  Fe  Fe27      1.0  0.14979  0.28678  0.84592  1.0000
  S   S51       1.0  0.20775  0.28445  0.87498  1.0000
  Fe  Fe28      1.0  0.08791  0.32797  0.81367  1.0000
  S   S52       1.0  0.06923  0.37636  0.80514  1.0000
  S   S53       1.0  0.12626  0.24585  0.82093  1.0000
  S   S54       1.0  0.06030  0.28999  0.78721  1.0000
  Fe  Fe29      1.0  0.38429  0.08865  0.83270  1.0000
  S   S55       1.0  0.40830  0.05070  0.80430  1.0000
  S   S56       1.0  0.41215  0.13476  0.82490  1.0000
  Fe  Fe30      1.0  0.31691  0.04993  0.86224  1.0000
  S   S57       1.0  0.33694  0.00992  0.83414  1.0000
  S   S58       1.0  0.26026  0.03727  0.89042  1.0000
  Fe  Fe31      1.0  0.39953  0.02360  0.84780  1.0000
  S   S59       1.0  0.44154  0.98579  0.86004  1.0000
  Fe  Fe32      1.0  0.34345  0.04068  0.79315  1.0000
  S   S60       1.0  0.33175  0.02979  0.74179  1.0000
  S   S61       1.0  0.37999  0.06207  0.87806  1.0000
  S   S62       1.0  0.31916  0.08018  0.81948  1.0000
  C   C301      1.0  0.37404  0.18741  0.96278  1.0000
  C   C302      1.0  0.11855  0.14018  0.67137  1.0000
  C   C303      1.0  0.47129  0.98845  0.89416  1.0000
  H   H240      1.0  0.40202  0.40721  0.84167  1.0000
  C   C304      1.0  0.01681  0.33073  0.98604  1.0000
  C   C305      1.0  0.00185  0.36314  0.70111  1.0000
  C   C306      1.0  0.04991  0.15547  0.81977  1.0000
  C   C307      1.0  0.08318  0.09436  0.98507  1.0000
  H   H241      1.0  0.04602  0.02284  0.99151  1.0000
  C   C308      1.0  0.30254  0.32710  0.76198  1.0000
  H   H242      1.0  0.14634  0.17235  0.70227  1.0000
  C   C309      1.0  0.20409  0.02151  0.97426  1.0000
  C   C310      1.0  0.21630  0.02035  0.94251  1.0000
  C   C311      1.0  0.24729  0.03904  0.93107  1.0000
  C   C312      1.0  0.26609  0.05885  0.95193  1.0000
  C   C313      1.0  0.25339  0.06033  0.98355  1.0000
  C   C314      1.0  0.48064  0.01590  0.90838  1.0000
  H   H243      1.0  0.20167  0.00482  0.92670  1.0000
  H   H244      1.0  0.28974  0.07352  0.94355  1.0000
  C   C315      1.0  0.23646  0.96930  0.80977  1.0000
  H   H245      1.0  0.36300  0.25320  0.67802  1.0000
  H   H246      1.0  0.02994  0.40087  0.88196  1.0000
  C   C316      1.0  0.27611  0.02302  0.69459  1.0000
  C   C317      1.0  0.28255  0.02342  0.72716  1.0000
  C   C318      1.0  0.25043  0.01701  0.74724  1.0000
  C   C319      1.0  0.42150  0.14356  0.71451  1.0000
  C   C320      1.0  0.01128  0.35946  0.90380  1.0000
  C   C321      1.0  0.39090  0.09765  0.73300  1.0000
  H   H247      1.0  0.25492  0.01788  0.77233  1.0000
  H   H248      1.0  0.38209  0.04366  0.68279  1.0000
  H   H249      1.0  0.15698  0.37314  0.85428  1.0000
  C   C322      1.0  0.21276  0.00856  0.73483  1.0000
  H   H250      1.0  0.31876  0.42707  0.69484  1.0000
  C   C323      1.0  0.18026  0.26559  0.70521  1.0000
  C   C324      1.0  0.21609  0.27511  0.71936  1.0000
  C   C325      1.0  0.25102  0.27956  0.70106  1.0000
  C   C326      1.0  0.10479  0.44747  0.68351  1.0000
  H   H251      1.0  0.18068  0.00676  0.98278  1.0000
  C   C327      1.0  0.17989  0.26031  0.67263  1.0000
  H   H252      1.0  0.21681  0.27894  0.74441  1.0000
  P   P12       1.0  0.31454  0.38806  0.74976  1.0000
  H   H253      1.0  0.45016  0.37482  0.70200  1.0000
  C   C328      1.0  0.21102  0.27655  0.91579  1.0000
  C   C329      1.0  0.17689  0.27570  0.93508  1.0000
  C   C330      1.0  0.18111  0.27111  0.96767  1.0000
  H   H254      1.0  0.07556  0.25774  0.96810  1.0000
  C   C331      1.0  0.25345  0.26688  0.96186  1.0000
  C   C332      1.0  0.24921  0.27195  0.92936  1.0000
  H   H255      1.0  0.14739  0.27909  0.92492  1.0000
  C   C333      1.0  0.43697  0.27733  0.84553  1.0000
  C   C334      1.0  0.36165  0.35160  0.66972  1.0000
  H   H256      1.0  0.27568  0.27246  0.91467  1.0000
  C   C335      1.0  0.48317  0.01247  0.70941  1.0000
  C   C336      1.0  0.46614  0.16922  0.79177  1.0000
  C   C337      1.0  0.45612  0.14021  0.80163  1.0000
  H   H257      1.0  0.17838  0.43192  0.73498  1.0000
  H   H258      1.0  0.44690  0.18761  0.79828  1.0000
  C   C338      1.0  0.04313  0.32969  0.96023  1.0000
  P   P13       1.0  0.04901  0.36146  0.93436  1.0000
  H   H259      1.0  0.07062  0.07669  0.69439  1.0000
  C   C339      1.0  0.08309  0.03103  0.73588  1.0000
  C   C340      1.0  0.27665  0.40985  0.72952  1.0000
  C   C341      1.0  0.06621  0.00256  0.73202  1.0000
  H   H260      1.0  0.39362  0.05445  0.95465  1.0000
  C   C342      1.0  0.39148  0.38013  0.72343  1.0000
  C   C343      1.0  0.26014  0.44621  0.68909  1.0000
  C   C344      1.0  0.03767  0.39559  0.95514  1.0000
  C   C345      1.0  0.26098  0.30800  0.80414  1.0000
  C   C346      1.0  0.25244  0.33719  0.81363  1.0000
  C   C347      1.0  0.07353  0.13315  0.80588  1.0000
  C   C348      1.0  0.20679  0.00680  0.70231  1.0000
  H   H261      1.0  0.36695  0.37497  0.80314  1.0000
  H   H262      1.0  0.47423  0.09408  0.80028  1.0000
  H   H263      1.0  0.37332  0.99239  0.90111  1.0000
  H   H264      1.0  0.26280  0.38394  0.80545  1.0000
  H   H265      1.0  0.44337  0.29734  0.68011  1.0000
  C   C349      1.0  0.28649  0.30293  0.77865  1.0000
  C   C350      1.0  0.37940  0.44828  0.82215  1.0000
  H   H266      1.0  0.13589  0.44197  0.68794  1.0000
  H   H267      1.0  0.46929  0.99107  0.79691  1.0000
  P   P14       1.0  0.08842  0.08802  0.76184  1.0000
  C   C351      1.0  0.13363  0.07968  0.78371  1.0000
  C   C352      1.0  0.10072  0.10761  0.72601  1.0000
  C   C353      1.0  0.33954  0.41187  0.77812  1.0000
  H   H268      1.0  0.42376  0.23994  0.78346  1.0000
  C   C354      1.0  0.12171  0.13491  0.72783  1.0000
  H   H269      1.0  0.46902  0.03649  0.89864  1.0000
  C   C355      1.0  0.28805  0.42736  0.70356  1.0000
  C   C356      1.0  0.17177  0.08105  0.76933  1.0000
  C   C357      1.0  0.20652  0.07421  0.78649  1.0000
  C   C358      1.0  0.20339  0.06524  0.81780  1.0000
  C   C359      1.0  0.16551  0.06315  0.83206  1.0000
  C   C360      1.0  0.13067  0.07025  0.81506  1.0000
  C   C361      1.0  0.06426  0.05226  0.75527  1.0000
  H   H270      1.0  0.06969  0.07954  0.96791  1.0000
  C   C362      1.0  0.01407  0.33939  0.72014  1.0000
  H   H271      1.0  0.37247  0.45409  0.90054  1.0000
  C   C363      1.0  0.05911  0.44135  0.98094  1.0000
  C   C364      1.0  0.01662  0.11840  0.77367  1.0000
  H   H272      1.0  0.11098  0.03640  0.72378  1.0000
  C   C365      1.0  0.33662  0.99530  0.94249  1.0000
  C   C366      1.0  0.19590  0.96505  0.80213  1.0000
  H   H273      1.0  0.44847  0.15682  0.71053  1.0000
  C   C367      1.0  0.05957  0.27826  0.97340  1.0000
  H   H274      1.0  0.42001  0.00126  0.70457  1.0000
  H   H275      1.0  0.17486  0.08702  0.74483  1.0000
  H   H276      1.0  0.23591  0.07549  0.77537  1.0000
  H   H277      1.0  0.23030  0.05973  0.83101  1.0000
  H   H278      1.0  0.16335  0.05602  0.85634  1.0000
  H   H279      1.0  0.10143  0.06835  0.82630  1.0000
  H   H280      1.0  0.36746  0.27564  0.93594  1.0000
  H   H281      1.0  0.44533  0.07316  0.67810  1.0000
  C   C368      1.0  0.33002  0.19256  0.66839  1.0000
  H   H282      1.0  0.13092  0.14383  0.75036  1.0000
  C   C369      1.0  0.99726  0.40312  0.96135  1.0000
  C   C370      1.0  0.14133  0.36265  0.73020  1.0000
  C   C371      1.0  0.17705  0.34784  0.72231  1.0000
  C   C372      1.0  0.19058  0.34783  0.69125  1.0000
  C   C373      1.0  0.48657  0.96199  0.90689  1.0000
  C   C374      1.0  0.13057  0.15112  0.70062  1.0000
  C   C375      1.0  0.11918  0.37749  0.70707  1.0000
  C   C376      1.0  0.21938  0.26676  0.98126  1.0000
  H   H283      1.0  0.18817  0.00304  0.75046  1.0000
  H   H284      1.0  0.29329  0.28020  0.77149  1.0000
  H   H285      1.0  0.09991  0.41013  0.95997  1.0000
  C   C377      1.0  0.43296  0.13027  0.93044  1.0000
  S   S63       1.0  0.01196  0.23664  0.84817  1.0000
  H   H286      1.0  0.41137  0.19583  0.75001  1.0000
  H   H287      1.0  0.41940  0.15578  0.88909  1.0000
  C   C378      1.0  0.35276  0.10872  0.72550  1.0000
  H   H288      1.0  0.24482  0.98531  0.82780  1.0000
  C   C379      1.0  0.34020  0.18757  0.94318  1.0000
  C   C380      1.0  0.03083  0.99482  0.74796  1.0000
  H   H289      1.0  0.31371  0.17460  0.94929  1.0000
  H   H290      1.0  0.13053  0.36251  0.75423  1.0000
  H   H291      1.0  0.19402  0.33609  0.74019  1.0000
  H   H292      1.0  0.15458  0.27108  0.98249  1.0000
  H   H293      1.0  0.32669  0.01781  0.93733  1.0000
  H   H294      1.0  0.09153  0.38871  0.71373  1.0000
  C   C381      1.0  0.44270  0.14426  0.90215  1.0000
  C   C382      1.0  0.06853  0.41512  0.96467  1.0000
  H   H295      1.0  0.39671  0.43766  0.95292  1.0000
  H   H296      1.0  0.45457  0.10641  0.73338  1.0000
  C   C383      1.0  0.01886  0.44835  0.98755  1.0000
  H   H297      1.0  0.24774  0.28929  0.81656  1.0000
  C   C384      1.0  0.44054  0.99521  0.75191  1.0000
  C   C385      1.0  0.26909  0.36144  0.79740  1.0000
  C   C386      1.0  0.39480  0.04640  0.97864  1.0000
  C   C387      1.0  0.32584  0.19666  0.80146  1.0000
  C   C388      1.0  0.28526  0.20514  0.80124  1.0000
  C   C389      1.0  0.27117  0.22591  0.82316  1.0000
  C   C390      1.0  0.29775  0.23857  0.84494  1.0000
  C   C391      1.0  0.33885  0.23083  0.84480  1.0000
  C   C392      1.0  0.35244  0.20924  0.82328  1.0000
  P   P15       1.0  0.37287  0.24627  0.87389  1.0000
  C   C393      1.0  0.35544  0.28274  0.88635  1.0000
  C   C394      1.0  0.37427  0.22178  0.90760  1.0000
  C   C395      1.0  0.40837  0.22125  0.92723  1.0000
  C   C396      1.0  0.40820  0.20406  0.95468  1.0000
  C   C397      1.0  0.22086  0.44817  0.70065  1.0000
  C   C398      1.0  0.48607  0.22676  0.84122  1.0000
  C   C399      1.0  0.34017  0.20481  0.91580  1.0000
  C   C400      1.0  0.35640  0.29088  0.91822  1.0000
  C   C401      1.0  0.34188  0.31878  0.92781  1.0000
  C   C402      1.0  0.32689  0.33894  0.90569  1.0000
  C   C403      1.0  0.32655  0.33128  0.87390  1.0000
  C   C404      1.0  0.34051  0.30323  0.86424  1.0000
  H   H298      1.0  0.04278  0.34042  0.73233  1.0000
  C   C405      1.0  0.22206  0.04191  0.99486  1.0000
  C   C406      1.0  0.47545  0.27950  0.83213  1.0000
  C   C407      1.0  0.48146  0.11657  0.79304  1.0000
  H   H299      1.0  0.33670  0.17985  0.78516  1.0000
  H   H300      1.0  0.26455  0.19519  0.78454  1.0000
  H   H301      1.0  0.23944  0.23194  0.82366  1.0000
  H   H302      1.0  0.28590  0.25409  0.86210  1.0000
  H   H303      1.0  0.38332  0.20159  0.82347  1.0000
  H   H304      1.0  0.43476  0.23460  0.92178  1.0000
  H   H305      1.0  0.06293  0.17049  0.83704  1.0000
  C   C408      1.0  0.05155  0.00059  0.98240  1.0000
  C   C409      1.0  0.46254  0.11472  0.94700  1.0000
  H   H306      1.0  0.31323  0.20520  0.90143  1.0000
  H   H307      1.0  0.10497  0.13139  0.81248  1.0000
  H   H308      1.0  0.43444  0.20382  0.96990  1.0000
  H   H309      1.0  0.31505  0.34698  0.85682  1.0000
  H   H310      1.0  0.33953  0.29747  0.83956  1.0000
  C   C410      1.0  0.02143  0.38527  0.78887  1.0000
  C   C411      1.0  0.08886  0.99358  0.96904  1.0000
  C   C412      1.0  0.36338  0.39901  0.80181  1.0000
  C   C413      1.0  0.01240  0.23068  0.91241  1.0000
  C   C414      1.0  0.25805  0.20096  0.67527  1.0000
  H   H311      1.0  0.05629  0.13413  0.96571  1.0000
  C   C415      1.0  0.41793  0.37107  0.69966  1.0000
  C   C416      1.0  0.11033  0.36955  0.88924  1.0000
  H   H312      1.0  0.40237  0.13119  0.93937  1.0000
  H   H313      1.0  0.41119  0.98833  0.76055  1.0000
  H   H314      1.0  0.45499  0.10371  0.96885  1.0000
  C   C417      1.0  0.16843  0.36254  0.66802  1.0000
  H   H315      1.0  0.08075  0.98652  0.71669  1.0000
  C   C418      1.0  0.48196  0.14239  0.89010  1.0000
  C   C419      1.0  0.09730  0.11323  0.66939  1.0000
  H   H316      1.0  0.99730  0.29695  0.74014  1.0000
  H   H317      1.0  0.39390  0.07553  0.74293  1.0000
  H   H318      1.0  0.01467  0.05933  0.78782  1.0000
  H   H319      1.0  0.08722  0.37538  0.87256  1.0000
  H   H320      1.0  0.17295  0.97799  0.81406  1.0000
  C   C420      1.0  0.06381  0.30302  0.95371  1.0000
  C   C421      1.0  0.10074  0.36184  0.92032  1.0000
  C   C422      1.0  0.15024  0.36810  0.87860  1.0000
  C   C423      1.0  0.18097  0.35907  0.89892  1.0000
  C   C424      1.0  0.17193  0.35195  0.93003  1.0000
  C   C425      1.0  0.13211  0.35348  0.94075  1.0000
  C   C426      1.0  0.42279  0.24974  0.85698  1.0000
  H   H321      1.0  0.08283  0.30118  0.93316  1.0000
  H   H322      1.0  0.21165  0.35685  0.89044  1.0000
  H   H323      1.0  0.19564  0.34431  0.94563  1.0000
  C   C427      1.0  0.33568  0.44318  0.77686  1.0000
  H   H324      1.0  0.03984  0.21795  0.90929  1.0000
  C   C428      1.0  0.02924  0.04402  0.77181  1.0000
  H   H325      1.0  0.37391  0.17442  0.98430  1.0000
  H   H326      1.0  0.31749  0.45391  0.75904  1.0000
  C   C429      1.0  0.38334  0.15467  0.70632  1.0000
  C   C430      1.0  0.34890  0.13708  0.71209  1.0000
  C   C431      1.0  0.36291  0.98088  0.92193  1.0000
  C   C432      1.0  0.07560  0.12509  0.98388  1.0000
  P   P16       1.0  0.37963  0.18975  0.68561  1.0000
  H   H327      1.0  0.22657  0.39794  0.75998  1.0000
  C   C433      1.0  0.40295  0.35727  0.67265  1.0000
  C   C434      1.0  0.32367  0.98091  0.96977  1.0000
  C   C435      1.0  0.38609  0.22124  0.71165  1.0000
  C   C436      1.0  0.37543  0.24996  0.70131  1.0000
  C   C437      1.0  0.38204  0.27484  0.72047  1.0000
  C   C438      1.0  0.39941  0.27125  0.75011  1.0000
  C   C439      1.0  0.40971  0.24268  0.76072  1.0000
  C   C440      1.0  0.40293  0.21771  0.74160  1.0000
  H   H328      1.0  0.31906  0.14475  0.70584  1.0000
  C   C441      1.0  0.13283  0.37786  0.67585  1.0000
  H   H329      1.0  0.30193  0.20768  0.71152  1.0000
  H   H330      1.0  0.44410  0.23316  0.66878  1.0000
  H   H331      1.0  0.99574  0.34150  0.79535  1.0000
  H   H332      1.0  0.30309  0.35624  0.69060  1.0000
  C   C442      1.0  0.38328  0.41718  0.82367  1.0000
  C   C443      1.0  0.09631  0.96464  0.95798  1.0000
  H   H333      1.0  0.37485  0.29695  0.71174  1.0000
  H   H334      1.0  0.40566  0.29064  0.76456  1.0000
  C   C444      1.0  0.44551  0.00282  0.72038  1.0000
  H   H335      1.0  0.32620  0.09510  0.72977  1.0000
  H   H336      1.0  0.25373  0.19667  0.98615  1.0000
  C   C445      1.0  0.01400  0.41445  0.77802  1.0000
  H   H337      1.0  0.27866  0.28684  0.71206  1.0000
  H   H338      1.0  0.23288  0.34083  0.83369  1.0000
  C   C446      1.0  0.42516  0.11505  0.72753  1.0000
  H   H339      1.0  0.35222  0.07884  0.99601  1.0000
  C   C447      1.0  0.05690  0.11421  0.78290  1.0000
  C   C448      1.0  0.29726  0.20113  0.68732  1.0000
  S   S64       1.0  0.16150  0.99095  0.68803  1.0000
  C   C449      1.0  0.20894  0.43045  0.72604  1.0000
  H   H340      1.0  0.12578  0.34722  0.96479  1.0000
  H   H341      1.0  0.34176  0.32455  0.95253  1.0000
  C   C450      1.0  0.08806  0.09707  0.69658  1.0000
  H   H342      1.0  0.40378  0.39123  0.74385  1.0000
  C   C451      1.0  0.34978  0.37523  0.72030  1.0000
  H   H343      1.0  0.41869  0.29725  0.84686  1.0000
  H   H344      1.0  0.31530  0.36042  0.91324  1.0000
  C   C452      1.0  0.44776  0.22449  0.85474  1.0000
  H   H345      1.0  0.43741  0.20287  0.86293  1.0000
  H   H346      1.0  0.03777  0.43100  0.77924  1.0000
  C   C453      1.0  0.29345  0.35660  0.77088  1.0000
  C   C454      1.0  0.33510  0.36060  0.69339  1.0000
  H   H347      1.0  0.01764  0.97282  0.74494  1.0000
  H   H348      1.0  0.30066  0.02844  0.67896  1.0000
  H   H349      1.0  0.33137  0.97033  0.71200  1.0000
  H   H350      1.0  0.23297  0.20779  0.68995  1.0000
  C   C455      1.0  0.25063  0.27452  0.66851  1.0000
  H   H351      1.0  0.30339  0.99241  0.98572  1.0000
  C   C456      1.0  0.47324  0.99702  0.77247  1.0000
  H   H352      1.0  0.00892  0.22236  0.96221  1.0000
  H   H353      1.0  0.28307  0.26359  0.97197  1.0000
  C   C457      1.0  0.41971  0.02232  0.98635  1.0000
  C   C458      1.0  0.23817  0.01515  0.68214  1.0000
  C   C459      1.0  0.00968  0.15913  0.81078  1.0000
  H   H354      1.0  0.43751  0.01155  0.96834  1.0000
  C   C460      1.0  0.01243  0.01554  0.76788  1.0000
  H   H355      1.0  0.21803  0.33610  0.68504  1.0000
  H   H356      1.0  0.02082  0.38272  0.69873  1.0000
  C   C461      1.0  0.02167  0.97867  0.98479  1.0000
  C   C462      1.0  0.23663  0.41120  0.74034  1.0000
  C   C463      1.0  0.00794  0.38303  0.88226  1.0000
  H   H357      1.0  0.11210  0.01057  0.96748  1.0000
  H   H358      1.0  0.00362  0.10478  0.75523  1.0000
  H   H359      1.0  0.48637  0.30075  0.82326  1.0000
  H   H360      1.0  0.08321  0.45593  0.98892  1.0000
  C   C464      1.0  0.99481  0.23313  0.94234  1.0000
  H   H361      1.0  0.48659  0.01823  0.68485  1.0000
  H   H362      1.0  0.03496  0.45776  0.91494  1.0000
  H   H363      1.0  0.99958  0.35056  0.99124  1.0000
  H   H364      1.0  0.48834  0.15217  0.86739  1.0000
  H   H365      1.0  0.26915  0.45992  0.66928  1.0000
  Fe  Fe33      1.0  0.13007  0.79051  0.29551  1.0000
  H   H366      1.0  0.09600  0.94463  0.19423  1.0000
  S   S65       1.0  0.13982  0.77857  0.24427  1.0000
  C   C465      1.0  0.32762  0.53458  0.02406  1.0000
  C   C466      1.0  0.27883  0.86784  0.00792  1.0000
  S   S66       1.0  0.06507  0.80126  0.30461  1.0000
  Fe  Fe34      1.0  0.29888  0.77152  0.06471  1.0000
  S   S67       1.0  0.30363  0.72571  0.08637  1.0000
  S   S68       1.0  0.24125  0.78347  0.03851  1.0000
  Fe  Fe35      1.0  0.37648  0.79228  0.09668  1.0000
  S   S69       1.0  0.38709  0.74812  0.11978  1.0000
  S   S70       1.0  0.41575  0.83271  0.10561  1.0000
  Fe  Fe36      1.0  0.36942  0.72879  0.07323  1.0000
  S   S71       1.0  0.39813  0.68674  0.05380  1.0000
  Fe  Fe37      1.0  0.32075  0.74939  0.13088  1.0000
  S   S72       1.0  0.30435  0.73683  0.18091  1.0000
  S   S73       1.0  0.36365  0.77314  0.04863  1.0000
  S   S74       1.0  0.31125  0.79497  0.11049  1.0000
  C   C467      1.0  0.40880  0.52425  0.06161  1.0000
  S   S75       1.0  0.06890  0.50082  0.03957  1.0000
  H   H367      1.0  0.43546  0.50622  0.26657  1.0000
  Fe  Fe38      1.0  0.12860  0.50033  0.11834  1.0000
  S   S76       1.0  0.13069  0.53969  0.08522  1.0000
  S   S77       1.0  0.15317  0.49473  0.16778  1.0000
  Fe  Fe39      1.0  0.06370  0.53154  0.08099  1.0000
  C   C468      1.0  0.12520  0.84198  0.01922  1.0000
  Fe  Fe40      1.0  0.13582  0.50555  0.04642  1.0000
  H   H368      1.0  0.34103  0.95370  0.20503  1.0000
  S   S78       1.0  0.06121  0.49456  0.11635  1.0000
  C   C469      1.0  0.34620  0.95306  0.23013  1.0000
  H   H369      1.0  0.45431  0.89094  0.08458  1.0000
  S   S79       1.0  0.38669  0.57503  0.28687  1.0000
  C   C470      1.0  0.38901  0.94962  0.08119  1.0000
  Fe  Fe41      1.0  0.32507  0.55705  0.27605  1.0000
  S   S80       1.0  0.30969  0.55722  0.22404  1.0000
  S   S81       1.0  0.37536  0.65162  0.32503  1.0000
  H   H370      1.0  0.01157  0.46812  0.00102  1.0000
  P   P17       1.0  0.37468  0.53627  0.00262  1.0000
  H   H371      1.0  0.48694  0.68543  0.17768  1.0000
  C   C471      1.0  0.19656  0.51260  0.18299  1.0000
  C   C472      1.0  0.20759  0.50732  0.21435  1.0000
  C   C473      1.0  0.24193  0.52111  0.22738  1.0000
  C   C474      1.0  0.26544  0.54035  0.20910  1.0000
  C   C475      1.0  0.25423  0.54580  0.17782  1.0000
  C   C476      1.0  0.22005  0.53188  0.16471  1.0000
  H   H372      1.0  0.18963  0.49232  0.22857  1.0000
  H   H373      1.0  0.25034  0.51675  0.25147  1.0000
  H   H374      1.0  0.27188  0.56100  0.16374  1.0000
  H   H375      1.0  0.21177  0.53618  0.14059  1.0000
  C   C477      1.0  0.44520  0.68457  0.03456  1.0000
  C   C478      1.0  0.29425  0.85446  0.03499  1.0000
  C   C479      1.0  0.41533  0.52628  0.02905  1.0000
  C   C480      1.0  0.05237  0.54566  0.24794  1.0000
  H   H376      1.0  0.27199  0.57490  0.07653  1.0000
  H   H377      1.0  0.46019  0.73122  0.03879  1.0000
  C   C481      1.0  0.01130  0.88935  0.29824  1.0000
  C   C482      1.0  0.48678  0.64776  0.28471  1.0000
  C   C483      1.0  0.48620  0.80696  0.17968  1.0000
  H   H378      1.0  0.29835  0.92163  0.23848  1.0000
  C   C484      1.0  0.18602  0.76685  0.22750  1.0000
  C   C485      1.0  0.19023  0.76774  0.19473  1.0000
  C   C486      1.0  0.22660  0.75915  0.18026  1.0000
  C   C487      1.0  0.25871  0.74876  0.19845  1.0000
  C   C488      1.0  0.25414  0.74700  0.23121  1.0000
  C   C489      1.0  0.21808  0.75636  0.24577  1.0000
  H   H379      1.0  0.16529  0.77533  0.18050  1.0000
  H   H380      1.0  0.22965  0.76014  0.15503  1.0000
  H   H381      1.0  0.27872  0.73860  0.24538  1.0000
  H   H382      1.0  0.21503  0.75525  0.27102  1.0000
  C   C490      1.0  0.17578  0.54284  0.28754  1.0000
  C   C491      1.0  0.42940  0.69132  0.29876  1.0000
  C   C492      1.0  0.42166  0.66139  0.30683  1.0000
  C   C493      1.0  0.45082  0.63974  0.30011  1.0000
  C   C494      1.0  0.18973  0.55178  0.31693  1.0000
  C   C495      1.0  0.48219  0.93200  0.00658  1.0000
  C   C496      1.0  0.33942  0.86346  0.28363  1.0000
  H   H383      1.0  0.07415  0.85732  0.08386  1.0000
  C   C497      1.0  0.44594  0.83248  0.13986  1.0000
  C   C498      1.0  0.46063  0.80592  0.15320  1.0000
  C   C499      1.0  0.09190  0.50305  0.28477  1.0000
  H   H384      1.0  0.44645  0.59717  0.24059  1.0000
  H   H385      1.0  0.45295  0.78461  0.14291  1.0000
  C   C500      1.0  0.44393  0.91393  0.08358  1.0000
  H   H386      1.0  0.23951  0.62953  0.13055  1.0000
  C   C501      1.0  0.47000  0.70956  0.03045  1.0000
  S   S82       1.0  0.17532  0.50159  0.00291  1.0000
  C   C502      1.0  0.48598  0.70844  0.13318  1.0000
  C   C503      1.0  0.12623  0.70341  0.28367  1.0000
  S   S83       1.0  0.07672  0.92428  0.06104  1.0000
  C   C504      1.0  0.47175  0.93745  0.08386  1.0000
  H   H387      1.0  0.46107  0.64331  0.14570  1.0000
  C   C505      1.0  0.23978  0.62505  0.23351  1.0000
  C   C506      1.0  0.02296  0.86437  0.11404  1.0000
  Fe  Fe42      1.0  0.35640  0.60285  0.32326  1.0000
  C   C507      1.0  0.47856  0.51005  0.06960  1.0000
  C   C508      1.0  0.16838  0.59482  0.27199  1.0000
  H   H388      1.0  0.14799  0.88187  0.04139  1.0000
  Fe  Fe43      1.0  0.08746  0.84312  0.32711  1.0000
  H   H389      1.0  0.36372  0.95236  0.32019  1.0000
  H   H390      1.0  0.08412  0.58417  0.02790  1.0000
  C   C509      1.0  0.28085  0.55647  0.06159  1.0000
  C   C510      1.0  0.48123  0.86089  0.18008  1.0000
  C   C511      1.0  0.06946  0.52578  0.29945  1.0000
  H   H391      1.0  0.07603  0.71346  0.31405  1.0000
  C   C512      1.0  0.48493  0.80021  0.04696  1.0000
  H   H392      1.0  0.26860  0.94706  0.13608  1.0000
  H   H393      1.0  0.38119  0.90164  0.08261  1.0000
  C   C513      1.0  0.31642  0.55822  0.04395  1.0000
  C   C514      1.0  0.08185  0.58125  0.16285  1.0000
  C   C515      1.0  0.12258  0.57424  0.16658  1.0000
  C   C516      1.0  0.14503  0.58754  0.19054  1.0000
  C   C517      1.0  0.12670  0.60761  0.21145  1.0000
  C   C518      1.0  0.08585  0.61505  0.20721  1.0000
  C   C519      1.0  0.20207  0.63708  0.22543  1.0000
  C   C520      1.0  0.20009  0.65987  0.20279  1.0000
  C   C521      1.0  0.23550  0.67149  0.18969  1.0000
  C   C522      1.0  0.27299  0.66008  0.19863  1.0000
  H   H394      1.0  0.24240  0.60677  0.25002  1.0000
  H   H395      1.0  0.08174  0.62332  0.27940  1.0000
  H   H396      1.0  0.13676  0.55820  0.15114  1.0000
  H   H397      1.0  0.13536  0.93626  0.26234  1.0000
  H   H398      1.0  0.17660  0.58171  0.19314  1.0000
  C   C523      1.0  0.24661  0.92518  0.09434  1.0000
  C   C524      1.0  0.23173  0.94874  0.28622  1.0000
  H   H399      1.0  0.17125  0.66918  0.19589  1.0000
  H   H400      1.0  0.23410  0.68977  0.17300  1.0000
  H   H401      1.0  0.30040  0.66952  0.18884  1.0000
  H   H402      1.0  0.40704  0.70824  0.30384  1.0000
  H   H403      1.0  0.43518  0.51516  0.10678  1.0000
  C   C525      1.0  0.06354  0.60179  0.18302  1.0000
  H   H404      1.0  0.03194  0.60731  0.17996  1.0000
  H   H405      1.0  0.31053  0.49061  0.00706  1.0000
  H   H406      1.0  0.22594  0.87259  0.28826  1.0000
  H   H407      1.0  0.03445  0.85415  0.18301  1.0000
  H   H408      1.0  0.13872  0.72579  0.28485  1.0000
  C   C526      1.0  0.35108  0.83339  0.28330  1.0000
  H   H409      1.0  0.34765  0.84413  0.06155  1.0000
  C   C527      1.0  0.41379  0.46287  0.28074  1.0000
  S   S84       1.0  0.02000  0.57009  0.07978  1.0000
  H   H410      1.0  0.44281  0.57194  0.17019  1.0000
  C   C528      1.0  0.12992  0.65247  0.26392  1.0000
  C   C529      1.0  0.13191  0.87274  0.02148  1.0000
  H   H411      1.0  0.17399  0.51927  0.28192  1.0000
  H   H412      1.0  0.03786  0.88228  0.12669  1.0000
  C   C530      1.0  0.24411  0.91913  0.29154  1.0000
  H   H413      1.0  0.11257  0.48455  0.24083  1.0000
  C   C531      1.0  0.09530  0.50216  0.25203  1.0000
  S   S85       1.0  0.33234  0.51916  0.31011  1.0000
  C   C532      1.0  0.04912  0.54675  0.28068  1.0000
  S   S86       1.0  0.15230  0.83379  0.31541  1.0000
  C   C533      1.0  0.16575  0.93144  0.27016  1.0000
  H   H414      1.0  0.04759  0.66216  0.31119  1.0000
  H   H415      1.0  0.27403  0.84354  0.05145  1.0000
  H   H416      1.0  0.32618  0.50738  0.14242  1.0000
  H   H417      1.0  0.05321  0.81554  0.22210  1.0000
  H   H418      1.0  0.08121  0.63931  0.02233  1.0000
  C   C534      1.0  0.17088  0.78585  0.10678  1.0000
  C   C535      1.0  0.12935  0.78057  0.10728  1.0000
  C   C536      1.0  0.10402  0.79954  0.12428  1.0000
  C   C537      1.0  0.12016  0.82387  0.14071  1.0000
  C   C538      1.0  0.16209  0.82889  0.14108  1.0000
  C   C539      1.0  0.18721  0.80984  0.12357  1.0000
  P   P18       1.0  0.18365  0.85999  0.16263  1.0000
  C   C540      1.0  0.20629  0.88628  0.13557  1.0000
  C   C541      1.0  0.14481  0.87789  0.18610  1.0000
  C   C542      1.0  0.13418  0.90788  0.18074  1.0000
  C   C543      1.0  0.10369  0.92141  0.19846  1.0000
  C   C544      1.0  0.08367  0.90522  0.22182  1.0000
  C   C545      1.0  0.09364  0.87535  0.22712  1.0000
  C   C546      1.0  0.12337  0.86150  0.20888  1.0000
  C   C547      1.0  0.23086  0.90932  0.14728  1.0000
  H   H419      1.0  0.37954  0.52877  0.07175  1.0000
  H   H420      1.0  0.07834  0.52261  0.20826  1.0000
  C   C548      1.0  0.22193  0.90247  0.08246  1.0000
  C   C549      1.0  0.20161  0.88315  0.10296  1.0000
  C   C550      1.0  0.22491  0.84582  0.18637  1.0000
  C   C551      1.0  0.26223  0.83973  0.17196  1.0000
  C   C552      1.0  0.29353  0.82644  0.18889  1.0000
  C   C553      1.0  0.28814  0.81945  0.22048  1.0000
  C   C554      1.0  0.25206  0.82678  0.23553  1.0000
  C   C555      1.0  0.22057  0.83995  0.21863  1.0000
  H   H421      1.0  0.19062  0.77121  0.09350  1.0000
  H   H422      1.0  0.11688  0.76178  0.09447  1.0000
  H   H423      1.0  0.07177  0.79547  0.12471  1.0000
  H   H424      1.0  0.09970  0.83857  0.15297  1.0000
  H   H425      1.0  0.21946  0.81333  0.12278  1.0000
  H   H426      1.0  0.14909  0.92100  0.16280  1.0000
  C   C556      1.0  0.07489  0.66755  0.29834  1.0000
  H   H427      1.0  0.06069  0.91583  0.23610  1.0000
  H   H428      1.0  0.07832  0.86301  0.24555  1.0000
  H   H429      1.0  0.12954  0.83796  0.21251  1.0000
  H   H430      1.0  0.01087  0.93745  0.29524  1.0000
  H   H431      1.0  0.37514  0.82609  0.26781  1.0000
  H   H432      1.0  0.25991  0.46503  0.28083  1.0000
  C   C557      1.0  0.45787  0.65679  0.02292  1.0000
  H   H433      1.0  0.18240  0.86591  0.09324  1.0000
  H   H434      1.0  0.26702  0.84460  0.14737  1.0000
  H   H435      1.0  0.32159  0.82064  0.17730  1.0000
  H   H436      1.0  0.31153  0.80752  0.23296  1.0000
  H   H437      1.0  0.24779  0.82100  0.26000  1.0000
  H   H438      1.0  0.19294  0.84457  0.23095  1.0000
  C   C558      1.0  0.21717  0.89565  0.28509  1.0000
  C   C559      1.0  0.34775  0.47435  0.24173  1.0000
  H   H439      1.0  0.22848  0.52981  0.07286  1.0000
  H   H440      1.0  0.07100  0.63110  0.22218  1.0000
  C   C560      1.0  0.25642  0.53105  0.05967  1.0000
  H   H441      1.0  0.15697  0.88386  0.27030  1.0000
  C   C561      1.0  0.09087  0.69645  0.29999  1.0000
  H   H442      1.0  0.44235  0.51866  0.18579  1.0000
  C   C562      1.0  0.26761  0.50733  0.04020  1.0000
  H   H443      1.0  0.47635  0.64047  0.21288  1.0000
  H   H444      1.0  0.49229  0.95296  0.01663  1.0000
  C   C563      1.0  0.19272  0.95484  0.27562  1.0000
  H   H445      1.0  0.30165  0.61196  0.15661  1.0000
  C   C564      1.0  0.45365  0.51923  0.01704  1.0000
  C   C565      1.0  0.32774  0.93452  0.28186  1.0000
  H   H446      1.0  0.24665  0.86702  0.00332  1.0000
  H   H447      1.0  0.24827  0.48783  0.03835  1.0000
  C   C566      1.0  0.38459  0.64275  0.22643  1.0000
  C   C567      1.0  0.38676  0.67355  0.22122  1.0000
  C   C568      1.0  0.38841  0.68462  0.19061  1.0000
  C   C569      1.0  0.38811  0.66488  0.16518  1.0000
  C   C570      1.0  0.38675  0.63384  0.17021  1.0000
  C   C571      1.0  0.38413  0.62288  0.20102  1.0000
  P   P19       1.0  0.38540  0.60914  0.13672  1.0000
  C   C572      1.0  0.43077  0.61325  0.11352  1.0000
  C   C573      1.0  0.38428  0.57022  0.14793  1.0000
  C   C574      1.0  0.35201  0.55152  0.13936  1.0000
  C   C575      1.0  0.35189  0.52139  0.14814  1.0000
  C   C576      1.0  0.41718  0.52781  0.17274  1.0000
  C   C577      1.0  0.41721  0.55800  0.16415  1.0000
  C   C578      1.0  0.43521  0.59668  0.08580  1.0000
  H   H448      1.0  0.39406  0.86768  0.02404  1.0000
  C   C579      1.0  0.33989  0.61934  0.11613  1.0000
  C   C580      1.0  0.34103  0.62958  0.08505  1.0000
  C   C581      1.0  0.30583  0.63971  0.07044  1.0000
  C   C582      1.0  0.26920  0.63963  0.08676  1.0000
  C   C583      1.0  0.26775  0.62926  0.11769  1.0000
  C   C584      1.0  0.30299  0.61928  0.13237  1.0000
  H   H449      1.0  0.38221  0.63442  0.25025  1.0000
  H   H450      1.0  0.38616  0.68891  0.24091  1.0000
  H   H451      1.0  0.38874  0.70859  0.18663  1.0000
  H   H452      1.0  0.38834  0.67385  0.14152  1.0000
  H   H453      1.0  0.38090  0.59919  0.20560  1.0000
  H   H454      1.0  0.32671  0.56004  0.12613  1.0000
  P   P20       1.0  0.15631  0.62307  0.24315  1.0000
  C   C585      1.0  0.08688  0.62550  0.00189  1.0000
  H   H455      1.0  0.41066  0.58291  0.07742  1.0000
  C   C586      1.0  0.33139  0.81263  0.30252  1.0000
  H   H456      1.0  0.36910  0.63062  0.07219  1.0000
  H   H457      1.0  0.30729  0.64841  0.04670  1.0000
  H   H458      1.0  0.24212  0.64801  0.07554  1.0000
  Fe  Fe44      1.0  0.07194  0.46418  0.07541  1.0000
  C   C587      1.0  0.19352  0.58213  0.32393  1.0000
  C   C588      1.0  0.27502  0.63660  0.22020  1.0000
  C   C589      1.0  0.18328  0.60362  0.30146  1.0000
  H   H459      1.0  0.32712  0.94138  0.99799  1.0000
  H   H460      1.0  0.44598  0.61682  0.30710  1.0000
  C   C590      1.0  0.14596  0.68153  0.26599  1.0000
  C   C591      1.0  0.99445  0.95838  0.14831  1.0000
  C   C592      1.0  0.44039  0.51641  0.08174  1.0000
  C   C593      1.0  0.33578  0.85463  0.04056  1.0000
  C   C594      1.0  0.38439  0.50955  0.16490  1.0000
  H   H461      1.0  0.00193  0.84175  0.29799  1.0000
  Fe  Fe45      1.0  0.39072  0.54057  0.32473  1.0000
  C   C595      1.0  0.02174  0.81931  0.21629  1.0000
  H   H462      1.0  0.15393  0.55644  0.24274  1.0000
  H   H463      1.0  0.12182  0.91588  0.00100  1.0000
  C   C596      1.0  0.04398  0.84989  0.09002  1.0000
  H   H464      1.0  0.06457  0.57078  0.14426  1.0000
  H   H465      1.0  0.45556  0.80916  0.05290  1.0000
  H   H466      1.0  0.33516  0.57799  0.04574  1.0000
  C   C597      1.0  0.99881  0.94558  0.05342  1.0000
  C   C598      1.0  0.30061  0.82205  0.32263  1.0000
  C   C599      1.0  0.47437  0.59450  0.22770  1.0000
  C   C600      1.0  0.48514  0.51135  0.03725  1.0000
  C   C601      1.0  0.25077  0.92877  0.12673  1.0000
  P   P21       1.0  0.29451  0.91218  0.30602  1.0000
  H   H467      1.0  0.38398  0.48629  0.17205  1.0000
  C   C602      1.0  0.07576  0.52353  0.23364  1.0000
  C   C603      1.0  0.36207  0.86800  0.01901  1.0000
  C   C604      1.0  0.01101  0.84105  0.19421  1.0000
  C   C605      1.0  0.16471  0.56419  0.26522  1.0000
  H   H468      1.0  0.17395  0.68759  0.25453  1.0000
  H   H469      1.0  0.03177  0.87643  0.03336  1.0000
  H   H470      1.0  0.21811  0.90009  0.05735  1.0000
  C   C606      1.0  0.40262  0.92001  0.08229  1.0000
  H   H471      1.0  0.48023  0.81173  0.99821  1.0000
  H   H472      1.0  0.35509  0.87900  0.26843  1.0000
  C   C607      1.0  0.02541  0.92157  0.05000  1.0000
  H   H473      1.0  0.00032  0.78550  0.24805  1.0000
  H   H474      1.0  0.30385  0.62728  0.22687  1.0000
  C   C608      1.0  0.46298  0.63115  0.12390  1.0000
  H   H475      1.0  0.04163  0.81613  0.05400  1.0000
  C   C609      1.0  0.09432  0.64565  0.28039  1.0000
  H   H476      1.0  0.37630  0.51683  0.23285  1.0000
  H   H477      1.0  0.45476  0.70294  0.12819  1.0000
  C   C610      1.0  0.17802  0.90189  0.27470  1.0000
  H   H478      1.0  0.43824  0.63760  0.02543  1.0000
  H   H479      1.0  0.32167  0.47998  0.22761  1.0000
  H   H480      1.0  0.44498  0.88048  0.14365  1.0000
  H   H481      1.0  0.47395  0.58583  0.04676  1.0000
  C   C611      1.0  0.46556  0.69940  0.28343  1.0000
  C   C612      1.0  0.30837  0.87310  0.30371  1.0000
  S   S87       1.0  0.29370  0.58703  0.31049  1.0000
  S   S88       1.0  0.06059  0.88809  0.31419  1.0000
  H   H482      1.0  0.18738  0.62709  0.30699  1.0000
  H   H483      1.0  0.48067  0.54803  0.23968  1.0000
  H   H484      1.0  0.23414  0.91255  0.17237  1.0000
  C   C613      1.0  0.01101  0.89461  0.03737  1.0000
  C   C614      1.0  0.41190  0.48959  0.26382  1.0000
  C   C615      1.0  0.37873  0.49545  0.24462  1.0000
  H   H485      1.0  0.10648  0.48568  0.29834  1.0000
  C   C616      1.0  0.32198  0.93497  0.24919  1.0000
  C   C617      1.0  0.02561  0.82677  0.07315  1.0000
  C   C618      1.0  0.45647  0.85989  0.15345  1.0000
  C   C619      1.0  0.28948  0.85217  0.32349  1.0000
  H   H486      1.0  0.02306  0.46542  0.25349  1.0000
  H   H487      1.0  0.35688  0.95367  0.08042  1.0000
  C   C620      1.0  0.35850  0.95210  0.29511  1.0000
  H   H488      1.0  0.13715  0.82707  0.03701  1.0000
  H   H489      1.0  0.01055  0.70532  0.27212  1.0000
  H   H490      1.0  0.47084  0.72241  0.27670  1.0000
  H   H491      1.0  0.26161  0.94050  0.07848  1.0000
  C   C621      1.0  0.30291  0.50910  0.02231  1.0000
  C   C622      1.0  0.47100  0.59830  0.06845  1.0000
  H   H492      1.0  0.03005  0.56360  0.29130  1.0000
  H   H493      1.0  0.18174  0.56690  0.00975  1.0000
  C   C623      1.0  0.49133  0.61893  0.21206  1.0000
  H   H494      1.0  0.33998  0.78924  0.30185  1.0000
  H   H495      1.0  0.03610  0.56160  0.23358  1.0000
  C   C624      1.0  0.49409  0.67750  0.27590  1.0000
  H   H496      1.0  0.99575  0.95286  0.22789  1.0000
  S   S89       1.0  0.13934  0.46681  0.08009  1.0000
  C   C625      1.0  0.08844  0.59442  0.00504  1.0000
  H   H497      1.0  0.08750  0.58630  0.31877  1.0000
  C   C626      1.0  0.49384  0.56685  0.22730  1.0000
  C   C627      1.0  0.23755  0.79164  0.99794  1.0000
  H   H498      1.0  0.17269  0.78965  0.99867  1.0000
  C   C628      1.0  0.11671  0.89207  0.99856  1.0000
  H   H499      1.0  0.49330  0.73289  0.09065  1.0000
  H   H500      1.0  0.48868  0.88224  0.19055  1.0000
  H   H501      1.0  0.21999  0.46760  0.32978  1.0000
  C   C629      1.0  0.32516  0.55620  0.47928  1.0000
  S   S90       1.0  0.09186  0.82353  0.37582  1.0000
  H   H502      1.0  0.45583  0.62887  0.59613  1.0000
  Fe  Fe46      1.0  0.15524  0.81001  0.36213  1.0000
  S   S91       1.0  0.21446  0.81561  0.38929  1.0000
  C   C630      1.0  0.33304  0.91938  0.39698  1.0000
  Fe  Fe47      1.0  0.30428  0.55005  0.34576  1.0000
  C   C631      1.0  0.03896  0.54339  0.45970  1.0000
  S   S92       1.0  0.26015  0.52279  0.37525  1.0000
  H   H503      1.0  0.23047  0.77802  0.66202  1.0000
  C   C632      1.0  0.32023  0.63909  0.53077  1.0000
  S   S93       1.0  0.36367  0.56915  0.36223  1.0000
  C   C633      1.0  0.11750  0.58111  0.40643  1.0000
  C   C634      1.0  0.32536  0.51574  0.44121  1.0000
  C   C635      1.0  0.47133  0.52248  0.37028  1.0000
  H   H504      1.0  0.11776  0.62995  0.34544  1.0000
  H   H505      1.0  0.01577  0.56166  0.38767  1.0000
  H   H506      1.0  0.14425  0.50885  0.36258  1.0000
  H   H507      1.0  0.46863  0.77257  0.35177  1.0000
  C   C636      1.0  0.19289  0.55447  0.46346  1.0000
  C   C637      1.0  0.19330  0.52422  0.45520  1.0000
  C   C638      1.0  0.21343  0.51497  0.42775  1.0000
  C   C639      1.0  0.23407  0.53572  0.40881  1.0000
  C   C640      1.0  0.23332  0.56597  0.41688  1.0000
  C   C641      1.0  0.21245  0.57532  0.44391  1.0000
  H   H508      1.0  0.17805  0.50802  0.46988  1.0000
  H   H509      1.0  0.21384  0.49151  0.42161  1.0000
  H   H510      1.0  0.24855  0.58217  0.40220  1.0000
  H   H511      1.0  0.21163  0.59884  0.44984  1.0000
  C   C642      1.0  0.22132  0.80976  0.43025  1.0000
  C   C643      1.0  0.18876  0.80471  0.45048  1.0000
  C   C644      1.0  0.19546  0.80054  0.48288  1.0000
  C   C645      1.0  0.23473  0.80117  0.49550  1.0000
  C   C646      1.0  0.26735  0.80619  0.47527  1.0000
  C   C647      1.0  0.26060  0.81066  0.44288  1.0000
  H   H512      1.0  0.15841  0.80395  0.44114  1.0000
  H   H513      1.0  0.16999  0.79649  0.49819  1.0000
  H   H514      1.0  0.29768  0.80690  0.48461  1.0000
  H   H515      1.0  0.28599  0.81457  0.42744  1.0000
  C   C648      1.0  0.44660  0.51954  0.39675  1.0000
  H   H516      1.0  0.39260  0.90342  0.65736  1.0000
  Fe  Fe48      1.0  0.29788  0.78516  0.56433  1.0000
  S   S94       1.0  0.30202  0.73930  0.58599  1.0000
  S   S95       1.0  0.24101  0.79752  0.53685  1.0000
  Fe  Fe49      1.0  0.37616  0.80513  0.59615  1.0000
  S   S96       1.0  0.38636  0.76043  0.61845  1.0000
  S   S97       1.0  0.41633  0.84554  0.60504  1.0000
  Fe  Fe50      1.0  0.36771  0.74121  0.57192  1.0000
  S   S98       1.0  0.39344  0.69750  0.55268  1.0000
  Fe  Fe51      1.0  0.32029  0.76248  0.63064  1.0000
  H   H517      1.0  0.19809  0.53517  0.33413  1.0000
  S   S99       1.0  0.36248  0.78609  0.54802  1.0000
  S   S100      1.0  0.31104  0.80821  0.61046  1.0000
  Fe  Fe52      1.0  0.10209  0.48319  0.56238  1.0000
  S   S101      1.0  0.07926  0.52678  0.54336  1.0000
  H   H518      1.0  0.30332  0.67596  0.56034  1.0000
  Fe  Fe53      1.0  0.16669  0.51357  0.60352  1.0000
  S   S102      1.0  0.14875  0.55905  0.58653  1.0000
  S   S103      1.0  0.22155  0.50743  0.63570  1.0000
  Fe  Fe54      1.0  0.08516  0.54272  0.59309  1.0000
  C   C649      1.0  0.17364  0.72097  0.64137  1.0000
  Fe  Fe55      1.0  0.14466  0.53923  0.53811  1.0000
  S   S104      1.0  0.16686  0.56755  0.49703  1.0000
  S   S105      1.0  0.10299  0.49807  0.61310  1.0000
  S   S106      1.0  0.16768  0.49473  0.55420  1.0000
  C   C650      1.0  0.39908  0.46528  0.47939  1.0000
  C   C651      1.0  0.43990  0.68957  0.53372  1.0000
  C   C652      1.0  0.45244  0.65967  0.53128  1.0000
  C   C653      1.0  0.32988  0.91150  0.36532  1.0000
  C   C654      1.0  0.27449  0.95122  0.39188  1.0000
  H   H519      1.0  0.43289  0.64202  0.53974  1.0000
  H   H520      1.0  0.45483  0.73494  0.52210  1.0000
  H   H521      1.0  0.31101  0.46809  0.35535  1.0000
  Fe  Fe56      1.0  0.07352  0.78066  0.35195  1.0000
  C   C655      1.0  0.38771  0.94981  0.47519  1.0000
  C   C656      1.0  0.44737  0.84594  0.63897  1.0000
  H   H522      1.0  0.02642  0.46771  0.35566  1.0000
  C   C657      1.0  0.99549  0.87072  0.45424  1.0000
  C   C658      1.0  0.49095  0.65244  0.51952  1.0000
  H   H523      1.0  0.02919  0.83184  0.44009  1.0000
  H   H524      1.0  0.28802  0.47776  0.45244  1.0000
  C   C659      1.0  0.40286  0.65395  0.43831  1.0000
  C   C660      1.0  0.38074  0.65377  0.41042  1.0000
  C   C661      1.0  0.34712  0.63506  0.40744  1.0000
  C   C662      1.0  0.33600  0.61614  0.43214  1.0000
  C   C663      1.0  0.35910  0.61529  0.45972  1.0000
  C   C664      1.0  0.39195  0.63490  0.46292  1.0000
  P   P22       1.0  0.34343  0.59217  0.49225  1.0000
  C   C665      1.0  0.30699  0.61416  0.51362  1.0000
  H   H525      1.0  0.46172  0.68111  0.61351  1.0000
  C   C666      1.0  0.43852  0.48530  0.52236  1.0000
  C   C667      1.0  0.15048  0.89815  0.36762  1.0000
  C   C668      1.0  0.23795  0.62548  0.52875  1.0000
  C   C669      1.0  0.26555  0.60778  0.51227  1.0000
  C   C670      1.0  0.38555  0.58294  0.51718  1.0000
  C   C671      1.0  0.42242  0.57429  0.50381  1.0000
  C   C672      1.0  0.45459  0.56570  0.52296  1.0000
  H   H526      1.0  0.40965  0.78533  0.48207  1.0000
  H   H527      1.0  0.42855  0.66878  0.44088  1.0000
  H   H528      1.0  0.38934  0.66827  0.39115  1.0000
  H   H529      1.0  0.32968  0.63535  0.38591  1.0000
  H   H530      1.0  0.30941  0.60222  0.42972  1.0000
  H   H531      1.0  0.40903  0.63563  0.48444  1.0000
  C   C673      1.0  0.29923  0.49924  0.46030  1.0000
  C   C674      1.0  0.05793  0.46712  0.36220  1.0000
  C   C675      1.0  0.30522  0.93915  0.41027  1.0000
  H   H532      1.0  0.20598  0.62021  0.52777  1.0000
  H   H533      1.0  0.25427  0.58935  0.49846  1.0000
  H   H534      1.0  0.42619  0.57380  0.47860  1.0000
  H   H535      1.0  0.45593  0.58727  0.36716  1.0000
  H   H536      1.0  0.44464  0.51717  0.44731  1.0000
  H   H537      1.0  0.12607  0.57978  0.43096  1.0000
  H   H538      1.0  0.28536  0.80606  0.33776  1.0000
  C   C676      1.0  0.18750  0.88712  0.54666  1.0000
  C   C677      1.0  0.06175  0.88444  0.64708  1.0000
  C   C678      1.0  0.46497  0.72538  0.36154  1.0000
  C   C679      1.0  0.21270  0.71217  0.64951  1.0000
  P   P23       1.0  0.11943  0.91841  0.45781  1.0000
  C   C680      1.0  0.14575  0.90646  0.49291  1.0000
  C   C681      1.0  0.07056  0.90015  0.45627  1.0000
  C   C682      1.0  0.46494  0.71203  0.52178  1.0000
  C   C683      1.0  0.45690  0.95746  0.52594  1.0000
  C   C684      1.0  0.13158  0.82740  0.64702  1.0000
  H   H539      1.0  0.42479  0.94611  0.43333  1.0000
  C   C685      1.0  0.11574  0.95887  0.45551  1.0000
  C   C686      1.0  0.14956  0.87581  0.49959  1.0000
  C   C687      1.0  0.17028  0.86628  0.52634  1.0000
  P   P24       1.0  0.04889  0.82369  0.63448  1.0000
  H   H540      1.0  0.46292  0.75411  0.45771  1.0000
  C   C688      1.0  0.03489  0.91554  0.46370  1.0000
  C   C689      1.0  0.14727  0.90573  0.42398  1.0000
  C   C690      1.0  0.12841  0.90543  0.39445  1.0000
  H   H541      1.0  0.35932  0.55616  0.43580  1.0000
  H   H542      1.0  0.06040  0.47109  0.47809  1.0000
  C   C691      1.0  0.21006  0.89052  0.39943  1.0000
  C   C692      1.0  0.18832  0.89828  0.42631  1.0000
  C   C693      1.0  0.25066  0.94601  0.65741  1.0000
  H   H543      1.0  0.42801  0.83249  0.50922  1.0000
  C   C694      1.0  0.46824  0.46379  0.51688  1.0000
  H   H544      1.0  0.12344  0.58458  0.64911  1.0000
  H   H545      1.0  0.26630  0.49812  0.50392  1.0000
  C   C695      1.0  0.12412  0.49001  0.36585  1.0000
  H   H546      1.0  0.48995  0.91714  0.47061  1.0000
  C   C696      1.0  0.00413  0.89745  0.53969  1.0000
  S   S107      1.0  0.13704  0.76563  0.34109  1.0000
  H   H547      1.0  0.09482  0.85757  0.44077  1.0000
  H   H548      1.0  0.13702  0.85910  0.48407  1.0000
  H   H549      1.0  0.17306  0.84264  0.53128  1.0000
  H   H550      1.0  0.45370  0.88248  0.54040  1.0000
  C   C697      1.0  0.33865  0.54397  0.45078  1.0000
  C   C698      1.0  0.46998  0.87168  0.64564  1.0000
  C   C699      1.0  0.09535  0.58460  0.34323  1.0000
  H   H551      1.0  0.24142  0.88390  0.40128  1.0000
  H   H552      1.0  0.20368  0.89840  0.44870  1.0000
  C   C700      1.0  0.06801  0.86991  0.44735  1.0000
  C   C701      1.0  0.47382  0.85873  0.42114  1.0000
  H   H553      1.0  0.38108  0.50292  0.50772  1.0000
  C   C702      1.0  0.00050  0.48926  0.47337  1.0000
  C   C703      1.0  0.44371  0.92764  0.52367  1.0000
  H   H554      1.0  0.48032  0.76281  0.65827  1.0000
  P   P25       1.0  0.40706  0.91675  0.49431  1.0000
  C   C704      1.0  0.36361  0.89769  0.51090  1.0000
  S   S108      1.0  0.02604  0.74695  0.36654  1.0000
  C   C705      1.0  0.32890  0.89337  0.49242  1.0000
  C   C706      1.0  0.29519  0.87850  0.50463  1.0000
  C   C707      1.0  0.29565  0.86813  0.53551  1.0000
  C   C708      1.0  0.32955  0.87290  0.55429  1.0000
  C   C709      1.0  0.36324  0.88777  0.54219  1.0000
  C   C710      1.0  0.41280  0.87039  0.45005  1.0000
  C   C711      1.0  0.44092  0.79255  0.48289  1.0000
  H   H555      1.0  0.09687  0.91139  0.39199  1.0000
  C   C712      1.0  0.44991  0.56496  0.55552  1.0000
  C   C713      1.0  0.40396  0.48606  0.50363  1.0000
  C   C714      1.0  0.43320  0.85310  0.42775  1.0000
  H   H556      1.0  0.32800  0.90119  0.46840  1.0000
  H   H557      1.0  0.26885  0.87452  0.49006  1.0000
  H   H558      1.0  0.26979  0.85624  0.54483  1.0000
  H   H559      1.0  0.32998  0.86490  0.57829  1.0000
  H   H560      1.0  0.38846  0.89141  0.55769  1.0000
  H   H561      1.0  0.00524  0.46919  0.56072  1.0000
  H   H562      1.0  0.38151  0.86533  0.45480  1.0000
  P   P26       1.0  0.06336  0.52642  0.34174  1.0000
  H   H563      1.0  0.20775  0.88430  0.34942  1.0000
  H   H564      1.0  0.03549  0.93866  0.47077  1.0000
  H   H565      1.0  0.44239  0.50145  0.54103  1.0000
  H   H566      1.0  0.26630  0.85901  0.33983  1.0000
  H   H567      1.0  0.46770  0.89096  0.63046  1.0000
  H   H568      1.0  0.11029  0.71647  0.65173  1.0000
  H   H569      1.0  0.45111  0.77753  0.55545  1.0000
  H   H570      1.0  0.23006  0.66374  0.55890  1.0000
  C   C715      1.0  0.38090  0.58193  0.54993  1.0000
  H   H571      1.0  0.41750  0.83519  0.41565  1.0000
  C   C716      1.0  0.14061  0.70996  0.65823  1.0000
  H   H572      1.0  0.35196  0.64491  0.53140  1.0000
  H   H573      1.0  0.02049  0.88250  0.38121  1.0000
  H   H574      1.0  0.09502  0.53624  0.40503  1.0000
  S   S109      1.0  0.04181  0.57675  0.61267  1.0000
  C   C717      1.0  0.46364  0.52038  0.42693  1.0000
  H   H575      1.0  0.35739  0.91045  0.41104  1.0000
  C   C718      1.0  0.17256  0.82510  0.63939  1.0000
  C   C719      1.0  0.06190  0.51778  0.46559  1.0000
  C   C720      1.0  0.08889  0.55789  0.35977  1.0000
  C   C721      1.0  0.18457  0.91760  0.53999  1.0000
  H   H576      1.0  0.35231  0.58754  0.56079  1.0000
  C   C722      1.0  0.11257  0.60939  0.35827  1.0000
  H   H577      1.0  0.40922  0.57226  0.59425  1.0000
  C   C723      1.0  0.16407  0.92729  0.51315  1.0000
  H   H578      1.0  0.29055  0.54742  0.52151  1.0000
  H   H579      1.0  0.47467  0.55762  0.57019  1.0000
  C   C724      1.0  0.28687  0.51076  0.48922  1.0000
  C   C725      1.0  0.19650  0.91496  0.63757  1.0000
  H   H580      1.0  0.13756  0.62666  0.40138  1.0000
  C   C726      1.0  0.99530  0.54920  0.37284  1.0000
  H   H581      1.0  0.28712  0.92883  0.56607  1.0000
  H   H582      1.0  0.09198  0.87871  0.65408  1.0000
  C   C727      1.0  0.45132  0.81912  0.49818  1.0000
  H   H583      1.0  0.48300  0.55915  0.51247  1.0000
  H   H584      1.0  0.09462  0.51915  0.46590  1.0000
  C   C728      1.0  0.03456  0.86263  0.63630  1.0000
  C   C729      1.0  0.29263  0.65680  0.54716  1.0000
  C   C730      1.0  0.47383  0.89908  0.45909  1.0000
  H   H585      1.0  0.20500  0.58892  0.34667  1.0000
  H   H586      1.0  0.17786  0.90735  0.61825  1.0000
  H   H587      1.0  0.48460  0.94640  0.37693  1.0000
  H   H588      1.0  0.38457  0.47451  0.34639  1.0000
  H   H589      1.0  0.21587  0.81171  0.60425  1.0000
  C   C731      1.0  0.18417  0.81434  0.60997  1.0000
  H   H590      1.0  0.23844  0.72088  0.63672  1.0000
  C   C732      1.0  0.01504  0.92412  0.55501  1.0000
  C   C733      1.0  0.46610  0.59736  0.41596  1.0000
  C   C734      1.0  0.12383  0.60758  0.38979  1.0000
  H   H591      1.0  0.13602  0.89825  0.34483  1.0000
  C   C735      1.0  0.33685  0.95643  0.58138  1.0000
  C   C736      1.0  0.03072  0.85523  0.44666  1.0000
  C   C737      1.0  0.04265  0.49072  0.47241  1.0000
  C   C738      1.0  0.25148  0.64995  0.54626  1.0000
  C   C739      1.0  0.05002  0.91435  0.64902  1.0000
  S   S110      1.0  0.06685  0.93243  0.56098  1.0000
  H   H592      1.0  0.46990  0.67860  0.37091  1.0000
  C   C740      1.0  0.29872  0.92328  0.34671  1.0000
  C   C741      1.0  0.48881  0.75090  0.58558  1.0000
  H   H593      1.0  0.41455  0.51580  0.39396  1.0000
  C   C742      1.0  0.44997  0.82143  0.65935  1.0000
  C   C743      1.0  0.48540  0.75235  0.35675  1.0000
  H   H594      1.0  0.43230  0.72460  0.36030  1.0000
  C   C744      1.0  0.27113  0.94334  0.36027  1.0000
  C   C745      1.0  0.30015  0.53899  0.49887  1.0000
  H   H595      1.0  0.05404  0.56452  0.45542  1.0000
  H   H596      1.0  0.16909  0.73633  0.62202  1.0000
  H   H597      1.0  0.33465  0.50696  0.41863  1.0000
  H   H598      1.0  0.30767  0.94557  0.43466  1.0000
  H   H599      1.0  0.19773  0.93378  0.55578  1.0000
  C   C746      1.0  0.19115  0.89058  0.37015  1.0000
  H   H600      1.0  0.00245  0.94614  0.64060  1.0000
  C   C747      1.0  0.15483  0.80637  0.58800  1.0000
  C   C748      1.0  0.11391  0.80958  0.59511  1.0000
  C   C749      1.0  0.10186  0.82005  0.62476  1.0000
  H   H601      1.0  0.20310  0.87953  0.56751  1.0000
  C   C750      1.0  0.47690  0.77748  0.57097  1.0000
  H   H602      1.0  0.24689  0.95307  0.34683  1.0000
  C   C751      1.0  0.01904  0.80494  0.60478  1.0000
  H   H603      1.0  0.43187  0.80185  0.65491  1.0000
  C   C752      1.0  0.10005  0.55642  0.39156  1.0000
  C   C753      1.0  0.99676  0.54199  0.46049  1.0000
  H   H604      1.0  0.01656  0.61608  0.66107  1.0000
  C   C754      1.0  0.48866  0.66931  0.60608  1.0000
  C   C755      1.0  0.46209  0.90581  0.54256  1.0000
  H   H605      1.0  0.44391  0.58141  0.42413  1.0000
  C   C756      1.0  0.48523  0.63950  0.59654  1.0000
  C   C757      1.0  0.08294  0.49219  0.35823  1.0000
  C   C758      1.0  0.43297  0.89358  0.46592  1.0000
  H   H606      1.0  0.07137  0.93096  0.65721  1.0000
  C   C759      1.0  0.22735  0.93570  0.63234  1.0000
  S   S111      1.0  0.45132  0.51885  0.33217  1.0000
  C   C760      1.0  0.47276  0.60072  0.38380  1.0000
  H   H607      1.0  0.47147  0.73070  0.58180  1.0000
  H   H608      1.0  0.16379  0.79747  0.56539  1.0000
  H   H609      1.0  0.09206  0.80339  0.57743  1.0000
  H   H610      1.0  0.48324  0.61179  0.46237  1.0000
  C   C761      1.0  0.41307  0.57308  0.56902  1.0000
  H   H611      1.0  0.02750  0.88238  0.53169  1.0000
  C   C762      1.0  0.47092  0.77501  0.46907  1.0000
  H   H612      1.0  0.35363  0.93791  0.59130  1.0000
  C   C763      1.0  0.01402  0.56985  0.64710  1.0000
  H   H613      1.0  0.35189  0.89636  0.35530  1.0000
  C   C764      1.0  0.48660  0.69913  0.36738  1.0000
  C   C765      1.0  0.01119  0.92283  0.63993  1.0000
  H   H614      1.0  0.99579  0.80060  0.39927  1.0000
  C   C766      1.0  0.00987  0.52999  0.34931  1.0000
  C   C767      1.0  0.48800  0.61461  0.43741  1.0000
  H   H615      1.0  0.17423  0.62277  0.66317  1.0000
  H   H616      1.0  0.34939  0.94876  0.66020  1.0000
  C   C768      1.0  0.00435  0.77581  0.60959  1.0000
  H   H617      1.0  0.17147  0.46192  0.38379  1.0000
  H   H618      1.0  0.48662  0.82495  0.56726  1.0000
  H   H619      1.0  0.37227  0.46642  0.46512  1.0000
  C   C769      1.0  0.29943  0.95127  0.56713  1.0000
  H   H620      1.0  0.19534  0.83079  0.65664  1.0000
  H   H621      1.0  0.23252  0.94436  0.60900  1.0000
  H   H622      1.0  0.16254  0.95100  0.50851  1.0000
  H   H623      1.0  0.01003  0.76412  0.63137  1.0000
  C   C770      1.0  0.99952  0.54133  0.65474  1.0000
  C   C771      1.0  0.99756  0.90091  0.46246  1.0000
  C   C772      1.0  0.40160  0.95860  0.44545  1.0000
  H   H624      1.0  0.48953  0.84540  0.40376  1.0000
  C   C773      1.0  0.13982  0.46334  0.37771  1.0000
  C   C774      1.0  0.01177  0.81914  0.57589  1.0000
  H   H625      1.0  0.02361  0.84134  0.57141  1.0000
  H   H626      1.0  0.00597  0.52261  0.63947  1.0000
  C   C775      1.0  0.37390  0.46145  0.36616  1.0000
  C   C776      1.0  0.49171  0.82828  0.49950  1.0000
  C   C777      1.0  0.49138  0.91390  0.56459  1.0000
  C   C778      1.0  0.99521  0.87125  0.62811  1.0000
  Fe  Fe57      1.0  0.08107  0.78556  0.86404  1.0000
  S   S112      1.0  0.10129  0.82908  0.88507  1.0000
  C   C779      1.0  0.46741  0.91668  0.81237  1.0000
  Fe  Fe58      1.0  0.13343  0.79340  0.80475  1.0000
  S   S113      1.0  0.15699  0.83737  0.82189  1.0000
  S   S114      1.0  0.14251  0.77805  0.75442  1.0000
  Fe  Fe59      1.0  0.16329  0.81499  0.86900  1.0000
  S   S115      1.0  0.22355  0.81915  0.89450  1.0000
  Fe  Fe60      1.0  0.09301  0.84711  0.83590  1.0000
  S   S116      1.0  0.06772  0.89262  0.82281  1.0000
  S   S117      1.0  0.14359  0.77013  0.85078  1.0000
  S   S118      1.0  0.06883  0.80440  0.81610  1.0000
  Fe  Fe61      1.0  0.35351  0.62357  0.82655  1.0000
  S   S119      1.0  0.36174  0.58175  0.79788  1.0000
  S   S120      1.0  0.37691  0.67013  0.81452  1.0000
  Fe  Fe62      1.0  0.30075  0.59156  0.87634  1.0000
  S   S121      1.0  0.30554  0.54761  0.85131  1.0000
  S   S122      1.0  0.26577  0.60090  0.92147  1.0000
  Fe  Fe63      1.0  0.37117  0.56003  0.84527  1.0000
  S   S123      1.0  0.42004  0.52573  0.85435  1.0000
  Fe  Fe64      1.0  0.29534  0.57330  0.80640  1.0000
  S   S124      1.0  0.24256  0.56135  0.77390  1.0000
  S   S125      1.0  0.36703  0.60223  0.87322  1.0000
  S   S126      1.0  0.28654  0.61685  0.83212  1.0000
  H   H627      1.0  0.46513  0.85037  0.79695  1.0000
  C   C780      1.0  0.46520  0.55527  0.90062  1.0000
  C   C781      1.0  0.45311  0.52802  0.88708  1.0000
  C   C782      1.0  0.48924  0.68908  0.67651  1.0000
  H   H628      1.0  0.34528  0.95006  0.86118  1.0000
  H   H629      1.0  0.44905  0.86614  0.86663  1.0000
  H   H630      1.0  0.17694  0.59844  0.91362  1.0000
  H   H631      1.0  0.39703  0.47295  0.99737  1.0000
  C   C783      1.0  0.05396  0.67205  0.87177  1.0000
  H   H632      1.0  0.15322  0.94145  0.77384  1.0000
  C   C784      1.0  0.16099  0.69473  0.76501  1.0000
  C   C785      1.0  0.21893  0.69274  0.67475  1.0000
  C   C786      1.0  0.21990  0.58150  0.97137  1.0000
  C   C787      1.0  0.24269  0.57292  0.94498  1.0000
  C   C788      1.0  0.24547  0.54259  0.93740  1.0000
  C   C789      1.0  0.22500  0.52114  0.95566  1.0000
  C   C790      1.0  0.25756  0.61630  0.70562  1.0000
  H   H633      1.0  0.47145  0.66723  0.91121  1.0000
  H   H634      1.0  0.26301  0.53566  0.91727  1.0000
  H   H635      1.0  0.22703  0.49774  0.94940  1.0000
  C   C791      1.0  0.16935  0.91467  0.86452  1.0000
  C   C792      1.0  0.19422  0.53385  0.69084  1.0000
  C   C793      1.0  0.19961  0.54499  0.72152  1.0000
  C   C794      1.0  0.23812  0.54636  0.73535  1.0000
  C   C795      1.0  0.27128  0.53583  0.71829  1.0000
  H   H636      1.0  0.20198  0.87997  0.88845  1.0000
  H   H637      1.0  0.29274  0.91183  0.87158  1.0000
  H   H638      1.0  0.17374  0.55266  0.73466  1.0000
  H   H639      1.0  0.30104  0.53653  0.72868  1.0000
  C   C796      1.0  0.32653  0.62470  0.72262  1.0000
  C   C797      1.0  0.00690  0.46852  0.83905  1.0000
  C   C798      1.0  0.42302  0.77216  0.95797  1.0000
  C   C799      1.0  0.49385  0.56584  0.79557  1.0000
  C   C800      1.0  0.18928  0.77178  0.73543  1.0000
  C   C801      1.0  0.19240  0.77833  0.70333  1.0000
  C   C802      1.0  0.22829  0.77261  0.68668  1.0000
  C   C803      1.0  0.26072  0.75870  0.70168  1.0000
  C   C804      1.0  0.25717  0.75122  0.73363  1.0000
  C   C805      1.0  0.22190  0.75827  0.75064  1.0000
  H   H640      1.0  0.16667  0.78763  0.69133  1.0000
  H   H641      1.0  0.28196  0.74017  0.74538  1.0000
  H   H642      1.0  0.21954  0.75241  0.77520  1.0000
  C   C806      1.0  0.22826  0.80778  0.93415  1.0000
  C   C807      1.0  0.19431  0.80218  0.95274  1.0000
  C   C808      1.0  0.14667  0.69012  0.68317  1.0000
  H   H643      1.0  0.13705  0.72622  0.79825  1.0000
  C   C809      1.0  0.27159  0.79672  0.97923  1.0000
  C   C810      1.0  0.26689  0.80477  0.94745  1.0000
  H   H644      1.0  0.16442  0.80428  0.94276  1.0000
  H   H645      1.0  0.15215  0.87446  0.93064  1.0000
  C   C811      1.0  0.01835  0.89743  0.80790  1.0000
  H   H646      1.0  0.29328  0.80844  0.93309  1.0000
  C   C812      1.0  0.18590  0.68144  0.69171  1.0000
  C   C813      1.0  0.43563  0.70725  0.79101  1.0000
  C   C814      1.0  0.42271  0.67747  0.79454  1.0000
  C   C815      1.0  0.44667  0.65444  0.78255  1.0000
  H   H647      1.0  0.41704  0.72519  0.79998  1.0000
  H   H648      1.0  0.43648  0.63151  0.78433  1.0000
  C   C816      1.0  0.27939  0.83076  0.72158  1.0000
  H   H649      1.0  0.33155  0.82824  0.88294  1.0000
  C   C817      1.0  0.38465  0.91297  0.67994  1.0000
  C   C818      1.0  0.43038  0.90263  0.98058  1.0000
  C   C819      1.0  0.37350  0.51011  0.97036  1.0000
  H   H650      1.0  0.19999  0.46381  0.69003  1.0000
  H   H651      1.0  0.44345  0.54318  0.77441  1.0000
  H   H652      1.0  0.40966  0.81425  0.93627  1.0000
  C   C820      1.0  0.01592  0.67929  0.85986  1.0000
  C   C821      1.0  0.01413  0.89535  0.89851  1.0000
  H   H653      1.0  0.30776  0.58838  0.69274  1.0000
  C   C822      1.0  0.01058  0.81875  0.69273  1.0000
  H   H654      1.0  0.47144  0.79582  0.79025  1.0000
  H   H655      1.0  0.25251  0.86330  0.69131  1.0000
  H   H656      1.0  0.29545  0.81970  0.70266  1.0000
  H   H657      1.0  0.13368  0.61897  0.75940  1.0000
  H   H658      1.0  0.32790  0.63265  0.95891  1.0000
  C   C823      1.0  0.31406  0.90869  0.85254  1.0000
  H   H659      1.0  0.43541  0.64404  0.86633  1.0000
  C   C824      1.0  0.42210  0.86429  0.88095  1.0000
  H   H660      1.0  0.00530  0.93320  0.97614  1.0000
  H   H661      1.0  0.26009  0.94520  0.70708  1.0000
  H   H662      1.0  0.35790  0.61797  0.72309  1.0000
  S   S127      1.0  0.30613  0.75035  0.68149  1.0000
  C   C825      1.0  0.41868  0.88093  0.90864  1.0000
  C   C826      1.0  0.30494  0.88157  0.98648  1.0000
  C   C827      1.0  0.18595  0.66195  0.81747  1.0000
  H   H663      1.0  0.40725  0.70958  0.71966  1.0000
  C   C828      1.0  0.43274  0.71157  0.70380  1.0000
  C   C829      1.0  0.45554  0.91042  0.78136  1.0000
  C   C830      1.0  0.31424  0.65007  0.73913  1.0000
  C   C831      1.0  0.45166  0.74966  0.96184  1.0000
  C   C832      1.0  0.28230  0.81964  0.75214  1.0000
  C   C833      1.0  0.27370  0.65866  0.73884  1.0000
  C   C834      1.0  0.35917  0.51901  0.94080  1.0000
  C   C835      1.0  0.06608  0.94257  0.95969  1.0000
  H   H664      1.0  0.26486  0.67867  0.75143  1.0000
  C   C836      1.0  0.44206  0.73913  0.69020  1.0000
  H   H665      1.0  0.99612  0.80431  0.91127  1.0000
  C   C837      1.0  0.00476  0.80633  0.72254  1.0000
  C   C838      1.0  0.10678  0.93023  0.88891  1.0000
  C   C839      1.0  0.45640  0.68658  0.69699  1.0000
  C   C840      1.0  0.08805  0.84974  0.97096  1.0000
  C   C841      1.0  0.36390  0.93707  0.73833  1.0000
  C   C842      1.0  0.25479  0.85541  0.71523  1.0000
  H   H666      1.0  0.44758  0.91222  0.83194  1.0000
  C   C843      1.0  0.02692  0.89111  0.92961  1.0000
  C   C844      1.0  0.48384  0.66112  0.76812  1.0000
  H   H667      1.0  0.39664  0.94129  0.91204  1.0000
  C   C845      1.0  0.00009  0.87808  0.95111  1.0000
  H   H668      1.0  0.08366  0.58059  0.74476  1.0000
  C   C846      1.0  0.34367  0.93022  0.84667  1.0000
  H   H669      1.0  0.00451  0.85054  0.80415  1.0000
  H   H670      1.0  0.29168  0.51638  0.67464  1.0000
  C   C847      1.0  0.12633  0.59191  0.67325  1.0000
  C   C848      1.0  0.16523  0.68887  0.82150  1.0000
  C   C849      1.0  0.38651  0.48049  0.97468  1.0000
  C   C850      1.0  0.19944  0.56000  0.98969  1.0000
  H   H671      1.0  0.09796  0.55247  0.98136  1.0000
  H   H672      1.0  0.07891  0.56300  0.68979  1.0000
  H   H673      1.0  0.47603  0.90898  0.73308  1.0000
  H   H674      1.0  0.45299  0.57602  0.89178  1.0000
  C   C851      1.0  0.44325  0.92953  0.99427  1.0000
  C   C852      1.0  0.24270  0.93607  0.68792  1.0000
  C   C853      1.0  0.39264  0.62902  0.95689  1.0000
  C   C854      1.0  0.14687  0.89102  0.91260  1.0000
  C   C855      1.0  0.38399  0.87846  0.92756  1.0000
  C   C856      1.0  0.48820  0.62160  0.84854  1.0000
  C   C857      1.0  0.18159  0.66765  0.76077  1.0000
  H   H675      1.0  0.00139  0.75757  0.82335  1.0000
  H   H676      1.0  0.29234  0.89202  0.96575  1.0000
  C   C858      1.0  0.47298  0.71391  0.77676  1.0000
  C   C859      1.0  0.48374  0.56157  0.73951  1.0000
  C   C860      1.0  0.24490  0.64153  0.72253  1.0000
  C   C861      1.0  0.04729  0.47905  0.69434  1.0000
  C   C862      1.0  0.47060  0.80016  0.92624  1.0000
  H   H677      1.0  0.12479  0.58770  0.80522  1.0000
  H   H678      1.0  0.34842  0.50586  0.89295  1.0000
  C   C863      1.0  0.37234  0.46949  0.92014  1.0000
  C   C864      1.0  0.38211  0.57341  0.98663  1.0000
  H   H679      1.0  0.06445  0.46234  0.86160  1.0000
  H   H680      1.0  0.18422  0.55857  0.82237  1.0000
  C   C865      1.0  0.16946  0.57371  0.83857  1.0000
  H   H681      1.0  0.39660  0.65041  0.94534  1.0000
  C   C866      1.0  0.00364  0.92655  0.80324  1.0000
  C   C867      1.0  0.43245  0.79735  0.94008  1.0000
  H   H682      1.0  0.33609  0.66311  0.75228  1.0000
  C   C868      1.0  0.35867  0.49872  0.91585  1.0000
  C   C869      1.0  0.35004  0.95048  0.71072  1.0000
  H   H683      1.0  0.02269  0.94553  0.80871  1.0000
  H   H684      1.0  0.01276  0.69822  0.84417  1.0000
  C   C870      1.0  0.45678  0.87806  0.98003  1.0000
  C   C871      1.0  0.13512  0.93287  0.86479  1.0000
  C   C872      1.0  0.18893  0.90460  0.66794  1.0000
  C   C873      1.0  0.09416  0.88077  0.97339  1.0000
  H   H685      1.0  0.12802  0.93501  0.71976  1.0000
  C   C874      1.0  0.06279  0.78217  0.68212  1.0000
  H   H686      1.0  0.16435  0.53279  0.68066  1.0000
  C   C875      1.0  0.19402  0.65131  0.78724  1.0000
  H   H687      1.0  0.05562  0.92174  0.72276  1.0000
  C   C876      1.0  0.41271  0.85427  0.76678  1.0000
  C   C877      1.0  0.36999  0.90025  0.80361  1.0000
  C   C878      1.0  0.33974  0.87886  0.80950  1.0000
  C   C879      1.0  0.31178  0.88319  0.83371  1.0000
  C   C880      1.0  0.18492  0.94459  0.77874  1.0000
  C   C881      1.0  0.34860  0.59127  0.97908  1.0000
  H   H688      1.0  0.32521  0.85725  0.93146  1.0000
  C   C882      1.0  0.38581  0.83837  0.74744  1.0000
  C   C883      1.0  0.39010  0.80749  0.74332  1.0000
  C   C884      1.0  0.42081  0.79218  0.75893  1.0000
  C   C885      1.0  0.39085  0.84519  0.87176  1.0000
  C   C886      1.0  0.44366  0.83870  0.78222  1.0000
  C   C887      1.0  0.36254  0.93685  0.95532  1.0000
  C   C888      1.0  0.39890  0.89970  0.70749  1.0000
  C   C889      1.0  0.42603  0.61105  0.96333  1.0000
  C   C890      1.0  0.10383  0.58971  0.72718  1.0000
  H   H689      1.0  0.00238  0.70957  0.92741  1.0000
  H   H690      1.0  0.15187  0.70820  0.74517  1.0000
  H   H691      1.0  0.33768  0.85871  0.79559  1.0000
  H   H692      1.0  0.28865  0.86653  0.83828  1.0000
  P   P27       1.0  0.07476  0.90563  0.94361  1.0000
  C   C891      1.0  0.10097  0.57985  0.69618  1.0000
  H   H693      1.0  0.19086  0.91621  0.84547  1.0000
  H   H694      1.0  0.36152  0.84979  0.73547  1.0000
  H   H695      1.0  0.36967  0.79536  0.72797  1.0000
  H   H696      1.0  0.42404  0.76824  0.75578  1.0000
  C   C892      1.0  0.15848  0.62341  0.71255  1.0000
  C   C893      1.0  0.15505  0.61352  0.68136  1.0000
  H   H697      1.0  0.21015  0.63034  0.78449  1.0000
  C   C894      1.0  0.02884  0.94979  0.97355  1.0000
  C   C895      1.0  0.13243  0.61143  0.73538  1.0000
  H   H698      1.0  0.39343  0.83229  0.85029  1.0000
  C   C896      1.0  0.35252  0.85951  0.91784  1.0000
  C   C897      1.0  0.26070  0.83313  0.77643  1.0000
  H   H699      1.0  0.44725  0.56993  0.98256  1.0000
  C   C898      1.0  0.23347  0.86938  0.73967  1.0000
  C   C899      1.0  0.23683  0.85817  0.77030  1.0000
  P   P28       1.0  0.20164  0.90136  0.73247  1.0000
  C   C900      1.0  0.21473  0.92876  0.76215  1.0000
  H   H700      1.0  0.30053  0.80005  0.75687  1.0000
  C   C901      1.0  0.29828  0.60801  0.70563  1.0000
  H   H701      1.0  0.12075  0.68120  0.69558  1.0000
  C   C902      1.0  0.18416  0.57684  0.86907  1.0000
  S   S128      1.0  0.04101  0.75110  0.88764  1.0000
  H   H702      1.0  0.42340  0.75842  0.69513  1.0000
  C   C903      1.0  0.48766  0.65314  0.89480  1.0000
  C   C904      1.0  0.08801  0.47226  0.69858  1.0000
  H   H703      1.0  0.35250  0.48539  0.79781  1.0000
  H   H704      1.0  0.44716  0.85695  0.97010  1.0000
  C   C905      1.0  0.14882  0.89118  0.73407  1.0000
  C   C906      1.0  0.13679  0.86188  0.74146  1.0000
  C   C907      1.0  0.09581  0.85437  0.74228  1.0000
  C   C908      1.0  0.06658  0.87598  0.73575  1.0000
  C   C909      1.0  0.07832  0.90498  0.72766  1.0000
  C   C910      1.0  0.11929  0.91247  0.72636  1.0000
  H   H705      1.0  0.26197  0.82388  0.79994  1.0000
  H   H706      1.0  0.22058  0.86868  0.78938  1.0000
  C   C911      1.0  0.02789  0.78186  0.73211  1.0000
  H   H707      1.0  0.30141  0.79479  0.98933  1.0000
  H   H708      1.0  0.45593  0.61844  0.95653  1.0000
  C   C912      1.0  0.48339  0.91506  0.75697  1.0000
  C   C913      1.0  0.46735  0.63987  0.86970  1.0000
  H   H709      1.0  0.47786  0.80332  0.70129  1.0000
  C   C914      1.0  0.37590  0.95179  0.92824  1.0000
  H   H710      1.0  0.27904  0.92112  0.75784  1.0000
  H   H711      1.0  0.15873  0.84468  0.74674  1.0000
  H   H712      1.0  0.08680  0.83183  0.74851  1.0000
  H   H713      1.0  0.03483  0.87037  0.73736  1.0000
  C   C915      1.0  0.22734  0.52359  0.67364  1.0000
  H   H714      1.0  0.07980  0.68523  0.86446  1.0000
  C   C916      1.0  0.25551  0.93329  0.76996  1.0000
  C   C917      1.0  0.44749  0.80774  0.77840  1.0000
  C   C918      1.0  0.13595  0.59022  0.82894  1.0000
  C   C919      1.0  0.11714  0.61000  0.84977  1.0000
  C   C920      1.0  0.13142  0.61297  0.88069  1.0000
  C   C921      1.0  0.16516  0.59628  0.89005  1.0000
  P   P29       1.0  0.10773  0.63854  0.90800  1.0000
  C   C922      1.0  0.13841  0.67188  0.91262  1.0000
  C   C923      1.0  0.05838  0.64829  0.89305  1.0000
  C   C924      1.0  0.02429  0.63134  0.90145  1.0000
  H   H715      1.0  0.21055  0.56437  0.87642  1.0000
  C   C925      1.0  0.26624  0.95358  0.79350  1.0000
  H   H716      1.0  0.23619  0.60274  0.69273  1.0000
  H   H717      1.0  0.34856  0.54160  0.93679  1.0000
  C   C926      1.0  0.18056  0.67071  0.90879  1.0000
  C   C927      1.0  0.20391  0.69665  0.91169  1.0000
  C   C928      1.0  0.18554  0.72397  0.91861  1.0000
  C   C929      1.0  0.14380  0.72530  0.92300  1.0000
  C   C930      1.0  0.12035  0.69939  0.92028  1.0000
  C   C931      1.0  0.10091  0.62106  0.94601  1.0000
  C   C932      1.0  0.09316  0.63880  0.97254  1.0000
  H   H718      1.0  0.48105  0.70440  0.84299  1.0000
  C   C933      1.0  0.15266  0.70516  0.79527  1.0000
  H   H719      1.0  0.29769  0.95750  0.79883  1.0000
  C   C934      1.0  0.10163  0.58975  0.94931  1.0000
  C   C935      1.0  0.26587  0.52449  0.68762  1.0000
  C   C936      1.0  0.17544  0.89405  0.88863  1.0000
  H   H720      1.0  0.10654  0.48618  0.71365  1.0000
  H   H721      1.0  0.09163  0.62282  0.84153  1.0000
  P   P30       1.0  0.38042  0.89953  0.96383  1.0000
  H   H722      1.0  0.02709  0.61247  0.91719  1.0000
  H   H723      1.0  0.47150  0.61193  0.82938  1.0000
  H   H724      1.0  0.44927  0.66528  0.70773  1.0000
  H   H725      1.0  0.12564  0.95959  0.94812  1.0000
  H   H726      1.0  0.19586  0.64996  0.90360  1.0000
  H   H727      1.0  0.23637  0.69554  0.90859  1.0000
  H   H728      1.0  0.20369  0.74410  0.92061  1.0000
  H   H729      1.0  0.12949  0.74652  0.92827  1.0000
  H   H730      1.0  0.08805  0.70108  0.92387  1.0000
  H   H731      1.0  0.09199  0.66293  0.97065  1.0000
  C   C937      1.0  0.42090  0.58345  0.97829  1.0000
  C   C938      1.0  0.19902  0.79410  0.98445  1.0000
  C   C939      1.0  0.38822  0.91140  0.73697  1.0000
  H   H732      1.0  0.10684  0.57535  0.92932  1.0000
  C   C940      1.0  0.21163  0.91536  0.69345  1.0000
  C   C941      1.0  0.37086  0.92646  0.82185  1.0000
  C   C942      1.0  0.47443  0.74154  0.66926  1.0000
  C   C943      1.0  0.11186  0.90879  0.91262  1.0000
  H   H733      1.0  0.19616  0.64936  0.83771  1.0000
  C   C944      1.0  0.05659  0.76966  0.71179  1.0000
  C   C945      1.0  0.20159  0.52970  0.98169  1.0000
  C   C946      1.0  0.34686  0.88163  0.99172  1.0000
  H   H734      1.0  0.01980  0.47118  0.81585  1.0000
  H   H735      1.0  0.48183  0.74769  0.87834  1.0000
  H   H736      1.0  0.44313  0.89574  0.91529  1.0000
  H   H737      1.0  0.45917  0.51947  0.99197  1.0000
  H   H738      1.0  0.08045  0.94454  0.88867  1.0000
  H   H739      1.0  0.39320  0.76967  0.96822  1.0000
  H   H740      1.0  0.46036  0.48025  0.88852  1.0000
  H   H741      1.0  0.03367  0.90555  0.88138  1.0000
  C   C947      1.0  0.09592  0.57657  0.97877  1.0000
  H   H742      1.0  0.15939  0.69736  0.84489  1.0000
  H   H743      1.0  0.07499  0.75098  0.71942  1.0000
  P   P31       1.0  0.19289  0.65361  0.72197  1.0000
  H   H744      1.0  0.41827  0.88026  0.70568  1.0000
  P   P32       1.0  0.40666  0.89413  0.77261  1.0000
  H   H745      1.0  0.09837  0.80659  0.99188  1.0000
  H   H746      1.0  0.31810  0.58352  0.98342  1.0000
  H   H747      1.0  0.07148  0.84039  0.95136  1.0000
  C   C948      1.0  0.35605  0.84288  0.89016  1.0000
  C   C949      1.0  0.49016  0.75264  0.94866  1.0000
  C   C950      1.0  0.35397  0.61912  0.96475  1.0000
  C   C951      1.0  0.36026  0.93839  0.68154  1.0000
  H   H748      1.0  0.21759  0.60493  0.97741  1.0000
  H   H749      1.0  0.12315  0.83452  0.67044  1.0000
  H   H750      1.0  0.24959  0.68668  0.68074  1.0000
  H   H751      1.0  0.44359  0.72953  0.97452  1.0000
  H   H752      1.0  0.47596  0.81903  0.91102  1.0000
  C   C952      1.0  0.46930  0.50137  0.89879  1.0000
  H   H753      1.0  0.03423  0.49815  0.70623  1.0000
  H   H754      1.0  0.02405  0.77259  0.75542  1.0000
  C   C953      1.0  0.03204  0.46377  0.86488  1.0000
  H   H755      1.0  0.08575  0.77271  0.66700  1.0000
  C   C954      1.0  0.10329  0.83048  0.99391  1.0000
  H   H756      1.0  0.39265  0.94401  0.81714  1.0000
  H   H757      1.0  0.00900  0.87485  0.97522  1.0000
  C   C955      1.0  0.00292  0.75654  0.91635  1.0000
  C   C956      1.0  0.03997  0.80694  0.67242  1.0000
  H   H758      1.0  0.48294  0.73684  0.77456  1.0000
  H   H759      1.0  0.35578  0.94701  0.76059  1.0000
  H   H760      1.0  0.16506  0.88843  0.67150  1.0000
  H   H761      1.0  0.48404  0.56034  0.81918  1.0000
  H   H762      1.0  0.39507  0.46247  0.83888  1.0000
  C   C957      1.0  0.47095  0.55575  0.77016  1.0000
  C   C958      1.0  0.33686  0.95187  0.97639  1.0000
  C   C959      1.0  0.47602  0.82227  0.68560  1.0000
  H   H763      1.0  0.46601  0.55362  0.71984  1.0000
  C   C960      1.0  0.00539  0.59401  0.66689  1.0000
  H   H764      1.0  0.47955  0.94079  0.89600  1.0000
  H   H765      1.0  0.42351  0.94872  0.99524  1.0000
  H   H766      1.0  0.12958  0.94831  0.84578  1.0000
  C   C961      1.0  0.35550  0.46123  0.79885  1.0000
  C   C962      1.0  0.02345  0.46115  0.67485  1.0000
  C   C963      1.0  0.38611  0.46033  0.94958  1.0000
  C   C964      1.0  0.01537  0.46107  0.89489  1.0000
  Fe  Fe65      1.0  0.79758  0.28661  0.01589  1.0000
  Fe  Fe66      1.0  0.63244  0.05725  0.05073  1.0000
  S   S129      1.0  0.74982  0.26089  0.04368  1.0000
  H   H767      1.0  0.69189  0.37624  0.01320  1.0000
  H   H768      1.0  0.97606  0.45460  0.06036  1.0000
  S   S130      1.0  0.85961  0.29836  0.03345  1.0000
  Fe  Fe67      1.0  0.64190  0.26502  0.21519  1.0000
  S   S131      1.0  0.62070  0.30364  0.24485  1.0000
  S   S132      1.0  0.69826  0.27754  0.18691  1.0000
  Fe  Fe68      1.0  0.57867  0.22270  0.24551  1.0000
  S   S133      1.0  0.55429  0.25897  0.27609  1.0000
  S   S134      1.0  0.55282  0.17549  0.24992  1.0000
  Fe  Fe69      1.0  0.55831  0.28712  0.23267  1.0000
  C   C965      1.0  0.79194  0.03829  0.01437  1.0000
  Fe  Fe70      1.0  0.61920  0.27129  0.28510  1.0000
  C   C966      1.0  0.61174  0.40619  0.04125  1.0000
  S   S135      1.0  0.57936  0.25032  0.20090  1.0000
  S   S136      1.0  0.64374  0.23338  0.25642  1.0000
  C   C967      1.0  0.52382  0.18043  0.16103  1.0000
  S   S137      1.0  0.79923  0.01431  0.23447  1.0000
  H   H769      1.0  0.68618  0.44595  0.07765  1.0000
  H   H770      1.0  0.72513  0.45150  0.01814  1.0000
  Fe  Fe71      1.0  0.85139  0.34134  0.00710  1.0000
  C   C968      1.0  0.74056  0.17869  0.28284  1.0000
  H   H771      1.0  0.74808  0.27791  0.31458  1.0000
  H   H772      1.0  0.58402  0.34175  0.18806  1.0000
  Fe  Fe72      1.0  0.86548  0.00462  0.24066  1.0000
  S   S138      1.0  0.91480  0.03954  0.23661  1.0000
  C   C969      1.0  0.60789  0.45888  0.02839  1.0000
  H   H773      1.0  0.71245  0.02194  0.25369  1.0000
  S   S139      1.0  0.86729  0.38652  0.02824  1.0000
  S   S140      1.0  0.56606  0.05805  0.03983  1.0000
  C   C970      1.0  0.69312  0.00541  0.10157  1.0000
  P   P33       1.0  0.67032  0.38007  0.07943  1.0000
  C   C971      1.0  0.82110  0.20103  0.08286  1.0000
  C   C972      1.0  0.94880  0.99958  0.31716  1.0000
  H   H774      1.0  0.67860  0.32954  0.31476  1.0000
  C   C973      1.0  0.64298  0.36932  0.11441  1.0000
  C   C974      1.0  0.77060  0.41664  0.12102  1.0000
  H   H775      1.0  0.58410  0.38285  0.09726  1.0000
  C   C975      1.0  0.72206  0.38794  0.09044  1.0000
  S   S141      1.0  0.64644  0.09761  0.02150  1.0000
  H   H776      1.0  0.70072  0.05955  0.15722  1.0000
  C   C976      1.0  0.59307  0.42978  0.02533  1.0000
  H   H777      1.0  0.74846  0.35242  0.06225  1.0000
  C   C977      1.0  0.76041  0.09508  0.02766  1.0000
  H   H778      1.0  0.92747  0.43917  0.17092  1.0000
  Fe  Fe73      1.0  0.58081  0.09671  0.00851  1.0000
  C   C978      1.0  0.93512  0.02973  0.17408  1.0000
  C   C979      1.0  0.94735  0.04021  0.20359  1.0000
  C   C980      1.0  0.75872  0.04135  0.03453  1.0000
  H   H779      1.0  0.93539  0.04460  0.30268  1.0000
  C   C981      1.0  0.49614  0.16105  0.11265  1.0000
  C   C982      1.0  0.84321  0.21572  0.05956  1.0000
  H   H780      1.0  0.96981  0.31773  0.28100  1.0000
  C   C983      1.0  0.66002  0.44088  0.06357  1.0000
  C   C984      1.0  0.71769  0.98360  0.11570  1.0000
  H   H781      1.0  0.83315  0.40454  0.11487  1.0000
  C   C985      1.0  0.94192  0.42586  0.30399  1.0000
  S   S142      1.0  0.73717  0.99350  0.31172  1.0000
  H   H782      1.0  0.52463  0.97156  0.29098  1.0000
  C   C986      1.0  0.68139  0.35440  0.02059  1.0000
  C   C987      1.0  0.92819  0.42436  0.04652  1.0000
  H   H783      1.0  0.65818  0.33507  0.18501  1.0000
  H   H784      1.0  0.51549  0.11976  0.26590  1.0000
  H   H785      1.0  0.70654  0.42294  0.12352  1.0000
  H   H786      1.0  0.95026  0.02662  0.12478  1.0000
  H   H787      1.0  0.77699  0.43448  0.13756  1.0000
  C   C988      1.0  0.98560  0.05341  0.20668  1.0000
  H   H788      1.0  0.84024  0.44742  0.06344  1.0000
  S   S143      1.0  0.85664  0.98009  0.28658  1.0000
  H   H789      1.0  0.54725  0.36531  0.14410  1.0000
  C   C989      1.0  0.94674  0.37233  0.04150  1.0000
  C   C990      1.0  0.73456  0.26727  0.08305  1.0000
  C   C991      1.0  0.70085  0.25175  0.09491  1.0000
  C   C992      1.0  0.68800  0.25577  0.12617  1.0000
  C   C993      1.0  0.70973  0.27451  0.14630  1.0000
  C   C994      1.0  0.74352  0.28998  0.13447  1.0000
  C   C995      1.0  0.75552  0.28675  0.10289  1.0000
  H   H790      1.0  0.68447  0.23658  0.07977  1.0000
  H   H791      1.0  0.66176  0.24391  0.13475  1.0000
  H   H792      1.0  0.76070  0.30443  0.14985  1.0000
  H   H793      1.0  0.78137  0.29890  0.09405  1.0000
  Fe  Fe74      1.0  0.79014  0.98635  0.27794  1.0000
  C   C996      1.0  0.60091  0.37296  0.11632  1.0000
  S   S144      1.0  0.64815  0.02520  0.01205  1.0000
  C   C997      1.0  0.87299  0.45612  0.14979  1.0000
  H   H794      1.0  0.64265  0.12468  0.11811  1.0000
  C   C998      1.0  0.71764  0.21194  0.32406  1.0000
  C   C999      1.0  0.77908  0.09042  0.20283  1.0000
  C   C1000     1.0  0.81173  0.08737  0.22331  1.0000
  C   C1001     1.0  0.85455  0.96566  0.10142  1.0000
  C   C1002     1.0  0.77273  0.11076  0.26471  1.0000
  C   C1003     1.0  0.74038  0.11509  0.24389  1.0000
  C   C1004     1.0  0.74359  0.10431  0.21298  1.0000
  P   P34       1.0  0.69401  0.13226  0.25728  1.0000
  C   C1005     1.0  0.66203  0.10459  0.27596  1.0000
  C   C1006     1.0  0.70406  0.16263  0.28440  1.0000
  C   C1007     1.0  0.66768  0.03531  0.21990  1.0000
  H   H795      1.0  0.71034  0.07296  0.28522  1.0000
  H   H796      1.0  0.72214  0.96229  0.10420  1.0000
  H   H797      1.0  0.85323  0.44613  0.16718  1.0000
  H   H798      1.0  0.91927  0.41471  0.31811  1.0000
  C   C1008     1.0  0.62048  0.10987  0.27975  1.0000
  H   H799      1.0  0.69561  0.35120  0.13810  1.0000
  C   C1009     1.0  0.49689  0.14539  0.02352  1.0000
  H   H800      1.0  0.83131  0.16494  0.22233  1.0000
  S   S145      1.0  0.76493  0.96076  0.16272  1.0000
  C   C1010     1.0  0.66983  0.14867  0.22341  1.0000
  C   C1011     1.0  0.68330  0.17640  0.21202  1.0000
  C   C1012     1.0  0.66551  0.18918  0.18555  1.0000
  C   C1013     1.0  0.63431  0.17431  0.17003  1.0000
  C   C1014     1.0  0.62107  0.14645  0.18085  1.0000
  C   C1015     1.0  0.63902  0.13348  0.20726  1.0000
  H   H801      1.0  0.78121  0.08167  0.17917  1.0000
  H   H802      1.0  0.83922  0.07644  0.21548  1.0000
  H   H803      1.0  0.84403  0.23988  0.05912  1.0000
  Fe  Fe75      1.0  0.58294  0.03010  0.99796  1.0000
  H   H804      1.0  0.71868  0.10633  0.19671  1.0000
  C   C1016     1.0  0.60050  0.34965  0.16766  1.0000
  C   C1017     1.0  0.67785  0.98429  0.23738  1.0000
  C   C1018     1.0  0.95389  0.37860  0.23482  1.0000
  Fe  Fe76      1.0  0.79843  0.97106  0.20778  1.0000
  H   H805      1.0  0.60707  0.13044  0.27139  1.0000
  H   H806      1.0  0.59995  0.38373  0.03827  1.0000
  C   C1019     1.0  0.72473  0.16790  0.07168  1.0000
  C   C1020     1.0  0.64229  0.34592  0.16593  1.0000
  H   H807      1.0  0.70726  0.18846  0.22370  1.0000
  H   H808      1.0  0.67570  0.21085  0.17740  1.0000
  H   H809      1.0  0.62049  0.18442  0.14960  1.0000
  H   H810      1.0  0.59672  0.13497  0.16888  1.0000
  H   H811      1.0  0.62867  0.11175  0.21499  1.0000
  C   C1021     1.0  0.70548  0.03839  0.14554  1.0000
  C   C1022     1.0  0.95424  0.33299  0.26536  1.0000
  H   H812      1.0  0.67865  0.00086  0.07932  1.0000
  H   H813      1.0  0.83334  0.09379  0.27038  1.0000
  C   C1023     1.0  0.51293  0.16666  0.27648  1.0000
  H   H814      1.0  0.67624  0.05866  0.22050  1.0000
  H   H815      1.0  0.81806  0.36330  0.07782  1.0000
  H   H816      1.0  0.66644  0.03565  0.31001  1.0000
  H   H817      1.0  0.78285  0.42212  0.03867  1.0000
  H   H818      1.0  0.90718  0.99298  0.09400  1.0000
  C   C1024     1.0  0.74734  0.20315  0.30268  1.0000
  C   C1025     1.0  0.93040  0.44914  0.28373  1.0000
  C   C1026     1.0  0.75393  0.37066  0.07842  1.0000
  C   C1027     1.0  0.67434  0.17184  0.30588  1.0000
  C   C1028     1.0  0.65568  0.29748  0.03892  1.0000
  H   H819      1.0  0.67633  0.18096  0.04083  1.0000
  C   C1029     1.0  0.68827  0.01459  0.23843  1.0000
  C   C1030     1.0  0.61248  0.06201  0.30564  1.0000
  H   H820      1.0  0.88031  0.21098  0.01837  1.0000
  C   C1031     1.0  0.87844  0.98579  0.08452  1.0000
  H   H821      1.0  0.64652  0.27524  0.04608  1.0000
  C   C1032     1.0  0.59592  0.08876  0.29473  1.0000
  C   C1033     1.0  0.57981  0.36306  0.14284  1.0000
  H   H822      1.0  0.57898  0.97870  0.25217  1.0000
  H   H823      1.0  0.88386  0.01246  0.04278  1.0000
  C   C1034     1.0  0.65646  0.32076  0.06084  1.0000
  H   H824      1.0  0.96796  0.99516  0.29705  1.0000
  C   C1035     1.0  0.68657  0.03271  0.11672  1.0000
  C   C1036     1.0  0.91750  0.39473  0.03935  1.0000
  C   C1037     1.0  0.73016  0.01666  0.15957  1.0000
  C   C1038     1.0  0.68452  0.16857  0.06173  1.0000
  C   C1039     1.0  0.64665  0.97452  0.21762  1.0000
  H   H825      1.0  0.74800  0.44406  0.20814  1.0000
  C   C1040     1.0  0.63662  0.02577  0.20014  1.0000
  C   C1041     1.0  0.74291  0.06962  0.04095  1.0000
  H   H826      1.0  0.50432  0.07068  0.23546  1.0000
  C   C1042     1.0  0.67847  0.07778  0.28740  1.0000
  H   H827      1.0  0.74416  0.02111  0.18194  1.0000
  C   C1043     1.0  0.66345  0.35541  0.13934  1.0000
  C   C1044     1.0  0.86533  0.99651  0.05538  1.0000
  S   S146      1.0  0.54787  0.14122  0.01213  1.0000
  C   C1045     1.0  0.79833  0.30755  0.30681  1.0000
  H   H828      1.0  0.74684  0.18017  0.05810  1.0000
  C   C1046     1.0  0.52715  0.17566  0.12875  1.0000
  C   C1047     1.0  0.98625  0.37957  0.05109  1.0000
  H   H829      1.0  0.59352  0.04560  0.31725  1.0000
  C   C1048     1.0  0.73596  0.98907  0.14489  1.0000
  C   C1049     1.0  0.73067  0.41034  0.11260  1.0000
  H   H830      1.0  0.51391  0.08109  0.15001  1.0000
  C   C1050     1.0  0.64550  0.41145  0.06051  1.0000
  H   H831      1.0  0.90587  0.44175  0.04504  1.0000
  H   H832      1.0  0.71676  0.07172  0.05600  1.0000
  H   H833      1.0  0.74457  0.02182  0.04486  1.0000
  H   H834      1.0  0.55341  0.18361  0.11607  1.0000
  C   C1051     1.0  0.65492  0.15306  0.07850  1.0000
  H   H835      1.0  0.64771  0.31600  0.08481  1.0000
  C   C1052     1.0  0.91469  0.32685  0.25570  1.0000
  C   C1053     1.0  0.89396  0.34707  0.23630  1.0000
  C   C1054     1.0  0.91442  0.37248  0.22505  1.0000
  P   P35       1.0  0.84304  0.33902  0.22342  1.0000
  C   C1055     1.0  0.81398  0.37267  0.21778  1.0000
  C   C1056     1.0  0.84755  0.31865  0.18699  1.0000
  C   C1057     1.0  0.85314  0.33419  0.15868  1.0000
  C   C1058     1.0  0.85772  0.31851  0.13048  1.0000
  C   C1059     1.0  0.85656  0.28727  0.13034  1.0000
  C   C1060     1.0  0.85149  0.27163  0.15847  1.0000
  C   C1061     1.0  0.84759  0.28723  0.18677  1.0000
  C   C1062     1.0  0.82290  0.39871  0.23488  1.0000
  C   C1063     1.0  0.79951  0.42441  0.23096  1.0000
  C   C1064     1.0  0.76621  0.42407  0.21088  1.0000
  C   C1065     1.0  0.75596  0.39779  0.19497  1.0000
  C   C1066     1.0  0.77988  0.37222  0.19820  1.0000
  C   C1067     1.0  0.81428  0.31850  0.25232  1.0000
  C   C1068     1.0  0.82179  0.32255  0.28449  1.0000
  C   C1069     1.0  0.91477  0.45238  0.15203  1.0000
  C   C1070     1.0  0.66896  0.34950  0.05171  1.0000
  C   C1071     1.0  0.75806  0.28568  0.26531  1.0000
  C   C1072     1.0  0.78153  0.30058  0.24294  1.0000
  H   H836      1.0  0.96909  0.39877  0.22703  1.0000
  H   H837      1.0  0.90559  0.01969  0.17137  1.0000
  C   C1073     1.0  0.93037  0.02750  0.32031  1.0000
  H   H838      1.0  0.90031  0.30644  0.26361  1.0000
  H   H839      1.0  0.89980  0.38784  0.20908  1.0000
  H   H840      1.0  0.85434  0.35840  0.15844  1.0000
  H   H841      1.0  0.86242  0.33054  0.10871  1.0000
  H   H842      1.0  0.85973  0.27519  0.10842  1.0000
  H   H843      1.0  0.85083  0.24740  0.15834  1.0000
  H   H844      1.0  0.84472  0.27474  0.20842  1.0000
  H   H845      1.0  0.84751  0.39929  0.25163  1.0000
  H   H846      1.0  0.64536  0.16082  0.30707  1.0000
  H   H847      1.0  0.60165  0.98857  0.18378  1.0000
  H   H848      1.0  0.72925  0.39714  0.18036  1.0000
  H   H849      1.0  0.77127  0.35195  0.18595  1.0000
  H   H850      1.0  0.84514  0.33774  0.29247  1.0000
  S   S147      1.0  0.65407  0.06000  0.10109  1.0000
  H   H851      1.0  0.73243  0.27228  0.25794  1.0000
  H   H852      1.0  0.77347  0.29857  0.21840  1.0000
  C   C1074     1.0  0.96788  0.43169  0.05540  1.0000
  C   C1075     1.0  0.80214  0.39972  0.10846  1.0000
  H   H853      1.0  0.93878  0.34941  0.03621  1.0000
  H   H854      1.0  0.80692  0.44440  0.24412  1.0000
  H   H855      1.0  0.76350  0.17273  0.26592  1.0000
  C   C1076     1.0  0.66545  0.13730  0.10556  1.0000
  C   C1077     1.0  0.86371  0.07936  0.12570  1.0000
  C   C1078     1.0  0.83871  0.05454  0.12141  1.0000
  C   C1079     1.0  0.79827  0.05856  0.11332  1.0000
  C   C1080     1.0  0.78226  0.08741  0.11064  1.0000
  C   C1081     1.0  0.80697  0.11257  0.11547  1.0000
  C   C1082     1.0  0.84810  0.10821  0.12229  1.0000
  P   P36       1.0  0.78769  0.15041  0.11179  1.0000
  C   C1083     1.0  0.73571  0.15165  0.09866  1.0000
  C   C1084     1.0  0.78949  0.16968  0.14922  1.0000
  C   C1085     1.0  0.81180  0.15826  0.17462  1.0000
  C   C1086     1.0  0.81401  0.17399  0.20295  1.0000
  C   C1087     1.0  0.79428  0.20137  0.20617  1.0000
  C   C1088     1.0  0.77160  0.21266  0.18130  1.0000
  C   C1089     1.0  0.76856  0.19673  0.15316  1.0000
  H   H856      1.0  0.62393  0.15290  0.07024  1.0000
  C   C1090     1.0  0.76672  0.28896  0.29721  1.0000
  C   C1091     1.0  0.70547  0.13709  0.11601  1.0000
  C   C1092     1.0  0.81864  0.16965  0.08312  1.0000
  C   C1093     1.0  0.83837  0.15337  0.05940  1.0000
  S   S148      1.0  0.50959  0.32000  0.21893  1.0000
  C   C1094     1.0  0.82874  0.98639  0.04252  1.0000
  C   C1095     1.0  0.65365  0.05650  0.30179  1.0000
  C   C1096     1.0  0.86084  0.16820  0.03632  1.0000
  H   H857      1.0  0.89528  0.07622  0.13161  1.0000
  H   H858      1.0  0.85064  0.03216  0.12427  1.0000
  H   H859      1.0  0.77929  0.03919  0.10915  1.0000
  H   H860      1.0  0.75081  0.08964  0.10451  1.0000
  H   H861      1.0  0.86812  0.12720  0.12528  1.0000
  H   H862      1.0  0.82753  0.13724  0.17301  1.0000
  C   C1097     1.0  0.79369  0.37654  0.08749  1.0000
  H   H863      1.0  0.54746  0.19199  0.17375  1.0000
  H   H864      1.0  0.75627  0.23381  0.18389  1.0000
  H   H865      1.0  0.75024  0.20581  0.13437  1.0000
  H   H866      1.0  0.79632  0.21383  0.22794  1.0000
  H   H867      1.0  0.71290  0.12493  0.13721  1.0000
  H   H868      1.0  0.83616  0.12923  0.05842  1.0000
  H   H869      1.0  0.80512  0.21443  0.09987  1.0000
  C   C1098     1.0  0.62601  0.99552  0.19906  1.0000
  H   H870      1.0  0.77028  0.11761  0.28903  1.0000
  C   C1099     1.0  0.86327  0.19939  0.03641  1.0000
  H   H871      1.0  0.62129  0.04171  0.18517  1.0000
  H   H872      1.0  0.77539  0.21558  0.30129  1.0000
  C   C1100     1.0  0.80840  0.09724  0.25431  1.0000
  H   H873      1.0  0.69405  0.96870  0.25217  1.0000
  C   C1101     1.0  0.97370  0.35897  0.25510  1.0000
  H   H874      1.0  0.56408  0.09321  0.29810  1.0000
  C   C1102     1.0  0.78250  0.44626  0.04111  1.0000
  C   C1103     1.0  0.96050  0.03352  0.14774  1.0000
  H   H875      1.0  0.74742  0.11686  0.03214  1.0000
  C   C1104     1.0  0.68118  0.19633  0.32559  1.0000
  H   H876      1.0  0.80741  0.11200  0.99761  1.0000
  H   H877      1.0  0.99114  0.39922  0.32219  1.0000
  H   H878      1.0  0.87610  0.15556  0.01818  1.0000
  S   S149      1.0  0.86543  0.96356  0.21061  1.0000
  C   C1105     1.0  0.66813  0.30251  0.00804  1.0000
  C   C1106     1.0  0.98261  0.41700  0.30632  1.0000
  H   H879      1.0  0.49977  0.19356  0.02217  1.0000
  H   H880      1.0  0.49649  0.09539  0.09545  1.0000
  H   H881      1.0  0.93827  0.96149  0.04565  1.0000
  C   C1107     1.0  0.80441  0.96683  0.06009  1.0000
  H   H882      1.0  0.56730  0.42543  0.01031  1.0000
  C   C1108     1.0  0.50039  0.13679  0.27944  1.0000
  H   H883      1.0  0.49864  0.15763  0.08763  1.0000
  P   P37       1.0  0.81085  0.00142  0.00574  1.0000
  C   C1109     1.0  0.79416  0.09229  0.00820  1.0000
  H   H884      1.0  0.50230  0.21158  0.29256  1.0000
  H   H885      1.0  0.99017  0.30611  0.02432  1.0000
  H   H886      1.0  0.49485  0.29725  0.32078  1.0000
  C   C1110     1.0  0.81011  0.06399  0.00169  1.0000
  H   H887      1.0  0.89112  0.97330  0.99924  1.0000
  C   C1111     1.0  0.68088  0.33097  0.99885  1.0000
  Fe  Fe77      1.0  0.87123  0.30508  0.47206  1.0000
  S   S150      1.0  0.87637  0.34873  0.44661  1.0000
  S   S151      1.0  0.91237  0.26642  0.46099  1.0000
  Fe  Fe78      1.0  0.80870  0.34460  0.44247  1.0000
  S   S152      1.0  0.77684  0.35639  0.39674  1.0000
  S   S153      1.0  0.80416  0.29964  0.46532  1.0000
  Fe  Fe79      1.0  0.65580  0.05739  0.47288  1.0000
  H   H888      1.0  0.94809  0.04252  0.61074  1.0000
  S   S154      1.0  0.71332  0.06014  0.44317  1.0000
  C   C1112     1.0  0.75654  0.04391  0.39054  1.0000
  H   H889      1.0  0.95916  0.24455  0.61897  1.0000
  S   S155      1.0  0.59168  0.06384  0.45651  1.0000
  C   C1113     1.0  0.71979  0.04105  0.40690  1.0000
  H   H890      1.0  0.54647  0.23975  0.39047  1.0000
  C   C1114     1.0  0.74409  0.00006  0.61500  1.0000
  C   C1115     1.0  0.94156  0.97714  0.33936  1.0000
  C   C1116     1.0  0.69534  0.00887  0.36497  1.0000
  C   C1117     1.0  0.68925  0.02332  0.39399  1.0000
  H   H891      1.0  0.54266  0.27259  0.52556  1.0000
  H   H892      1.0  0.88997  0.05457  0.34774  1.0000
  H   H893      1.0  0.79286  0.27368  0.57644  1.0000
  H   H894      1.0  0.66088  0.02077  0.40631  1.0000
  C   C1118     1.0  0.49851  0.43797  0.42015  1.0000
  H   H895      1.0  0.87825  0.01550  0.38792  1.0000
  C   C1119     1.0  0.75056  0.00654  0.64687  1.0000
  S   S156      1.0  0.53948  0.98615  0.47474  1.0000
  C   C1120     1.0  0.94965  0.27134  0.43154  1.0000
  H   H896      1.0  0.54035  0.12790  0.63673  1.0000
  C   C1121     1.0  0.55032  0.23629  0.49268  1.0000
  H   H897      1.0  0.74962  0.10679  0.63441  1.0000
  C   C1122     1.0  0.92002  0.96573  0.45961  1.0000
  C   C1123     1.0  0.68523  0.44120  0.44360  1.0000
  H   H898      1.0  0.54866  0.14067  0.35118  1.0000
  H   H899      1.0  0.66236  0.11122  0.42308  1.0000
  C   C1124     1.0  0.97698  0.39842  0.51220  1.0000
  C   C1125     1.0  0.54937  0.40685  0.39577  1.0000
  C   C1126     1.0  0.73998  0.33271  0.37948  1.0000
  C   C1127     1.0  0.72216  0.34094  0.35078  1.0000
  H   H900      1.0  0.51706  0.10902  0.44330  1.0000
  H   H901      1.0  0.99180  0.36970  0.57462  1.0000
  C   C1128     1.0  0.51778  0.12672  0.42594  1.0000
  C   C1129     1.0  0.72765  0.30616  0.39394  1.0000
  C   C1130     1.0  0.76268  0.02946  0.36148  1.0000
  H   H902      1.0  0.57898  0.40441  0.38522  1.0000
  H   H903      1.0  0.74093  0.29953  0.41600  1.0000
  Fe  Fe80      1.0  0.79822  0.32430  0.51122  1.0000
  S   S157      1.0  0.79877  0.36932  0.48768  1.0000
  S   S158      1.0  0.74486  0.31950  0.54494  1.0000
  Fe  Fe81      1.0  0.86610  0.36866  0.49440  1.0000
  S   S159      1.0  0.89451  0.40950  0.51729  1.0000
  S   S160      1.0  0.86515  0.32514  0.52041  1.0000
  Fe  Fe82      1.0  0.58202  0.09178  0.50009  1.0000
  S   S161      1.0  0.56437  0.05345  0.53085  1.0000
  S   S162      1.0  0.55296  0.13763  0.50497  1.0000
  Fe  Fe83      1.0  0.57862  0.02519  0.48874  1.0000
  H   H904      1.0  0.78029  0.05747  0.40033  1.0000
  S   S163      1.0  0.64758  0.08952  0.51320  1.0000
  C   C1131     1.0  0.98570  0.31124  0.52812  1.0000
  H   H905      1.0  0.77036  0.45534  0.45739  1.0000
  C   C1132     1.0  0.91587  0.98258  0.36492  1.0000
  C   C1133     1.0  0.49506  0.27155  0.49123  1.0000
  H   H906      1.0  0.65774  0.20381  0.34154  1.0000
  S   S164      1.0  0.64320  0.01709  0.50305  1.0000
  C   C1134     1.0  0.93489  0.96926  0.42894  1.0000
  C   C1135     1.0  0.71248  0.01368  0.59832  1.0000
  H   H907      1.0  0.87550  0.98650  0.61397  1.0000
  H   H908      1.0  0.79464  0.44637  0.52329  1.0000
  H   H909      1.0  0.98419  0.23951  0.50179  1.0000
  C   C1136     1.0  0.92005  0.02050  0.57168  1.0000
  H   H910      1.0  0.83984  0.03821  0.63070  1.0000
  C   C1137     1.0  0.91124  0.96485  0.64949  1.0000
  C   C1138     1.0  0.72604  0.02760  0.66178  1.0000
  H   H911      1.0  0.49770  0.98827  0.54845  1.0000
  C   C1139     1.0  0.91245  0.05869  0.44530  1.0000
  C   C1140     1.0  0.88191  0.36923  0.64892  1.0000
  H   H912      1.0  0.53379  0.36036  0.39020  1.0000
  C   C1141     1.0  0.50383  0.14458  0.51972  1.0000
  C   C1142     1.0  0.57505  0.05962  0.65985  1.0000
  C   C1143     1.0  0.66614  0.13044  0.43835  1.0000
  H   H913      1.0  0.73086  0.12766  0.43836  1.0000
  C   C1144     1.0  0.73687  0.29736  0.57896  1.0000
  C   C1145     1.0  0.70054  0.30054  0.59573  1.0000
  C   C1146     1.0  0.69281  0.28332  0.62280  1.0000
  C   C1147     1.0  0.72140  0.26266  0.63331  1.0000
  C   C1148     1.0  0.75775  0.25951  0.61660  1.0000
  C   C1149     1.0  0.76535  0.27668  0.58949  1.0000
  H   H914      1.0  0.67821  0.31645  0.58775  1.0000
  C   C1150     1.0  0.88102  0.45900  0.45820  1.0000
  C   C1151     1.0  0.67494  0.29955  0.47791  1.0000
  C   C1152     1.0  0.64886  0.29898  0.45217  1.0000
  C   C1153     1.0  0.63305  0.27178  0.44169  1.0000
  C   C1154     1.0  0.64336  0.24513  0.45689  1.0000
  C   C1155     1.0  0.66960  0.24551  0.48283  1.0000
  C   C1156     1.0  0.68523  0.27298  0.49310  1.0000
  P   P38       1.0  0.68162  0.21175  0.50436  1.0000
  C   C1157     1.0  0.67597  0.17958  0.47882  1.0000
  C   C1158     1.0  0.73330  0.21476  0.51768  1.0000
  C   C1159     1.0  0.74387  0.20686  0.54851  1.0000
  C   C1160     1.0  0.78411  0.20868  0.55834  1.0000
  C   C1161     1.0  0.81393  0.21875  0.53763  1.0000
  C   C1162     1.0  0.80359  0.22701  0.50706  1.0000
  C   C1163     1.0  0.76343  0.22509  0.49711  1.0000
  C   C1164     1.0  0.63726  0.16977  0.47016  1.0000
  C   C1165     1.0  0.53532  0.12174  0.39657  1.0000
  H   H915      1.0  0.94376  0.05270  0.44150  1.0000
  C   C1166     1.0  0.70482  0.13979  0.44699  1.0000
  C   C1167     1.0  0.70981  0.16433  0.46700  1.0000
  C   C1168     1.0  0.64846  0.20971  0.53813  1.0000
  C   C1169     1.0  0.64264  0.23512  0.55702  1.0000
  C   C1170     1.0  0.61700  0.23391  0.58308  1.0000
  C   C1171     1.0  0.59696  0.20736  0.59056  1.0000
  C   C1172     1.0  0.60306  0.18181  0.57225  1.0000
  C   C1173     1.0  0.62912  0.18282  0.54642  1.0000
  H   H916      1.0  0.68740  0.32052  0.48629  1.0000
  H   H917      1.0  0.64123  0.31953  0.44010  1.0000
  H   H918      1.0  0.61332  0.27132  0.42139  1.0000
  H   H919      1.0  0.63081  0.22452  0.44805  1.0000
  H   H920      1.0  0.70544  0.27389  0.51298  1.0000
  H   H921      1.0  0.72122  0.19940  0.56509  1.0000
  H   H922      1.0  0.79198  0.20273  0.58220  1.0000
  H   H923      1.0  0.84501  0.22047  0.54529  1.0000
  H   H924      1.0  0.82669  0.23515  0.49107  1.0000
  H   H925      1.0  0.75586  0.23172  0.47336  1.0000
  H   H926      1.0  0.61069  0.18079  0.47927  1.0000
  H   H927      1.0  0.81431  0.30476  0.65507  1.0000
  C   C1174     1.0  0.88469  0.43314  0.40828  1.0000
  H   H928      1.0  0.74009  0.17110  0.47309  1.0000
  H   H929      1.0  0.65807  0.25591  0.55194  1.0000
  H   H930      1.0  0.61271  0.25363  0.59754  1.0000
  H   H931      1.0  0.57701  0.20663  0.61071  1.0000
  H   H932      1.0  0.58746  0.16115  0.57783  1.0000
  H   H933      1.0  0.63372  0.16255  0.53302  1.0000
  H   H934      1.0  0.86366  0.44844  0.61376  1.0000
  C   C1175     1.0  0.56879  0.08475  0.64082  1.0000
  C   C1176     1.0  0.76351  0.97951  0.47946  1.0000
  H   H935      1.0  0.76321  0.98396  0.60334  1.0000
  C   C1177     1.0  0.78046  0.96664  0.53300  1.0000
  C   C1178     1.0  0.79963  0.99433  0.53667  1.0000
  C   C1179     1.0  0.80232  0.01433  0.51128  1.0000
  C   C1180     1.0  0.78335  0.00693  0.48285  1.0000
  P   P39       1.0  0.82807  0.04981  0.51544  1.0000
  C   C1181     1.0  0.79238  0.07861  0.52586  1.0000
  C   C1182     1.0  0.86572  0.04754  0.54609  1.0000
  C   C1183     1.0  0.87173  0.07145  0.56704  1.0000
  C   C1184     1.0  0.90136  0.06959  0.59034  1.0000
  C   C1185     1.0  0.88996  0.02196  0.54879  1.0000
  C   C1186     1.0  0.80019  0.10862  0.51817  1.0000
  C   C1187     1.0  0.77381  0.13115  0.52791  1.0000
  C   C1188     1.0  0.74000  0.12400  0.54606  1.0000
  C   C1189     1.0  0.73262  0.09430  0.55442  1.0000
  C   C1190     1.0  0.75828  0.07160  0.54395  1.0000
  C   C1191     1.0  0.85277  0.05874  0.47866  1.0000
  C   C1192     1.0  0.83149  0.07371  0.45489  1.0000
  C   C1193     1.0  0.89334  0.05097  0.47343  1.0000
  H   H936      1.0  0.74879  0.97417  0.45745  1.0000
  C   C1194     1.0  0.69456  0.04143  0.64502  1.0000
  C   C1195     1.0  0.53067  0.26130  0.50504  1.0000
  H   H937      1.0  0.81246  0.99991  0.55928  1.0000
  H   H938      1.0  0.78351  0.02231  0.46325  1.0000
  H   H939      1.0  0.85372  0.09153  0.56564  1.0000
  H   H940      1.0  0.90595  0.08791  0.60663  1.0000
  H   H941      1.0  0.88565  0.00324  0.53305  1.0000
  H   H942      1.0  0.82685  0.11471  0.50490  1.0000
  H   H943      1.0  0.77974  0.15412  0.52140  1.0000
  H   H944      1.0  0.71932  0.14135  0.55351  1.0000
  H   H945      1.0  0.70652  0.08876  0.56862  1.0000
  H   H946      1.0  0.75168  0.04869  0.55033  1.0000
  H   H947      1.0  0.79982  0.07920  0.45790  1.0000
  H   H948      1.0  0.91056  0.03911  0.49093  1.0000
  S   S165      1.0  0.64560  0.05048  0.59421  1.0000
  C   C1196     1.0  0.94637  0.41691  0.52374  1.0000
  C   C1197     1.0  0.51027  0.96457  0.41930  1.0000
  H   H949      1.0  0.93165  0.97165  0.50875  1.0000
  H   H950      1.0  0.85094  0.32048  0.60746  1.0000
  C   C1198     1.0  0.89924  0.37719  0.62002  1.0000
  C   C1199     1.0  0.89277  0.40567  0.60748  1.0000
  C   C1200     1.0  0.86880  0.42634  0.62350  1.0000
  C   C1201     1.0  0.90006  0.30486  0.63684  1.0000
  H   H951      1.0  0.68869  0.26758  0.39128  1.0000
  C   C1202     1.0  0.96478  0.29957  0.42286  1.0000
  H   H952      1.0  0.95124  0.28303  0.65912  1.0000
  C   C1203     1.0  0.87942  0.28168  0.58773  1.0000
  C   C1204     1.0  0.90972  0.26026  0.59080  1.0000
  C   C1205     1.0  0.93537  0.26103  0.61671  1.0000
  C   C1206     1.0  0.87893  0.96693  0.62858  1.0000
  H   H953      1.0  0.93987  0.27712  0.52668  1.0000
  H   H954      1.0  0.66475  0.28605  0.63550  1.0000
  H   H955      1.0  0.91828  0.36167  0.60738  1.0000
  H   H956      1.0  0.90629  0.41176  0.58526  1.0000
  C   C1207     1.0  0.99401  0.99455  0.45030  1.0000
  C   C1208     1.0  0.67972  0.29645  0.35143  1.0000
  C   C1209     1.0  0.92530  0.04406  0.59269  1.0000
  H   H957      1.0  0.95348  0.22400  0.42314  1.0000
  H   H958      1.0  0.67061  0.18683  0.62580  1.0000
  H   H959      1.0  0.91349  0.24321  0.57295  1.0000
  H   H960      1.0  0.50718  0.18694  0.59584  1.0000
  H   H961      1.0  0.96932  0.37882  0.49854  1.0000
  H   H962      1.0  0.51911  0.18957  0.36332  1.0000
  C   C1210     1.0  0.97115  0.28254  0.52194  1.0000
  Fe  Fe84      1.0  0.63056  0.04959  0.54213  1.0000
  C   C1211     1.0  0.53405  0.22119  0.46681  1.0000
  C   C1212     1.0  0.69217  0.32290  0.33677  1.0000
  C   C1213     1.0  0.94267  0.97560  0.48527  1.0000
  H   H963      1.0  0.87543  0.41476  0.39326  1.0000
  C   C1214     1.0  0.93058  0.28311  0.63963  1.0000
  C   C1215     1.0  0.85091  0.08183  0.42698  1.0000
  C   C1216     1.0  0.51918  0.17256  0.38132  1.0000
  H   H964      1.0  0.78241  0.06507  0.60658  1.0000
  H   H965      1.0  0.67541  0.05754  0.65672  1.0000
  H   H966      1.0  0.95412  0.31938  0.43474  1.0000
  H   H967      1.0  0.83444  0.09383  0.40899  1.0000
  H   H968      1.0  0.53787  0.29293  0.59008  1.0000
  H   H969      1.0  0.93934  0.00113  0.57339  1.0000
  H   H970      1.0  0.84837  0.41858  0.44732  1.0000
  P   P40       1.0  0.70828  0.44876  0.50591  1.0000
  C   C1217     1.0  0.82645  0.05718  0.64261  1.0000
  C   C1218     1.0  0.79401  0.07234  0.62904  1.0000
  H   H971      1.0  0.83454  0.97310  0.36059  1.0000
  H   H972      1.0  0.79105  0.03190  0.34916  1.0000
  C   C1219     1.0  0.51720  0.29349  0.60972  1.0000
  C   C1220     1.0  0.73608  0.42707  0.53432  1.0000
  C   C1221     1.0  0.77792  0.43092  0.53787  1.0000
  C   C1222     1.0  0.79898  0.41434  0.56028  1.0000
  C   C1223     1.0  0.77864  0.39382  0.57929  1.0000
  C   C1224     1.0  0.73702  0.38989  0.57593  1.0000
  C   C1225     1.0  0.71577  0.40641  0.55351  1.0000
  H   H973      1.0  0.55617  0.45420  0.40422  1.0000
  H   H974      1.0  0.54799  0.10004  0.39103  1.0000
  C   C1226     1.0  0.49972  0.01740  0.42798  1.0000
  H   H975      1.0  0.93331  0.45620  0.55087  1.0000
  H   H976      1.0  0.62482  0.45733  0.48246  1.0000
  C   C1227     1.0  0.69681  0.42672  0.47147  1.0000
  H   H977      1.0  0.73787  0.17469  0.64630  1.0000
  H   H978      1.0  0.83125  0.41717  0.56252  1.0000
  C   C1228     1.0  0.68415  0.39380  0.41622  1.0000
  C   C1229     1.0  0.69560  0.37925  0.44381  1.0000
  C   C1230     1.0  0.70144  0.39553  0.47148  1.0000
  H   H979      1.0  0.73159  0.36140  0.33935  1.0000
  H   H980      1.0  0.85971  0.28102  0.56753  1.0000
  H   H981      1.0  0.60233  0.13791  0.44375  1.0000
  C   C1231     1.0  0.89796  0.01086  0.36821  1.0000
  C   C1232     1.0  0.71186  0.16311  0.65580  1.0000
  H   H982      1.0  0.98214  0.31890  0.59722  1.0000
  H   H983      1.0  0.58336  0.08627  0.61810  1.0000
  H   H984      1.0  0.72140  0.37348  0.59020  1.0000
  H   H985      1.0  0.68359  0.40284  0.55096  1.0000
  C   C1233     1.0  0.53663  0.43482  0.40649  1.0000
  H   H986      1.0  0.78007  0.24364  0.62464  1.0000
  H   H987      1.0  0.99268  0.96385  0.57732  1.0000
  C   C1234     1.0  0.89139  0.07440  0.42223  1.0000
  H   H988      1.0  0.90643  0.08077  0.40065  1.0000
  H   H989      1.0  0.50418  0.03721  0.44211  1.0000
  H   H990      1.0  0.57758  0.22817  0.50369  1.0000
  H   H991      1.0  0.68065  0.38113  0.39471  1.0000
  H   H992      1.0  0.70160  0.35547  0.44331  1.0000
  H   H993      1.0  0.71075  0.38373  0.49242  1.0000
  C   C1235     1.0  0.86920  0.43541  0.43867  1.0000
  C   C1236     1.0  0.52470  0.26971  0.35506  1.0000
  H   H994      1.0  0.98647  0.11406  0.66322  1.0000
  C   C1237     1.0  0.53596  0.14465  0.37426  1.0000
  C   C1238     1.0  0.53217  0.29220  0.64063  1.0000
  H   H995      1.0  0.79519  0.38071  0.59633  1.0000
  C   C1239     1.0  0.67872  0.42476  0.41615  1.0000
  C   C1240     1.0  0.91240  0.45435  0.39745  1.0000
  C   C1241     1.0  0.95692  0.44227  0.54136  1.0000
  C   C1242     1.0  0.69777  0.28815  0.37994  1.0000
  H   H996      1.0  0.67146  0.99518  0.35524  1.0000
  C   C1243     1.0  0.63239  0.14545  0.44993  1.0000
  H   H997      1.0  0.59469  0.04201  0.65146  1.0000
  H   H998      1.0  0.70712  0.00790  0.57401  1.0000
  H   H999      1.0  0.67060  0.43609  0.39461  1.0000
  C   C1244     1.0  0.54442  0.10821  0.65122  1.0000
  H   H1000     1.0  0.54932  0.20161  0.45785  1.0000
  C   C1245     1.0  0.68734  0.03420  0.61339  1.0000
  C   C1246     1.0  0.99389  0.30213  0.39866  1.0000
  C   C1247     1.0  0.97194  0.98414  0.42458  1.0000
  C   C1248     1.0  0.67365  0.16994  0.64388  1.0000
  H   H1001     1.0  0.51589  0.19143  0.52655  1.0000
  H   H1002     1.0  0.60971  0.16169  0.64742  1.0000
  C   C1249     1.0  0.51545  0.98995  0.43805  1.0000
  H   H1003     1.0  0.49882  0.23136  0.63018  1.0000
  H   H1004     1.0  0.93309  0.98286  0.65104  1.0000
  H   H1005     1.0  0.56433  0.29092  0.64479  1.0000
  C   C1250     1.0  0.73189  0.01203  0.34842  1.0000
  H   H1006     1.0  0.92458  0.45247  0.37389  1.0000
  C   C1251     1.0  0.96463  0.24586  0.41652  1.0000
  H   H1007     1.0  0.96572  0.32799  0.53789  1.0000
  C   C1252     1.0  0.77524  0.09580  0.64512  1.0000
  H   H1008     1.0  0.72239  0.23115  0.33916  1.0000
  C   C1253     1.0  0.87460  0.30398  0.61048  1.0000
  C   C1254     1.0  0.52387  0.38203  0.39859  1.0000
  H   H1009     1.0  0.55475  0.27658  0.34793  1.0000
  C   C1255     1.0  0.90481  0.03310  0.34574  1.0000
  C   C1256     1.0  0.99289  0.24843  0.39218  1.0000
  C   C1257     1.0  0.63939  0.15590  0.65611  1.0000
  C   C1258     1.0  0.97964  0.98997  0.48072  1.0000
  S   S166      1.0  0.64100  0.27342  0.33587  1.0000
  C   C1259     1.0  0.51988  0.24877  0.37911  1.0000
  C   C1260     1.0  0.85137  0.41857  0.65219  1.0000
  H   H1010     1.0  0.98419  0.98738  0.40125  1.0000
  C   C1261     1.0  0.49794  0.23114  0.45318  1.0000
  C   C1262     1.0  0.50084  0.15454  0.43299  1.0000
  C   C1263     1.0  0.50162  0.17775  0.41084  1.0000
  H   H1011     1.0  0.86922  0.45956  0.48173  1.0000
  H   H1012     1.0  0.88337  0.19345  0.65906  1.0000
  H   H1013     1.0  0.80394  0.31102  0.33166  1.0000
  H   H1014     1.0  0.52983  0.25596  0.81965  1.0000
  S   S167      1.0  0.87793  0.32434  0.96211  1.0000
  H   H1015     1.0  0.67950  0.98231  0.95411  1.0000
  Fe  Fe85      1.0  0.81471  0.30997  0.94909  1.0000
  S   S168      1.0  0.79847  0.31739  0.89747  1.0000
  S   S169      1.0  0.82040  0.26473  0.97148  1.0000
  Fe  Fe86      1.0  0.65866  0.24257  0.69953  1.0000
  S   S170      1.0  0.64063  0.28394  0.72645  1.0000
  C   C1264     1.0  0.77147  0.97812  0.98978  1.0000
  Fe  Fe87      1.0  0.59448  0.20302  0.73210  1.0000
  S   S171      1.0  0.57243  0.24168  0.76030  1.0000
  S   S172      1.0  0.56724  0.15637  0.73845  1.0000
  Fe  Fe88      1.0  0.57757  0.26785  0.71578  1.0000
  C   C1265     1.0  0.78372  0.30400  0.69922  1.0000
  Fe  Fe89      1.0  0.63757  0.25364  0.76871  1.0000
  S   S173      1.0  0.65075  0.26105  0.82090  1.0000
  S   S174      1.0  0.59556  0.22837  0.68640  1.0000
  S   S175      1.0  0.65982  0.21306  0.74259  1.0000
  C   C1266     1.0  0.51194  0.12684  0.90670  1.0000
  S   S176      1.0  0.81032  0.03436  0.74654  1.0000
  C   C1267     1.0  0.98127  0.33717  0.90423  1.0000
  H   H1016     1.0  0.86888  0.39040  0.80280  1.0000
  C   C1268     1.0  0.70686  0.97246  0.96339  1.0000
  S   S177      1.0  0.89907  0.40819  0.74357  1.0000
  C   C1269     1.0  0.93417  0.17267  0.90519  1.0000
  S   S178      1.0  0.74356  0.00839  0.81935  1.0000
  Fe  Fe90      1.0  0.87587  0.02455  0.75537  1.0000
  S   S179      1.0  0.92171  0.06156  0.75029  1.0000
  C   C1270     1.0  0.73592  0.99065  0.97767  1.0000
  C   C1271     1.0  0.80404  0.22148  0.70019  1.0000
  Fe  Fe91      1.0  0.65757  0.06566  0.98162  1.0000
  H   H1017     1.0  0.93229  0.17932  0.95529  1.0000
  S   S180      1.0  0.71460  0.07121  0.95190  1.0000
  Fe  Fe92      1.0  0.81156  0.99319  0.71675  1.0000
  H   H1018     1.0  0.84544  0.38514  0.68785  1.0000
  S   S181      1.0  0.59315  0.06869  0.96541  1.0000
  C   C1272     1.0  0.72275  0.05320  0.91537  1.0000
  H   H1019     1.0  0.98237  0.31896  0.92093  1.0000
  H   H1020     1.0  0.93104  0.29510  0.71388  1.0000
  C   C1273     1.0  0.73738  0.02539  0.85668  1.0000
  C   C1274     1.0  0.70140  0.02004  0.87331  1.0000
  C   C1275     1.0  0.69417  0.03372  0.90255  1.0000
  H   H1021     1.0  0.50354  0.09021  0.84998  1.0000
  H   H1022     1.0  0.49856  0.03873  0.82950  1.0000
  H   H1023     1.0  0.67917  0.00491  0.86364  1.0000
  H   H1024     1.0  0.66663  0.02909  0.91530  1.0000
  C   C1276     1.0  0.95742  0.25934  0.89058  1.0000
  C   C1277     1.0  0.87367  0.12540  0.79237  1.0000
  H   H1025     1.0  0.92976  0.17124  0.85505  1.0000
  H   H1026     1.0  0.51318  0.03786  0.94598  1.0000
  C   C1278     1.0  0.94902  0.06266  0.71467  1.0000
  H   H1027     1.0  0.86245  0.13930  0.83979  1.0000
  C   C1279     1.0  0.79726  0.43591  0.83366  1.0000
  C   C1280     1.0  0.95325  0.37156  0.77325  1.0000
  C   C1281     1.0  0.94588  0.40058  0.76212  1.0000
  C   C1282     1.0  0.71607  0.14250  0.68047  1.0000
  H   H1028     1.0  0.93014  0.35471  0.77079  1.0000
  H   H1029     1.0  0.65407  0.00540  0.80562  1.0000
  C   C1283     1.0  0.52540  0.15093  0.76399  1.0000
  C   C1284     1.0  0.64336  0.13480  0.68005  1.0000
  H   H1030     1.0  0.69106  0.33467  0.97497  1.0000
  H   H1031     1.0  0.53584  0.10363  0.76878  1.0000
  H   H1032     1.0  0.99310  0.98390  0.99587  1.0000
  C   C1285     1.0  0.95885  0.24914  0.94657  1.0000
  C   C1286     1.0  0.94022  0.26229  0.92058  1.0000
  H   H1033     1.0  0.76490  0.43943  0.83333  1.0000
  H   H1034     1.0  0.87393  0.10173  0.79803  1.0000
  C   C1287     1.0  0.97627  0.42219  0.76496  1.0000
  H   H1035     1.0  0.85640  0.02074  0.89761  1.0000
  H   H1036     1.0  0.91193  0.27398  0.92338  1.0000
  H   H1037     1.0  0.73107  0.03293  0.68623  1.0000
  H   H1038     1.0  0.61672  0.12416  0.68976  1.0000
  H   H1039     1.0  0.53507  0.96820  0.69040  1.0000
  C   C1288     1.0  0.75787  0.30077  0.87639  1.0000
  C   C1289     1.0  0.72859  0.28320  0.89124  1.0000
  C   C1290     1.0  0.69614  0.27127  0.87382  1.0000
  C   C1291     1.0  0.69290  0.27626  0.84130  1.0000
  C   C1292     1.0  0.72268  0.29327  0.82628  1.0000
  C   C1293     1.0  0.75474  0.30568  0.84381  1.0000
  H   H1040     1.0  0.73059  0.27919  0.91622  1.0000
  H   H1041     1.0  0.67337  0.25806  0.88564  1.0000
  H   H1042     1.0  0.72046  0.29742  0.80135  1.0000
  H   H1043     1.0  0.77701  0.31941  0.83211  1.0000
  C   C1294     1.0  0.75876  0.05867  0.89875  1.0000
  H   H1044     1.0  0.80969  0.02541  0.94247  1.0000
  C   C1295     1.0  0.53119  0.08110  0.69928  1.0000
  H   H1045     1.0  0.68307  0.97246  0.67291  1.0000
  H   H1046     1.0  0.87051  0.21017  0.95376  1.0000
  Fe  Fe93      1.0  0.79881  0.00360  0.78753  1.0000
  C   C1296     1.0  0.50002  0.25424  0.83004  1.0000
  C   C1297     1.0  0.78537  0.31104  0.73114  1.0000
  H   H1047     1.0  0.50770  0.12498  0.68897  1.0000
  H   H1048     1.0  0.88443  0.11798  0.74320  1.0000
  C   C1298     1.0  0.62866  0.15470  0.96146  1.0000
  H   H1049     1.0  0.68345  0.11176  0.71079  1.0000
  C   C1299     1.0  0.82202  0.45486  0.85133  1.0000
  C   C1300     1.0  0.95076  0.31407  0.70988  1.0000
  H   H1050     1.0  0.91282  0.42364  0.83337  1.0000
  H   H1051     1.0  0.97443  0.40201  0.84415  1.0000
  H   H1052     1.0  0.75954  0.30656  0.74608  1.0000
  C   C1301     1.0  0.82205  0.08916  0.68826  1.0000
  S   S182      1.0  0.87808  0.98568  0.72277  1.0000
  H   H1053     1.0  0.97287  0.38841  0.95425  1.0000
  C   C1302     1.0  0.85281  0.33097  0.72408  1.0000
  H   H1054     1.0  0.75232  0.19646  0.71539  1.0000
  H   H1055     1.0  0.84479  0.14691  0.66641  1.0000
  C   C1303     1.0  0.91004  0.98180  0.95206  1.0000
  C   C1304     1.0  0.86905  0.29526  0.82991  1.0000
  C   C1305     1.0  0.90623  0.29813  0.81467  1.0000
  C   C1306     1.0  0.92820  0.27266  0.80651  1.0000
  C   C1307     1.0  0.91290  0.24426  0.81343  1.0000
  C   C1308     1.0  0.87492  0.24115  0.82775  1.0000
  C   C1309     1.0  0.85352  0.26687  0.83661  1.0000
  P   P41       1.0  0.85655  0.20459  0.83848  1.0000
  C   C1310     1.0  0.87993  0.19577  0.87551  1.0000
  C   C1311     1.0  0.80221  0.20416  0.84051  1.0000
  C   C1312     1.0  0.78192  0.18832  0.86427  1.0000
  C   C1313     1.0  0.73973  0.18692  0.86446  1.0000
  C   C1314     1.0  0.71768  0.20050  0.84047  1.0000
  C   C1315     1.0  0.73774  0.21538  0.81621  1.0000
  C   C1316     1.0  0.77981  0.21740  0.81629  1.0000
  C   C1317     1.0  0.55623  0.05766  0.68930  1.0000
  H   H1056     1.0  0.94227  0.26889  0.87062  1.0000
  C   C1318     1.0  0.94582  0.36215  0.86200  1.0000
  C   C1319     1.0  0.93937  0.33695  0.68913  1.0000
  C   C1320     1.0  0.86414  0.20747  0.90351  1.0000
  C   C1321     1.0  0.86755  0.17733  0.80851  1.0000
  C   C1322     1.0  0.99300  0.14052  0.78784  1.0000
  H   H1057     1.0  0.83308  0.09517  0.71131  1.0000
  C   C1323     1.0  0.95786  0.09051  0.70133  1.0000
  C   C1324     1.0  0.87904  0.16485  0.75377  1.0000
  C   C1325     1.0  0.87241  0.18620  0.77712  1.0000
  H   H1058     1.0  0.85269  0.31499  0.83745  1.0000
  H   H1059     1.0  0.91876  0.32004  0.81025  1.0000
  H   H1060     1.0  0.51667  0.08005  0.72197  1.0000
  H   H1061     1.0  0.93137  0.22483  0.80855  1.0000
  H   H1062     1.0  0.82532  0.26510  0.84938  1.0000
  H   H1063     1.0  0.79841  0.17681  0.88252  1.0000
  H   H1064     1.0  0.72403  0.17542  0.88323  1.0000
  H   H1065     1.0  0.68499  0.19994  0.84091  1.0000
  H   H1066     1.0  0.72049  0.22608  0.79777  1.0000
  H   H1067     1.0  0.79480  0.22928  0.79744  1.0000
  H   H1068     1.0  0.83619  0.06229  0.98656  1.0000
  C   C1326     1.0  0.50184  0.11304  0.93522  1.0000
  H   H1069     1.0  0.75651  0.29419  0.68944  1.0000
  H   H1070     1.0  0.83813  0.22215  0.90317  1.0000
  C   C1327     1.0  0.88388  0.98474  0.97766  1.0000
  C   C1328     1.0  0.96326  0.03661  0.70004  1.0000
  H   H1071     1.0  0.52416  0.10065  0.94825  1.0000
  H   H1072     1.0  0.88382  0.17180  0.72977  1.0000
  H   H1073     1.0  0.87075  0.20954  0.77052  1.0000
  C   C1329     1.0  0.98692  0.03858  0.67257  1.0000
  H   H1074     1.0  0.97114  0.44460  0.75625  1.0000
  H   H1075     1.0  0.73079  0.01447  0.97870  1.0000
  C   C1330     1.0  0.94855  0.33869  0.88352  1.0000
  C   C1331     1.0  0.74758  0.09393  0.74384  1.0000
  H   H1076     1.0  0.82081  0.33078  0.76814  1.0000
  C   C1332     1.0  0.88238  0.20076  0.93223  1.0000
  P   P42       1.0  0.56492  0.02634  0.71527  1.0000
  C   C1333     1.0  0.86407  0.45109  0.85120  1.0000
  C   C1334     1.0  0.59805  0.03709  0.74714  1.0000
  C   C1335     1.0  0.61503  0.01485  0.76633  1.0000
  C   C1336     1.0  0.64063  0.02264  0.79110  1.0000
  C   C1337     1.0  0.64984  0.05262  0.79677  1.0000
  C   C1338     1.0  0.63403  0.07485  0.77730  1.0000
  C   C1339     1.0  0.60817  0.06721  0.75261  1.0000
  C   C1340     1.0  0.76057  0.12312  0.73694  1.0000
  H   H1077     1.0  0.82453  0.42368  0.98818  1.0000
  C   C1341     1.0  0.81990  0.32456  0.74356  1.0000
  C   C1342     1.0  0.91730  0.18332  0.93309  1.0000
  H   H1078     1.0  0.99179  0.17681  0.82123  1.0000
  Fe  Fe94      1.0  0.88146  0.28041  0.98708  1.0000
  H   H1079     1.0  0.96225  0.16032  0.90576  1.0000
  C   C1343     1.0  0.85190  0.32317  0.69213  1.0000
  C   C1344     1.0  0.81417  0.41281  0.81603  1.0000
  H   H1080     1.0  0.50462  0.20702  0.83883  1.0000
  S   S183      1.0  0.93662  0.25101  0.98419  1.0000
  H   H1081     1.0  0.69329  0.15437  0.96706  1.0000
  H   H1082     1.0  0.66999  0.05847  0.81588  1.0000
  H   H1083     1.0  0.64215  0.09802  0.78113  1.0000
  H   H1084     1.0  0.59662  0.08494  0.73788  1.0000
  C   C1345     1.0  0.63092  0.99628  0.68995  1.0000
  C   C1346     1.0  0.78901  0.10422  0.67500  1.0000
  H   H1085     1.0  0.96197  0.14353  0.78060  1.0000
  H   H1086     1.0  0.95804  0.27489  0.79628  1.0000
  C   C1347     1.0  0.85513  0.19390  0.67190  1.0000
  C   C1348     1.0  0.76618  0.04473  0.86958  1.0000
  C   C1349     1.0  0.58906  0.99548  0.69516  1.0000
  H   H1087     1.0  0.53549  0.00816  0.77823  1.0000
  C   C1350     1.0  0.88739  0.43009  0.92554  1.0000
  H   H1088     1.0  0.78107  0.07369  0.90854  1.0000
  C   C1351     1.0  0.68149  0.12797  0.69211  1.0000
  H   H1089     1.0  0.94733  0.11076  0.71248  1.0000
  C   C1352     1.0  0.51616  0.12198  0.77470  1.0000
  C   C1353     1.0  0.58748  0.19790  0.84466  1.0000
  C   C1354     1.0  0.60605  0.18796  0.81723  1.0000
  C   C1355     1.0  0.60785  0.15749  0.81048  1.0000
  C   C1356     1.0  0.59067  0.13675  0.83104  1.0000
  C   C1357     1.0  0.57194  0.14655  0.85871  1.0000
  C   C1358     1.0  0.57055  0.17726  0.86544  1.0000
  P   P43       1.0  0.56115  0.12054  0.88960  1.0000
  C   C1359     1.0  0.60254  0.12861  0.91572  1.0000
  C   C1360     1.0  0.65065  0.97181  0.67645  1.0000
  H   H1090     1.0  0.90868  0.41675  0.91223  1.0000
  Fe  Fe95      1.0  0.87369  0.45528  0.73817  1.0000
  C   C1361     1.0  0.67489  0.13231  0.92447  1.0000
  C   C1362     1.0  0.51036  0.96270  0.93398  1.0000
  C   C1363     1.0  0.64235  0.12277  0.90615  1.0000
  C   C1364     1.0  0.86450  0.01112  0.92009  1.0000
  H   H1091     1.0  0.87691  0.39529  0.95958  1.0000
  C   C1365     1.0  0.66806  0.14778  0.95243  1.0000
  C   C1366     1.0  0.59608  0.14562  0.94288  1.0000
  C   C1367     1.0  0.55957  0.08276  0.87455  1.0000
  C   C1368     1.0  0.58878  0.06135  0.88250  1.0000
  C   C1369     1.0  0.58560  0.03207  0.87112  1.0000
  C   C1370     1.0  0.55344  0.02400  0.85166  1.0000
  C   C1371     1.0  0.52426  0.04517  0.84369  1.0000
  C   C1372     1.0  0.52715  0.07433  0.85531  1.0000
  H   H1092     1.0  0.58723  0.22160  0.85011  1.0000
  H   H1093     1.0  0.61978  0.20388  0.80151  1.0000
  H   H1094     1.0  0.62270  0.15007  0.78923  1.0000
  H   H1095     1.0  0.59317  0.11317  0.82577  1.0000
  H   H1096     1.0  0.55795  0.18515  0.88741  1.0000
  H   H1097     1.0  0.74098  0.07825  0.72511  1.0000
  S   S184      1.0  0.78736  0.33113  0.99228  1.0000
  H   H1098     1.0  0.64837  0.11125  0.88430  1.0000
  S   S185      1.0  0.86479  0.99707  0.79904  1.0000
  H   H1099     1.0  0.56594  0.15236  0.94951  1.0000
  H   H1100     1.0  0.61344  0.06677  0.89805  1.0000
  H   H1101     1.0  0.60760  0.01545  0.87803  1.0000
  H   H1102     1.0  0.55043  0.00115  0.84357  1.0000
  C   C1373     1.0  0.81680  0.30996  0.67977  1.0000
  H   H1103     1.0  0.60862  0.99144  0.76208  1.0000
  C   C1374     1.0  0.86758  0.14672  0.81592  1.0000
  C   C1375     1.0  0.51625  0.01438  0.72997  1.0000
  C   C1376     1.0  0.87946  0.13449  0.76134  1.0000
  C   C1377     1.0  0.52025  0.98996  0.94816  1.0000
  C   C1378     1.0  0.98798  0.42929  0.97764  1.0000
  H   H1104     1.0  0.92054  0.36332  0.84595  1.0000
  C   C1379     1.0  0.83823  0.01394  0.94562  1.0000
  P   P44       1.0  0.76560  0.13450  0.69629  1.0000
  C   C1380     1.0  0.96491  0.36182  0.68533  1.0000
  H   H1105     1.0  0.79499  0.39832  0.80211  1.0000
  H   H1106     1.0  0.79392  0.04912  0.85699  1.0000
  C   C1381     1.0  0.97577  0.38413  0.86121  1.0000
  C   C1382     1.0  0.76946  0.14268  0.76184  1.0000
  C   C1383     1.0  0.76509  0.13315  0.79295  1.0000
  C   C1384     1.0  0.75210  0.10409  0.79952  1.0000
  C   C1385     1.0  0.74334  0.08452  0.77494  1.0000
  H   H1107     1.0  0.70547  0.12701  0.91739  1.0000
  C   C1386     1.0  0.83958  0.43376  0.96831  1.0000
  C   C1387     1.0  0.91565  0.17894  0.87646  1.0000
  S   S186      1.0  0.52292  0.29571  0.70497  1.0000
  H   H1108     1.0  0.78006  0.16514  0.75765  1.0000
  H   H1109     1.0  0.77213  0.14823  0.81200  1.0000
  H   H1110     1.0  0.74918  0.09656  0.82362  1.0000
  H   H1111     1.0  0.73400  0.06177  0.77997  1.0000
  C   C1388     1.0  0.86911  0.41772  0.95207  1.0000
  C   C1389     1.0  0.78161  0.19524  0.70407  1.0000
  C   C1390     1.0  0.84067  0.22090  0.68398  1.0000
  H   H1112     1.0  0.92508  0.32178  0.88440  1.0000
  H   H1113     1.0  0.62317  0.16707  0.98291  1.0000
  C   C1391     1.0  0.50547  0.29396  0.66607  1.0000
  C   C1392     1.0  0.79613  0.16792  0.69252  1.0000
  H   H1114     1.0  0.87846  0.34276  0.73381  1.0000
  S   S187      1.0  0.54836  0.98909  0.98324  1.0000
  H   H1115     1.0  0.95708  0.01503  0.71037  1.0000
  H   H1116     1.0  0.86559  0.05374  0.68279  1.0000
  C   C1393     1.0  0.88078  0.42762  0.83360  1.0000
  C   C1394     1.0  0.85586  0.40850  0.81627  1.0000
  C   C1395     1.0  0.84797  0.00110  0.97473  1.0000
  C   C1396     1.0  0.56721  0.96980  0.68641  1.0000
  H   H1117     1.0  0.66870  0.28415  0.99142  1.0000
  C   C1397     1.0  0.51091  0.00669  0.76166  1.0000
  H   H1118     1.0  0.64850  0.01567  0.69678  1.0000
  C   C1398     1.0  0.83306  0.16746  0.67619  1.0000
  C   C1399     1.0  0.98021  0.09240  0.67347  1.0000
  H   H1119     1.0  0.95646  0.38039  0.67046  1.0000
  S   S188      1.0  0.71327  0.24023  0.66702  1.0000
  H   H1120     1.0  0.92042  0.99236  0.90336  1.0000
  H   H1121     1.0  0.50673  0.19699  0.76473  1.0000
  C   C1400     1.0  0.50592  0.01671  0.93504  1.0000
  C   C1401     1.0  0.50031  0.17460  0.77287  1.0000
  H   H1122     1.0  0.95686  0.43428  0.98340  1.0000
  C   C1402     1.0  0.90044  0.99506  0.92331  1.0000
  C   C1403     1.0  0.84070  0.06574  0.67210  1.0000
  C   C1404     1.0  0.99366  0.24372  0.88637  1.0000
  P   P45       1.0  0.89330  0.33351  0.66660  1.0000
  C   C1405     1.0  0.99060  0.36396  0.78685  1.0000
  H   H1123     1.0  0.93716  0.96846  0.95435  1.0000
  C   C1406     1.0  0.52569  0.10641  0.68050  1.0000
  S   S189      1.0  0.78877  0.98690  0.66695  1.0000
  H   H1124     1.0  0.79206  0.24243  0.70883  1.0000
  H   H1125     1.0  0.98478  0.00968  0.78006  1.0000
  S   S190      1.0  0.79590  0.96270  0.75665  1.0000
  C   C1407     1.0  0.98833  0.31499  0.72474  1.0000
  C   C1408     1.0  0.87668  0.45890  0.91550  1.0000
  H   H1126     1.0  0.85741  0.24147  0.68037  1.0000
  H   H1127     1.0  0.83303  0.43475  0.66466  1.0000
  C   C1409     1.0  0.85814  0.39023  0.66505  1.0000
  Fe  Fe96      1.0  0.80291  0.82772  0.04745  1.0000
  H   H1128     1.0  0.72429  0.50673  0.02459  1.0000
  S   S191      1.0  0.76751  0.83492  0.09244  1.0000
  S   S192      1.0  0.89337  0.91286  0.01856  1.0000
  C   C1410     1.0  0.81516  0.46078  0.05524  1.0000
  S   S193      1.0  0.87068  0.82911  0.04383  1.0000
  Fe  Fe97      1.0  0.64181  0.76209  0.22641  1.0000
  S   S194      1.0  0.63284  0.80456  0.25406  1.0000
  S   S195      1.0  0.69066  0.74681  0.19275  1.0000
  Fe  Fe98      1.0  0.56683  0.73160  0.25486  1.0000
  S   S196      1.0  0.55136  0.77153  0.28414  1.0000
  S   S197      1.0  0.53753  0.68575  0.25334  1.0000
  Fe  Fe99      1.0  0.56706  0.79838  0.24133  1.0000
  C   C1411     1.0  0.94055  0.82789  0.20064  1.0000
  Fe  Fe100     1.0  0.61790  0.77428  0.29476  1.0000
  H   H1129     1.0  0.56264  0.89928  0.19311  1.0000
  S   S198      1.0  0.57736  0.75832  0.21118  1.0000
  S   S199      1.0  0.63222  0.73242  0.26813  1.0000
  C   C1412     1.0  0.70244  0.54010  0.08752  1.0000
  S   S200      1.0  0.81065  0.57058  0.21583  1.0000
  C   C1413     1.0  0.58681  0.52508  0.09374  1.0000
  C   C1414     1.0  0.49823  0.63355  0.10600  1.0000
  H   H1130     1.0  0.59033  0.76855  0.02549  1.0000
  S   S201      1.0  0.87969  0.89411  0.26542  1.0000
  H   H1131     1.0  0.65222  0.61692  0.28165  1.0000
  S   S202      1.0  0.76175  0.58712  0.29409  1.0000
  Fe  Fe101     1.0  0.87588  0.55893  0.22232  1.0000
  S   S203      1.0  0.92167  0.59238  0.20495  1.0000
  H   H1132     1.0  0.69737  0.67563  0.05200  1.0000
  C   C1415     1.0  0.61732  0.65495  0.29657  1.0000
  C   C1416     1.0  0.53730  0.79103  0.00877  1.0000
  S   S204      1.0  0.58914  0.59463  0.01631  1.0000
  H   H1133     1.0  0.52926  0.61949  0.06417  1.0000
  H   H1134     1.0  0.74164  0.60483  0.11601  1.0000
  C   C1417     1.0  0.98631  0.81783  0.08059  1.0000
  H   H1135     1.0  0.79030  0.89395  0.13849  1.0000
  C   C1418     1.0  0.95639  0.69949  0.24480  1.0000
  C   C1419     1.0  0.56083  0.77705  0.03169  1.0000
  H   H1136     1.0  0.91995  0.62711  0.06224  1.0000
  Fe  Fe102     1.0  0.65679  0.59006  0.01668  1.0000
  H   H1137     1.0  0.62374  0.66777  0.27561  1.0000
  H   H1138     1.0  0.76009  0.85890  0.25347  1.0000
  C   C1420     1.0  0.50796  0.72595  0.11202  1.0000
  C   C1421     1.0  0.87573  0.76116  0.18666  1.0000
  C   C1422     1.0  0.87441  0.77769  0.15875  1.0000
  H   H1139     1.0  0.76889  0.57000  0.15573  1.0000
  C   C1423     1.0  0.49896  0.80184  0.01618  1.0000
  C   C1424     1.0  0.73544  0.87341  0.24657  1.0000
  C   C1425     1.0  0.95694  0.55556  0.16054  1.0000
  C   C1426     1.0  0.94549  0.58464  0.16893  1.0000
  C   C1427     1.0  0.71077  0.88633  0.26944  1.0000
  C   C1428     1.0  0.49674  0.83456  0.19306  1.0000
  H   H1140     1.0  0.94968  0.53699  0.17581  1.0000
  Fe  Fe103     1.0  0.85237  0.93955  0.25566  1.0000
  C   C1429     1.0  0.91978  0.62724  0.03677  1.0000
  H   H1141     1.0  0.68376  0.53190  0.06864  1.0000
  C   C1430     1.0  0.63273  0.62607  0.29968  1.0000
  H   H1142     1.0  0.69395  0.90413  0.18139  1.0000
  C   C1431     1.0  0.94884  0.86499  0.28246  1.0000
  C   C1432     1.0  0.93080  0.89280  0.27685  1.0000
  H   H1143     1.0  0.51459  0.50609  0.02765  1.0000
  H   H1144     1.0  0.93151  0.84472  0.27925  1.0000
  C   C1433     1.0  0.95830  0.94259  0.04389  1.0000
  C   C1434     1.0  0.57860  0.90244  0.25532  1.0000
  H   H1145     1.0  0.52244  0.64822  0.11355  1.0000
  S   S205      1.0  0.86911  0.54858  0.27372  1.0000
  C   C1435     1.0  0.72899  0.87988  0.21489  1.0000
  Fe  Fe104     1.0  0.80275  0.55615  0.26603  1.0000
  S   S206      1.0  0.52913  0.83759  0.22583  1.0000
  H   H1146     1.0  0.89520  0.77269  0.13983  1.0000
  C   C1436     1.0  0.73498  0.58120  0.11422  1.0000
  C   C1437     1.0  0.95478  0.61967  0.02030  1.0000
  H   H1147     1.0  0.50400  0.92058  0.30695  1.0000
  C   C1438     1.0  0.74738  0.80960  0.12005  1.0000
  C   C1439     1.0  0.72452  0.82124  0.14496  1.0000
  C   C1440     1.0  0.70684  0.80223  0.16733  1.0000
  C   C1441     1.0  0.71274  0.77141  0.16534  1.0000
  C   C1442     1.0  0.73690  0.75975  0.14112  1.0000
  C   C1443     1.0  0.75378  0.77876  0.11823  1.0000
  H   H1148     1.0  0.72002  0.84514  0.14671  1.0000
  H   H1149     1.0  0.68871  0.81144  0.18611  1.0000
  H   H1150     1.0  0.74217  0.73592  0.13992  1.0000
  H   H1151     1.0  0.77195  0.76966  0.09943  1.0000
  S   S207      1.0  0.86882  0.51158  0.20567  1.0000
  H   H1152     1.0  0.57950  0.90628  0.09368  1.0000
  S   S208      1.0  0.78524  0.94350  0.25040  1.0000
  H   H1153     1.0  0.90630  0.87495  0.09873  1.0000
  H   H1154     1.0  0.84514  0.81363  0.13365  1.0000
  C   C1444     1.0  0.69766  0.89904  0.20600  1.0000
  Fe  Fe105     1.0  0.85737  0.50165  0.25662  1.0000
  C   C1445     1.0  0.84657  0.88357  0.11554  1.0000
  C   C1446     1.0  0.64963  0.55357  0.26308  1.0000
  C   C1447     1.0  0.68802  0.54481  0.25326  1.0000
  C   C1448     1.0  0.69943  0.54859  0.22196  1.0000
  C   C1449     1.0  0.67246  0.56092  0.20042  1.0000
  C   C1450     1.0  0.63347  0.56909  0.20990  1.0000
  C   C1451     1.0  0.62261  0.56620  0.24166  1.0000
  P   P46       1.0  0.59944  0.58501  0.18143  1.0000
  C   C1452     1.0  0.62172  0.62057  0.17109  1.0000
  C   C1453     1.0  0.59447  0.56104  0.14747  1.0000
  C   C1454     1.0  0.57399  0.57166  0.12093  1.0000
  H   H1155     1.0  0.82060  0.89548  0.19177  1.0000
  C   C1455     1.0  0.61017  0.53185  0.14717  1.0000
  C   C1456     1.0  0.62203  0.64411  0.19296  1.0000
  C   C1457     1.0  0.64089  0.67125  0.18560  1.0000
  C   C1458     1.0  0.66008  0.67491  0.15664  1.0000
  C   C1459     1.0  0.66085  0.65131  0.13514  1.0000
  C   C1460     1.0  0.64202  0.62419  0.14237  1.0000
  C   C1461     1.0  0.54929  0.58868  0.19767  1.0000
  C   C1462     1.0  0.52858  0.61607  0.19693  1.0000
  C   C1463     1.0  0.53088  0.56380  0.21190  1.0000
  H   H1156     1.0  0.64110  0.55084  0.28743  1.0000
  H   H1157     1.0  0.70916  0.53557  0.27006  1.0000
  H   H1158     1.0  0.72923  0.54203  0.21429  1.0000
  H   H1159     1.0  0.68195  0.56390  0.17629  1.0000
  H   H1160     1.0  0.59370  0.57390  0.25022  1.0000
  H   H1161     1.0  0.56157  0.59400  0.12089  1.0000
  H   H1162     1.0  0.58216  0.68986  0.31750  1.0000
  H   H1163     1.0  0.62534  0.52268  0.16747  1.0000
  H   H1164     1.0  0.60774  0.64154  0.21572  1.0000
  H   H1165     1.0  0.67474  0.69595  0.15104  1.0000
  H   H1166     1.0  0.67656  0.65378  0.11299  1.0000
  H   H1167     1.0  0.64423  0.60602  0.12565  1.0000
  H   H1168     1.0  0.54137  0.63548  0.18550  1.0000
  H   H1169     1.0  0.54605  0.54235  0.21225  1.0000
  C   C1464     1.0  0.97008  0.89113  0.02938  1.0000
  C   C1465     1.0  0.90462  0.87702  0.14967  1.0000
  H   H1170     1.0  0.83357  0.88400  0.09218  1.0000
  H   H1171     1.0  0.66240  0.95048  0.15561  1.0000
  H   H1172     1.0  0.93990  0.94042  0.27623  1.0000
  H   H1173     1.0  0.50908  0.63081  0.27955  1.0000
  H   H1174     1.0  0.85794  0.64101  0.03350  1.0000
  H   H1175     1.0  0.50522  0.63201  0.99961  1.0000
  C   C1466     1.0  0.99287  0.94605  0.20360  1.0000
  C   C1467     1.0  0.54615  0.77417  0.06238  1.0000
  C   C1468     1.0  0.78223  0.50845  0.04745  1.0000
  H   H1176     1.0  0.66256  0.71025  0.32959  1.0000
  C   C1469     1.0  0.50221  0.61717  0.07828  1.0000
  H   H1177     1.0  0.53901  0.91009  0.01446  1.0000
  Fe  Fe106     1.0  0.86198  0.80195  0.99972  1.0000
  H   H1178     1.0  0.59332  0.88283  0.24569  1.0000
  H   H1179     1.0  0.94635  0.63102  0.15542  1.0000
  H   H1180     1.0  0.78064  0.53235  0.05036  1.0000
  C   C1470     1.0  0.50859  0.90774  0.00538  1.0000
  H   H1181     1.0  0.64013  0.93811  0.10202  1.0000
  C   C1471     1.0  0.75005  0.46280  0.02960  1.0000
  H   H1182     1.0  0.93544  0.82419  0.11109  1.0000
  H   H1183     1.0  0.90906  0.83032  0.19457  1.0000
  H   H1184     1.0  0.50379  0.93272  0.08491  1.0000
  H   H1185     1.0  0.83735  0.59930  0.32670  1.0000
  C   C1472     1.0  0.80586  0.71775  0.01542  1.0000
  C   C1473     1.0  0.97033  0.84551  0.18624  1.0000
  C   C1474     1.0  0.74975  0.49386  0.03302  1.0000
  H   H1186     1.0  0.96807  0.68059  0.23168  1.0000
  C   C1475     1.0  0.83910  0.88981  0.17164  1.0000
  H   H1187     1.0  0.55470  0.56221  0.07365  1.0000
  C   C1476     1.0  0.50711  0.70661  0.01465  1.0000
  C   C1477     1.0  0.61399  0.92618  0.17850  1.0000
  H   H1188     1.0  0.72173  0.69520  0.29757  1.0000
  H   H1189     1.0  0.66103  0.91565  0.27877  1.0000
  C   C1478     1.0  0.57968  0.90824  0.17360  1.0000
  H   H1190     1.0  0.59369  0.47708  0.01564  1.0000
  C   C1479     1.0  0.60661  0.51407  0.12028  1.0000
  C   C1480     1.0  0.50422  0.69809  0.16063  1.0000
  H   H1191     1.0  0.68603  0.82287  0.32097  1.0000
  H   H1192     1.0  0.65288  0.48695  0.04982  1.0000
  H   H1193     1.0  0.91962  0.50505  0.32093  1.0000
  C   C1481     1.0  0.62307  0.92982  0.12194  1.0000
  C   C1482     1.0  0.56716  0.90131  0.14307  1.0000
  C   C1483     1.0  0.75667  0.69090  0.22822  1.0000
  C   C1484     1.0  0.76677  0.66492  0.24466  1.0000
  C   C1485     1.0  0.80209  0.66406  0.26249  1.0000
  C   C1486     1.0  0.82738  0.68914  0.26387  1.0000
  C   C1487     1.0  0.81803  0.71509  0.24667  1.0000
  C   C1488     1.0  0.78210  0.71593  0.22924  1.0000
  P   P47       1.0  0.85097  0.74740  0.24821  1.0000
  C   C1489     1.0  0.90189  0.73442  0.25572  1.0000
  C   C1490     1.0  0.84873  0.76748  0.21125  1.0000
  C   C1491     1.0  0.82009  0.79033  0.20714  1.0000
  H   H1194     1.0  0.71633  0.88183  0.29405  1.0000
  C   C1492     1.0  0.84638  0.80076  0.15523  1.0000
  C   C1493     1.0  0.81947  0.80715  0.17951  1.0000
  C   C1494     1.0  0.95571  0.53937  0.01966  1.0000
  C   C1495     1.0  0.92589  0.74775  0.27910  1.0000
  C   C1496     1.0  0.96486  0.73718  0.28503  1.0000
  H   H1195     1.0  0.62635  0.66955  0.03497  1.0000
  C   C1497     1.0  0.88020  0.88389  0.17563  1.0000
  C   C1498     1.0  0.91735  0.70992  0.23891  1.0000
  C   C1499     1.0  0.83551  0.77281  0.27893  1.0000
  C   C1500     1.0  0.80881  0.76358  0.30262  1.0000
  H   H1196     1.0  0.98445  0.62227  0.10629  1.0000
  C   C1501     1.0  0.52805  0.92353  0.28996  1.0000
  C   C1502     1.0  0.84033  0.82169  0.30369  1.0000
  C   C1503     1.0  0.85068  0.80221  0.27940  1.0000
  H   H1197     1.0  0.72905  0.69170  0.21461  1.0000
  H   H1198     1.0  0.74719  0.64545  0.24379  1.0000
  H   H1199     1.0  0.80966  0.64389  0.27536  1.0000
  H   H1200     1.0  0.85421  0.68810  0.27832  1.0000
  H   H1201     1.0  0.77359  0.73584  0.21637  1.0000
  H   H1202     1.0  0.79817  0.79532  0.22527  1.0000
  S   S209      1.0  0.76263  0.50541  0.16272  1.0000
  H   H1203     1.0  0.95928  0.87007  0.02011  1.0000
  C   C1504     1.0  0.54754  0.89864  0.27721  1.0000
  H   H1204     1.0  0.89307  0.88520  0.19895  1.0000
  H   H1205     1.0  0.91490  0.76637  0.29281  1.0000
  S   S210      1.0  0.79531  0.86864  0.01783  1.0000
  C   C1505     1.0  0.82831  0.69469  0.00184  1.0000
  C   C1506     1.0  0.88466  0.63493  0.02044  1.0000
  C   C1507     1.0  0.95352  0.91890  0.28090  1.0000
  H   H1206     1.0  0.79608  0.74133  0.30253  1.0000
  C   C1508     1.0  0.97665  0.60357  0.12122  1.0000
  H   H1207     1.0  0.92839  0.79300  0.23395  1.0000
  H   H1208     1.0  0.85217  0.84432  0.30398  1.0000
  H   H1209     1.0  0.87056  0.81024  0.26109  1.0000
  H   H1210     1.0  0.61951  0.49181  0.12001  1.0000
  C   C1509     1.0  0.94371  0.91531  0.03202  1.0000
  H   H1211     1.0  0.58424  0.51143  0.07285  1.0000
  C   C1510     1.0  0.67203  0.91154  0.22879  1.0000
  H   H1212     1.0  0.86096  0.69546  0.00354  1.0000
  H   H1213     1.0  0.99279  0.49884  0.31287  1.0000
  Fe  Fe107     1.0  0.86230  0.86816  0.01162  1.0000
  C   C1511     1.0  0.58887  0.91204  0.11727  1.0000
  C   C1512     1.0  0.88207  0.48721  0.10347  1.0000
  C   C1513     1.0  0.92404  0.48386  0.10628  1.0000
  P   P48       1.0  0.86046  0.51064  0.07329  1.0000
  C   C1514     1.0  0.89623  0.51512  0.04150  1.0000
  H   H1214     1.0  0.79858  0.94125  0.10262  1.0000
  S   S211      1.0  0.69473  0.59663  0.06069  1.0000
  C   C1515     1.0  0.59354  0.66737  0.32041  1.0000
  C   C1516     1.0  0.98337  0.85565  0.12156  1.0000
  C   C1517     1.0  0.95140  0.80643  0.22294  1.0000
  C   C1518     1.0  0.92707  0.53663  0.04365  1.0000
  H   H1215     1.0  0.79778  0.82505  0.17672  1.0000
  C   C1519     1.0  0.96547  0.83189  0.10504  1.0000
  C   C1520     1.0  0.81453  0.81212  0.32752  1.0000
  C   C1521     1.0  0.89444  0.49667  0.01485  1.0000
  C   C1522     1.0  0.85027  0.54739  0.08923  1.0000
  C   C1523     1.0  0.85786  0.55371  0.12100  1.0000
  C   C1524     1.0  0.85088  0.58236  0.13293  1.0000
  C   C1525     1.0  0.83541  0.60472  0.11358  1.0000
  C   C1526     1.0  0.82779  0.59867  0.08199  1.0000
  C   C1527     1.0  0.83647  0.57043  0.06958  1.0000
  C   C1528     1.0  0.59015  0.93124  0.24567  1.0000
  H   H1216     1.0  0.95137  0.48115  0.24968  1.0000
  C   C1529     1.0  0.57020  0.55376  0.09417  1.0000
  P   P49       1.0  0.63079  0.93586  0.21763  1.0000
  H   H1217     1.0  0.94444  0.49485  0.09016  1.0000
  Fe  Fe108     1.0  0.80248  0.52242  0.20279  1.0000
  C   C1530     1.0  0.64125  0.46441  0.04759  1.0000
  C   C1531     1.0  0.81571  0.49211  0.05813  1.0000
  H   H1218     1.0  0.92968  0.55081  0.06421  1.0000
  C   C1532     1.0  0.95515  0.60853  0.14907  1.0000
  C   C1533     1.0  0.94026  0.46623  0.13028  1.0000
  H   H1219     1.0  0.82439  0.47699  0.12470  1.0000
  H   H1220     1.0  0.86943  0.53681  0.13674  1.0000
  H   H1221     1.0  0.85702  0.58711  0.15739  1.0000
  H   H1222     1.0  0.82896  0.62662  0.12324  1.0000
  H   H1223     1.0  0.81459  0.61576  0.06731  1.0000
  H   H1224     1.0  0.83197  0.56651  0.04477  1.0000
  H   H1225     1.0  0.87158  0.47957  0.01275  1.0000
  C   C1534     1.0  0.63560  0.93684  0.15239  1.0000
  C   C1535     1.0  0.54495  0.70405  0.16612  1.0000
  C   C1536     1.0  0.56685  0.72201  0.14526  1.0000
  C   C1537     1.0  0.54804  0.73418  0.11873  1.0000
  H   H1226     1.0  0.82132  0.73559  0.02783  1.0000
  P   P50       1.0  0.57703  0.75777  0.09258  1.0000
  H   H1227     1.0  0.54105  0.88707  0.13947  1.0000
  C   C1538     1.0  0.59787  0.79029  0.11162  1.0000
  C   C1539     1.0  0.58348  0.79971  0.14090  1.0000
  C   C1540     1.0  0.59906  0.82555  0.15491  1.0000
  C   C1541     1.0  0.62823  0.84258  0.13935  1.0000
  C   C1542     1.0  0.64153  0.83401  0.10957  1.0000
  C   C1543     1.0  0.62641  0.80797  0.09573  1.0000
  C   C1544     1.0  0.61624  0.73375  0.07741  1.0000
  C   C1545     1.0  0.65647  0.73686  0.08739  1.0000
  C   C1546     1.0  0.68578  0.71631  0.07773  1.0000
  C   C1547     1.0  0.67500  0.69213  0.05870  1.0000
  C   C1548     1.0  0.63497  0.68864  0.04914  1.0000
  C   C1549     1.0  0.60571  0.70933  0.05846  1.0000
  C   C1550     1.0  0.82217  0.88927  0.14163  1.0000
  C   C1551     1.0  0.50888  0.78719  0.07019  1.0000
  H   H1228     1.0  0.55918  0.69561  0.18721  1.0000
  H   H1229     1.0  0.59825  0.72703  0.15024  1.0000
  C   C1552     1.0  0.71136  0.57064  0.08924  1.0000
  H   H1230     1.0  0.56000  0.78731  0.15278  1.0000
  H   H1231     1.0  0.58853  0.83239  0.17787  1.0000
  H   H1232     1.0  0.64079  0.86229  0.15048  1.0000
  H   H1233     1.0  0.66446  0.84710  0.09761  1.0000
  H   H1234     1.0  0.63722  0.80155  0.07271  1.0000
  C   C1553     1.0  0.98021  0.71324  0.26770  1.0000
  H   H1235     1.0  0.66519  0.75454  0.10339  1.0000
  H   H1236     1.0  0.71667  0.71877  0.08569  1.0000
  H   H1237     1.0  0.63564  0.58689  0.32903  1.0000
  C   C1554     1.0  0.97724  0.90797  0.16477  1.0000
  H   H1238     1.0  0.57464  0.70577  0.05167  1.0000
  C   C1555     1.0  0.99190  0.80216  0.23081  1.0000
  C   C1556     1.0  0.76385  0.71819  0.01236  1.0000
  C   C1557     1.0  0.67938  0.90548  0.26065  1.0000
  H   H1239     1.0  0.71165  0.49658  0.10852  1.0000
  H   H1240     1.0  0.74862  0.87037  0.19718  1.0000
  C   C1558     1.0  0.74265  0.53082  0.13479  1.0000
  C   C1559     1.0  0.75058  0.56145  0.13680  1.0000
  S   S212      1.0  0.79004  0.50846  0.25267  1.0000
  C   C1560     1.0  0.81746  0.95639  0.08926  1.0000
  P   P51       1.0  0.95810  0.87143  0.15522  1.0000
  C   C1561     1.0  0.88777  0.87790  0.11944  1.0000
  C   C1562     1.0  0.97943  0.55070  0.13295  1.0000
  H   H1241     1.0  0.64075  0.68950  0.20240  1.0000
  C   C1563     1.0  0.49559  0.65364  0.00812  1.0000
  H   H1242     1.0  0.89912  0.69869  0.22136  1.0000
  C   C1564     1.0  0.71817  0.52023  0.11017  1.0000
  H   H1243     1.0  0.89798  0.74369  0.18881  1.0000
  H   H1244     1.0  0.74660  0.73628  0.02269  1.0000
  H   H1245     1.0  0.74438  0.56707  0.01074  1.0000
  S   S213      1.0  0.79425  0.79686  0.00617  1.0000
  C   C1565     1.0  0.98297  0.92914  0.14087  1.0000
  C   C1566     1.0  0.52030  0.67862  0.00384  1.0000
  H   H1246     1.0  0.53841  0.87625  0.28400  1.0000
  C   C1567     1.0  0.85672  0.47362  0.12571  1.0000
  H   H1247     1.0  0.49811  0.78714  0.09420  1.0000
  C   C1568     1.0  0.95984  0.46323  0.26540  1.0000
  C   C1569     1.0  0.98894  0.86326  0.29300  1.0000
  H   H1248     1.0  0.97816  0.92315  0.11650  1.0000
  H   H1249     1.0  0.97192  0.80006  0.06734  1.0000
  C   C1570     1.0  0.57047  0.95619  0.25870  1.0000
  C   C1571     1.0  0.79819  0.78328  0.32674  1.0000
  H   H1250     1.0  0.98201  0.61384  0.03308  1.0000
  H   H1251     1.0  0.52577  0.72603  0.01083  1.0000
  H   H1252     1.0  0.50287  0.50380  0.08524  1.0000
  C   C1572     1.0  0.98972  0.57479  0.11344  1.0000
  H   H1253     1.0  0.98887  0.52836  0.12691  1.0000
  H   H1254     1.0  0.97999  0.55549  0.02189  1.0000
  C   C1573     1.0  0.98144  0.91675  0.19625  1.0000
  H   H1255     1.0  0.97519  0.90123  0.21515  1.0000
  H   H1256     1.0  0.97270  0.46348  0.13211  1.0000
  C   C1574     1.0  0.62331  0.60914  0.32623  1.0000
  H   H1257     1.0  0.78794  0.68734  0.32300  1.0000
  C   C1575     1.0  0.72477  0.69769  0.32275  1.0000
  H   H1258     1.0  0.78109  0.61483  0.01121  1.0000
  H   H1259     1.0  0.49750  0.78645  0.18981  1.0000
  H   H1260     1.0  0.98329  0.74757  0.30309  1.0000
  C   C1576     1.0  0.53959  0.95229  0.28079  1.0000
  H   H1261     1.0  0.86447  0.95738  0.12407  1.0000
  S   S214      1.0  0.87913  0.46016  0.28234  1.0000
  H   H1262     1.0  0.77519  0.95970  0.05155  1.0000
  C   C1577     1.0  0.99368  0.91716  0.29155  1.0000
  Fe  Fe109     1.0  0.86290  0.79952  0.48781  1.0000
  S   S215      1.0  0.87185  0.84319  0.46290  1.0000
  S   S216      1.0  0.90425  0.76002  0.48116  1.0000
  Fe  Fe110     1.0  0.80491  0.83968  0.45375  1.0000
  S   S217      1.0  0.77830  0.85100  0.40618  1.0000
  S   S218      1.0  0.79715  0.79467  0.47576  1.0000
  Fe  Fe111     1.0  0.66114  0.58281  0.46665  1.0000
  H   H1263     1.0  0.86425  0.91638  0.43932  1.0000
  S   S219      1.0  0.72082  0.58126  0.43978  1.0000
  H   H1264     1.0  0.52340  0.94359  0.42647  1.0000
  C   C1578     1.0  0.77631  0.89822  0.61746  1.0000
  S   S220      1.0  0.59862  0.59509  0.45024  1.0000
  C   C1579     1.0  0.72723  0.58028  0.39849  1.0000
  C   C1580     1.0  0.76618  0.47687  0.46863  1.0000
  H   H1265     1.0  0.76580  0.54152  0.39971  1.0000
  H   H1266     1.0  0.82531  0.94638  0.61079  1.0000
  C   C1581     1.0  0.72250  0.60456  0.34754  1.0000
  C   C1582     1.0  0.71207  0.60313  0.37950  1.0000
  H   H1267     1.0  0.84404  0.69885  0.50182  1.0000
  H   H1268     1.0  0.92027  0.95148  0.56709  1.0000
  H   H1269     1.0  0.78389  0.79511  0.59565  1.0000
  H   H1270     1.0  0.69388  0.62053  0.38973  1.0000
  C   C1583     1.0  0.98382  0.90124  0.62945  1.0000
  P   P52       1.0  0.53276  0.71779  0.62895  1.0000
  C   C1584     1.0  0.89157  0.80782  0.61503  1.0000
  C   C1585     1.0  0.54100  0.77801  0.61337  1.0000
  C   C1586     1.0  0.93703  0.75830  0.44840  1.0000
  C   C1587     1.0  0.67709  0.79501  0.36158  1.0000
  C   C1588     1.0  0.80820  0.68228  0.42888  1.0000
  H   H1271     1.0  0.79500  0.65886  0.51620  1.0000
  C   C1589     1.0  0.90615  0.89713  0.36941  1.0000
  C   C1590     1.0  0.94730  0.73008  0.43675  1.0000
  C   C1591     1.0  0.76036  0.51771  0.62772  1.0000
  C   C1592     1.0  0.76139  0.53196  0.59829  1.0000
  H   H1272     1.0  0.97328  0.85490  0.62052  1.0000
  H   H1273     1.0  0.93437  0.71024  0.44727  1.0000
  C   C1593     1.0  0.73936  0.82903  0.38950  1.0000
  C   C1594     1.0  0.72108  0.80576  0.40621  1.0000
  C   C1595     1.0  0.68976  0.78906  0.39241  1.0000
  C   C1596     1.0  0.72613  0.54413  0.58497  1.0000
  C   C1597     1.0  0.76653  0.60837  0.61900  1.0000
  C   C1598     1.0  0.72633  0.83521  0.35879  1.0000
  H   H1274     1.0  0.73031  0.80108  0.43000  1.0000
  H   H1275     1.0  0.67490  0.77174  0.40587  1.0000
  H   H1276     1.0  0.71149  0.62289  0.33337  1.0000
  Fe  Fe112     1.0  0.78508  0.81962  0.52061  1.0000
  S   S221      1.0  0.78923  0.86465  0.49765  1.0000
  S   S222      1.0  0.72620  0.81219  0.54696  1.0000
  Fe  Fe113     1.0  0.85539  0.86338  0.50958  1.0000
  C   C1599     1.0  0.52887  0.80453  0.59891  1.0000
  S   S223      1.0  0.85021  0.81966  0.53534  1.0000
  Fe  Fe114     1.0  0.59383  0.62072  0.49572  1.0000
  S   S224      1.0  0.56971  0.58218  0.52320  1.0000
  S   S225      1.0  0.56807  0.66773  0.49966  1.0000
  C   C1600     1.0  0.95435  0.78388  0.43470  1.0000
  C   C1601     1.0  0.88609  0.65987  0.37976  1.0000
  S   S226      1.0  0.65820  0.61177  0.51003  1.0000
  C   C1602     1.0  0.86104  0.50374  0.55436  1.0000
  C   C1603     1.0  0.69582  0.81792  0.34463  1.0000
  C   C1604     1.0  0.65730  0.66912  0.43710  1.0000
  H   H1277     1.0  0.59217  0.60774  0.37028  1.0000
  H   H1278     1.0  0.79506  0.63882  0.34953  1.0000
  C   C1605     1.0  0.49771  0.71640  0.66160  1.0000
  C   C1606     1.0  0.65229  0.69572  0.45380  1.0000
  H   H1279     1.0  0.79924  0.54879  0.46314  1.0000
  H   H1280     1.0  0.63272  0.63963  0.40268  1.0000
  C   C1607     1.0  0.52668  0.68322  0.60729  1.0000
  H   H1281     1.0  0.79223  0.90524  0.44623  1.0000
  C   C1608     1.0  0.60473  0.60192  0.65328  1.0000
  H   H1282     1.0  0.90398  0.85267  0.35021  1.0000
  H   H1283     1.0  0.90912  0.78869  0.60760  1.0000
  C   C1609     1.0  0.69139  0.70612  0.34070  1.0000
  S   S227      1.0  0.88161  0.90516  0.53256  1.0000
  C   C1610     1.0  0.52901  0.69970  0.36851  1.0000
  H   H1284     1.0  0.54311  0.82549  0.60524  1.0000
  H   H1285     1.0  0.82536  0.59028  0.60855  1.0000
  C   C1611     1.0  0.85002  0.94416  0.62717  1.0000
  H   H1286     1.0  0.71372  0.51132  0.52725  1.0000
  C   C1612     1.0  0.64445  0.59922  0.66395  1.0000
  C   C1613     1.0  0.61783  0.71310  0.44900  1.0000
  C   C1614     1.0  0.72130  0.80526  0.58761  1.0000
  C   C1615     1.0  0.68283  0.80707  0.60140  1.0000
  C   C1616     1.0  0.67705  0.80025  0.63332  1.0000
  C   C1617     1.0  0.70972  0.79082  0.65152  1.0000
  C   C1618     1.0  0.74825  0.78921  0.63782  1.0000
  C   C1619     1.0  0.75418  0.79673  0.60607  1.0000
  H   H1287     1.0  0.65732  0.81341  0.58719  1.0000
  C   C1620     1.0  0.84004  0.72786  0.38436  1.0000
  S   S228      1.0  0.52602  0.52466  0.46875  1.0000
  C   C1621     1.0  0.78537  0.95146  0.38355  1.0000
  C   C1622     1.0  0.95372  0.55295  0.37705  1.0000
  C   C1623     1.0  0.77309  0.93255  0.40773  1.0000
  C   C1624     1.0  0.98962  0.80465  0.55243  1.0000
  H   H1288     1.0  0.56410  0.47810  0.50689  1.0000
  C   C1625     1.0  0.82633  0.68777  0.48381  1.0000
  C   C1626     1.0  0.58094  0.90463  0.52796  1.0000
  H   H1289     1.0  0.78339  0.54362  0.34291  1.0000
  H   H1290     1.0  0.66966  0.71770  0.38657  1.0000
  H   H1291     1.0  0.53209  0.52964  0.35381  1.0000
  C   C1627     1.0  0.74812  0.58311  0.33407  1.0000
  H   H1292     1.0  0.89138  0.95519  0.46428  1.0000
  H   H1293     1.0  0.50503  0.89689  0.57926  1.0000
  C   C1628     1.0  0.59893  0.62121  0.34978  1.0000
  H   H1294     1.0  0.94188  0.63622  0.37221  1.0000
  C   C1629     1.0  0.73852  0.48021  0.49342  1.0000
  C   C1630     1.0  0.73266  0.70547  0.38756  1.0000
  C   C1631     1.0  0.52964  0.52943  0.40441  1.0000
  C   C1632     1.0  0.93298  0.91055  0.54276  1.0000
  H   H1295     1.0  0.74007  0.85338  0.34582  1.0000
  C   C1633     1.0  0.51580  0.63582  0.42665  1.0000
  H   H1296     1.0  0.90002  0.67631  0.39506  1.0000
  H   H1297     1.0  0.94273  0.56826  0.39479  1.0000
  H   H1298     1.0  0.51675  0.60102  0.57854  1.0000
  H   H1299     1.0  0.79785  0.75083  0.41484  1.0000
  H   H1300     1.0  0.59485  0.58902  0.63313  1.0000
  C   C1634     1.0  0.72341  0.51513  0.64333  1.0000
  C   C1635     1.0  0.78814  0.50149  0.45775  1.0000
  H   H1301     1.0  0.91920  0.83792  0.58178  1.0000
  P   P53       1.0  0.81500  0.69207  0.38818  1.0000
  H   H1302     1.0  0.74769  0.93773  0.50154  1.0000
  H   H1303     1.0  0.62835  0.49036  0.59346  1.0000
  C   C1636     1.0  0.82480  0.75275  0.40056  1.0000
  C   C1637     1.0  0.52282  0.63914  0.39442  1.0000
  C   C1638     1.0  0.92644  0.53717  0.35822  1.0000
  H   H1304     1.0  0.56112  0.71702  0.42545  1.0000
  S   S229      1.0  0.64095  0.54114  0.49227  1.0000
  H   H1305     1.0  0.75152  0.93309  0.64684  1.0000
  C   C1639     1.0  0.97181  0.91396  0.38726  1.0000
  H   H1306     1.0  0.78977  0.53426  0.58606  1.0000
  S   S230      1.0  0.63575  0.77483  0.34618  1.0000
  H   H1307     1.0  0.83064  0.49807  0.56170  1.0000
  C   C1640     1.0  0.89243  0.61555  0.34745  1.0000
  S   S231      1.0  0.64446  0.55796  0.58560  1.0000
  C   C1641     1.0  0.54924  0.72683  0.36321  1.0000
  C   C1642     1.0  0.58829  0.70385  0.42767  1.0000
  C   C1643     1.0  0.85498  0.94811  0.40145  1.0000
  C   C1644     1.0  0.73878  0.88847  0.56961  1.0000
  C   C1645     1.0  0.89445  0.75892  0.36405  1.0000
  C   C1646     1.0  0.73459  0.50815  0.50804  1.0000
  C   C1647     1.0  0.77117  0.88195  0.58958  1.0000
  C   C1648     1.0  0.87375  0.86001  0.60934  1.0000
  H   H1308     1.0  0.58190  0.72775  0.36387  1.0000
  Fe  Fe115     1.0  0.63421  0.57089  0.53442  1.0000
  H   H1309     1.0  0.88469  0.61934  0.47694  1.0000
  P   P54       1.0  0.55750  0.66701  0.38002  1.0000
  H   H1310     1.0  0.75262  0.55446  0.50780  1.0000
  H   H1311     1.0  0.85326  0.71325  0.44676  1.0000
  C   C1649     1.0  0.83129  0.69610  0.45242  1.0000
  C   C1650     1.0  0.71642  0.92732  0.60493  1.0000
  H   H1312     1.0  0.87441  0.90094  0.36482  1.0000
  C   C1651     1.0  0.84473  0.85711  0.63317  1.0000
  C   C1652     1.0  0.87431  0.73143  0.36520  1.0000
  C   C1653     1.0  0.51732  0.67516  0.51017  1.0000
  C   C1654     1.0  0.84483  0.66177  0.37234  1.0000
  H   H1313     1.0  0.76356  0.64793  0.41920  1.0000
  H   H1314     1.0  0.80842  0.49894  0.43801  1.0000
  Fe  Fe116     1.0  0.57832  0.55572  0.47906  1.0000
  C   C1655     1.0  0.82717  0.63912  0.35406  1.0000
  C   C1656     1.0  0.62757  0.48253  0.56941  1.0000
  H   H1315     1.0  0.64721  0.80132  0.64357  1.0000
  C   C1657     1.0  0.89730  0.83552  0.60053  1.0000
  C   C1658     1.0  0.86259  0.80470  0.63865  1.0000
  C   C1659     1.0  0.97723  0.51491  0.46757  1.0000
  H   H1316     1.0  0.88249  0.51006  0.60164  1.0000
  H   H1317     1.0  0.88598  0.71315  0.35136  1.0000
  H   H1318     1.0  0.56170  0.53320  0.40725  1.0000
  C   C1660     1.0  0.76335  0.56014  0.35294  1.0000
  H   H1319     1.0  0.98170  0.70523  0.40280  1.0000
  H   H1320     1.0  0.75979  0.61373  0.59478  1.0000
  C   C1661     1.0  0.87968  0.78332  0.38093  1.0000
  H   H1321     1.0  0.98607  0.46824  0.47942  1.0000
  H   H1322     1.0  0.67462  0.70250  0.47093  1.0000
  H   H1323     1.0  0.68345  0.65514  0.44131  1.0000
  C   C1662     1.0  0.68817  0.52741  0.63008  1.0000
  C   C1663     1.0  0.90987  0.63705  0.36704  1.0000
  C   C1664     1.0  0.97495  0.77575  0.55743  1.0000
  C   C1665     1.0  0.58450  0.65066  0.34738  1.0000
  H   H1324     1.0  0.83285  0.79945  0.41137  1.0000
  H   H1325     1.0  0.79152  0.86397  0.58336  1.0000
  H   H1326     1.0  0.73435  0.87558  0.54842  1.0000
  H   H1327     1.0  0.89420  0.54015  0.36111  1.0000
  H   H1328     1.0  0.56545  0.49487  0.56242  1.0000
  C   C1666     1.0  0.58487  0.71959  0.64074  1.0000
  C   C1667     1.0  0.61427  0.72965  0.61942  1.0000
  C   C1668     1.0  0.65504  0.72911  0.62746  1.0000
  H   H1329     1.0  0.97979  0.56218  0.45624  1.0000
  C   C1669     1.0  0.84458  0.78034  0.39878  1.0000
  H   H1330     1.0  0.75512  0.63343  0.47462  1.0000
  C   C1670     1.0  0.50369  0.94372  0.56715  1.0000
  H   H1331     1.0  0.84715  0.50088  0.50549  1.0000
  H   H1332     1.0  0.65979  0.52542  0.64248  1.0000
  C   C1671     1.0  0.79876  0.66533  0.49187  1.0000
  H   H1333     1.0  0.95596  0.95566  0.33641  1.0000
  C   C1672     1.0  0.92955  0.51762  0.56748  1.0000
  H   H1334     1.0  0.95394  0.90775  0.62177  1.0000
  H   H1335     1.0  0.60573  0.73769  0.59650  1.0000
  H   H1336     1.0  0.67761  0.73711  0.61100  1.0000
  H   H1337     1.0  0.52705  0.94993  0.58372  1.0000
  C   C1673     1.0  0.84247  0.92787  0.42475  1.0000
  C   C1674     1.0  0.98246  0.76129  0.58594  1.0000
  C   C1675     1.0  0.59380  0.67773  0.40984  1.0000
  C   C1676     1.0  0.76213  0.69307  0.33723  1.0000
  H   H1338     1.0  0.84457  0.61820  0.42782  1.0000
  C   C1677     1.0  0.89032  0.51036  0.57690  1.0000
  H   H1339     1.0  0.83793  0.57124  0.39770  1.0000
  H   H1340     1.0  0.91089  0.59823  0.33698  1.0000
  H   H1341     1.0  0.56449  0.77905  0.63100  1.0000
  H   H1342     1.0  0.59027  0.67751  0.59592  1.0000
  C   C1678     1.0  0.76615  0.69612  0.36984  1.0000
  C   C1679     1.0  0.68934  0.54195  0.60082  1.0000
  H   H1343     1.0  0.72755  0.55575  0.56277  1.0000
  C   C1680     1.0  0.52752  0.75309  0.35788  1.0000
  H   H1344     1.0  0.96653  0.85943  0.45355  1.0000
  C   C1681     1.0  0.62832  0.66031  0.41511  1.0000
  C   C1682     1.0  0.51936  0.62386  0.58654  1.0000
  S   S232      1.0  0.80538  0.50193  0.64303  1.0000
  H   H1345     1.0  0.61330  0.73328  0.46249  1.0000
  C   C1683     1.0  0.75319  0.55892  0.38508  1.0000
  C   C1684     1.0  0.66348  0.75975  0.51263  1.0000
  C   C1685     1.0  0.64209  0.73712  0.52799  1.0000
  C   C1686     1.0  0.60056  0.74000  0.53261  1.0000
  C   C1687     1.0  0.58049  0.76563  0.52227  1.0000
  C   C1688     1.0  0.60136  0.78780  0.50536  1.0000
  C   C1689     1.0  0.64324  0.78495  0.50122  1.0000
  P   P55       1.0  0.57486  0.82032  0.49079  1.0000
  C   C1690     1.0  0.59663  0.83185  0.45371  1.0000
  C   C1691     1.0  0.52213  0.81057  0.48609  1.0000
  H   H1346     1.0  0.85783  0.78315  0.64966  1.0000
  C   C1692     1.0  0.92279  0.86953  0.36112  1.0000
  H   H1347     1.0  0.98409  0.81569  0.53017  1.0000
  C   C1693     1.0  0.66214  0.46161  0.52412  1.0000
  C   C1694     1.0  0.51137  0.78383  0.47084  1.0000
  C   C1695     1.0  0.63185  0.84947  0.45354  1.0000
  C   C1696     1.0  0.64824  0.85960  0.42524  1.0000
  C   C1697     1.0  0.62965  0.85227  0.39687  1.0000
  C   C1698     1.0  0.59515  0.83427  0.39671  1.0000
  C   C1699     1.0  0.57861  0.82409  0.42497  1.0000
  C   C1700     1.0  0.58085  0.85108  0.51791  1.0000
  C   C1701     1.0  0.59430  0.84608  0.54866  1.0000
  C   C1702     1.0  0.60149  0.87023  0.56881  1.0000
  C   C1703     1.0  0.59500  0.89950  0.55842  1.0000
  H   H1348     1.0  0.77742  0.77621  0.34501  1.0000
  C   C1704     1.0  0.57378  0.88052  0.50781  1.0000
  H   H1349     1.0  0.69592  0.75798  0.50970  1.0000
  H   H1350     1.0  0.65763  0.71733  0.53627  1.0000
  H   H1351     1.0  0.58380  0.72220  0.54405  1.0000
  H   H1352     1.0  0.54859  0.76776  0.52720  1.0000
  H   H1353     1.0  0.66063  0.80217  0.48955  1.0000
  H   H1354     1.0  0.97684  0.84284  0.35911  1.0000
  H   H1355     1.0  0.87810  0.88121  0.59745  1.0000
  H   H1356     1.0  0.64427  0.92726  0.65795  1.0000
  H   H1357     1.0  0.91871  0.57357  0.49578  1.0000
  H   H1358     1.0  0.53437  0.76943  0.46089  1.0000
  H   H1359     1.0  0.64690  0.85532  0.47527  1.0000
  H   H1360     1.0  0.67587  0.87267  0.42517  1.0000
  H   H1361     1.0  0.64272  0.85979  0.37492  1.0000
  H   H1362     1.0  0.58192  0.82765  0.37450  1.0000
  H   H1363     1.0  0.55206  0.81014  0.42403  1.0000
  H   H1364     1.0  0.59988  0.82359  0.55694  1.0000
  H   H1365     1.0  0.61278  0.86620  0.59232  1.0000
  H   H1366     1.0  0.92205  0.76121  0.35062  1.0000
  C   C1705     1.0  0.50128  0.62133  0.37306  1.0000
  H   H1367     1.0  0.56352  0.88493  0.48414  1.0000
  C   C1706     1.0  0.87081  0.50459  0.52244  1.0000
  C   C1707     1.0  0.91062  0.51028  0.51270  1.0000
  C   C1708     1.0  0.93974  0.51752  0.53558  1.0000
  P   P56       1.0  0.92293  0.51261  0.47124  1.0000
  C   C1709     1.0  0.89853  0.54610  0.45693  1.0000
  C   C1710     1.0  0.66665  0.71928  0.65714  1.0000
  C   C1711     1.0  0.78331  0.52940  0.47200  1.0000
  C   C1712     1.0  0.75688  0.53264  0.49729  1.0000
  H   H1368     1.0  0.87120  0.52529  0.41607  1.0000
  C   C1713     1.0  0.78092  0.65948  0.43708  1.0000
  C   C1714     1.0  0.81208  0.58817  0.65793  1.0000
  C   C1715     1.0  0.87519  0.54565  0.42939  1.0000
  C   C1716     1.0  0.85612  0.57168  0.41885  1.0000
  C   C1717     1.0  0.85971  0.59820  0.43590  1.0000
  C   C1718     1.0  0.88232  0.59878  0.46355  1.0000
  C   C1719     1.0  0.90153  0.57282  0.47413  1.0000
  C   C1720     1.0  0.90833  0.48072  0.44745  1.0000
  C   C1721     1.0  0.49698  0.80423  0.57756  1.0000
  C   C1722     1.0  0.59209  0.48505  0.55193  1.0000
  H   H1369     1.0  0.94607  0.49401  0.40827  1.0000
  H   H1370     1.0  0.60102  0.91822  0.57389  1.0000
  C   C1723     1.0  0.94072  0.51746  0.33541  1.0000
  H   H1371     1.0  0.57588  0.92734  0.51979  1.0000
  C   C1724     1.0  0.85103  0.61633  0.34138  1.0000
  C   C1725     1.0  0.80163  0.92093  0.42841  1.0000
  C   C1726     1.0  0.77618  0.65111  0.46849  1.0000
  C   C1727     1.0  0.71161  0.91121  0.57713  1.0000
  C   C1728     1.0  0.69540  0.71020  0.37301  1.0000
  C   C1729     1.0  0.50356  0.70485  0.51022  1.0000
  C   C1730     1.0  0.56059  0.66757  0.59610  1.0000
  C   C1731     1.0  0.96379  0.86405  0.36605  1.0000
  H   H1372     1.0  0.74294  0.85610  0.65960  1.0000
  H   H1373     1.0  0.94668  0.80575  0.44361  1.0000
  C   C1732     1.0  0.97427  0.72724  0.41160  1.0000
  C   C1733     1.0  0.74845  0.92071  0.62511  1.0000
  C   C1734     1.0  0.96326  0.89062  0.53365  1.0000
  H   H1374     1.0  0.95531  0.87045  0.52105  1.0000
  H   H1375     1.0  0.77350  0.78161  0.65173  1.0000
  H   H1376     1.0  0.68684  0.91621  0.56142  1.0000
  H   H1377     1.0  0.77959  0.95091  0.55235  1.0000
  H   H1378     1.0  0.52550  0.88629  0.43135  1.0000
  H   H1379     1.0  0.95801  0.76448  0.53906  1.0000
  C   C1735     1.0  0.51287  0.52731  0.37419  1.0000
  C   C1736     1.0  0.98462  0.94355  0.56503  1.0000
  H   H1380     1.0  0.54362  0.77391  0.35415  1.0000
  H   H1381     1.0  0.50079  0.62942  0.51896  1.0000
  H   H1382     1.0  0.73528  0.70957  0.41251  1.0000
  H   H1383     1.0  0.66442  0.58368  0.65225  1.0000
  H   H1384     1.0  0.95223  0.52315  0.58493  1.0000
  H   H1385     1.0  0.74170  0.92598  0.40971  1.0000
  H   H1386     1.0  0.58320  0.62617  0.57729  1.0000
  H   H1387     1.0  0.52311  0.72235  0.50167  1.0000
  C   C1737     1.0  0.50515  0.52551  0.43082  1.0000
  H   H1388     1.0  0.89550  0.80451  0.38036  1.0000
  C   C1738     1.0  0.80349  0.59526  0.62673  1.0000
  C   C1739     1.0  0.59135  0.47561  0.52069  1.0000
  C   C1740     1.0  0.52153  0.75082  0.60631  1.0000
  C   C1741     1.0  0.93038  0.91941  0.38317  1.0000
  C   C1742     1.0  0.92438  0.47790  0.41700  1.0000
  C   C1743     1.0  0.94379  0.93653  0.55927  1.0000
  C   C1744     1.0  0.55685  0.63808  0.58574  1.0000
  C   C1745     1.0  0.73781  0.61388  0.64239  1.0000
  H   H1389     1.0  0.97145  0.73871  0.58957  1.0000
  H   H1390     1.0  0.69549  0.94505  0.61084  1.0000
  H   H1391     1.0  0.69010  0.47023  0.56927  1.0000
  H   H1392     1.0  0.97019  0.91281  0.46853  1.0000
  H   H1393     1.0  0.70962  0.62430  0.63583  1.0000
  P   P57       1.0  0.81602  0.88943  0.64500  1.0000
  C   C1746     1.0  0.66255  0.47107  0.55557  1.0000
  H   H1394     1.0  0.68191  0.46531  0.44297  1.0000
  H   H1395     1.0  0.54706  0.62291  0.66040  1.0000
  H   H1396     1.0  0.53183  0.64950  0.44342  1.0000
  C   C1747     1.0  0.83931  0.82928  0.64782  1.0000
  H   H1397     1.0  0.97044  0.52312  0.52911  1.0000
  C   C1748     1.0  0.62618  0.46392  0.50681  1.0000
  C   C1749     1.0  0.98236  0.78097  0.40978  1.0000
  C   C1750     1.0  0.85256  0.91944  0.64736  1.0000
  P   P58       1.0  0.90833  0.95467  0.39500  1.0000
  H   H1398     1.0  0.49910  0.84885  0.51150  1.0000
  H   H1399     1.0  0.50613  0.62370  0.34807  1.0000
  C   C1751     1.0  0.99244  0.75251  0.39829  1.0000
  H   H1400     1.0  0.80733  0.82716  0.34659  1.0000
  C   C1752     1.0  0.76253  0.95918  0.50437  1.0000
  C   C1753     1.0  0.49411  0.88169  0.43680  1.0000
  C   C1754     1.0  0.98838  0.88642  0.37860  1.0000
  H   H1401     1.0  0.49519  0.46340  0.53124  1.0000
  H   H1402     1.0  0.99155  0.93084  0.39690  1.0000
  C   C1755     1.0  0.82603  0.95933  0.38037  1.0000
  H   H1403     1.0  0.76346  0.95920  0.36662  1.0000
  H   H1404     1.0  0.69822  0.72011  0.66362  1.0000
  H   H1405     1.0  0.84070  0.57786  0.66392  1.0000
  C   C1756     1.0  0.98221  0.51393  0.33092  1.0000
  H   H1406     1.0  0.56940  0.65093  0.70761  1.0000
  S   S233      1.0  0.85775  0.84125  0.96708  1.0000
  C   C1757     1.0  0.80451  0.89351  0.71045  1.0000
  Fe  Fe117     1.0  0.79078  0.83809  0.97625  1.0000
  S   S234      1.0  0.74105  0.85069  0.94153  1.0000
  C   C1758     1.0  0.68668  0.58217  0.75920  1.0000
  Fe  Fe118     1.0  0.64452  0.78057  0.71805  1.0000
  S   S235      1.0  0.63410  0.81868  0.75131  1.0000
  C   C1759     1.0  0.98631  0.63846  0.88919  1.0000
  Fe  Fe119     1.0  0.57256  0.74446  0.74561  1.0000
  S   S236      1.0  0.55734  0.78034  0.78014  1.0000
  S   S237      1.0  0.54433  0.69810  0.74709  1.0000
  Fe  Fe120     1.0  0.56830  0.81139  0.73919  1.0000
  S   S238      1.0  0.52924  0.85101  0.72602  1.0000
  Fe  Fe121     1.0  0.62440  0.78397  0.78878  1.0000
  S   S239      1.0  0.65667  0.77330  0.83457  1.0000
  S   S240      1.0  0.57941  0.77517  0.70379  1.0000
  S   S241      1.0  0.63873  0.74630  0.75608  1.0000
  C   C1760     1.0  0.52985  0.61669  0.85206  1.0000
  S   S242      1.0  0.82636  0.53485  0.72906  1.0000
  C   C1761     1.0  0.97161  0.76687  0.82724  1.0000
  H   H1407     1.0  0.79508  0.89595  0.76041  1.0000
  S   S243      1.0  0.56719  0.67588  0.98429  1.0000
  S   S244      1.0  0.88952  0.91191  0.77094  1.0000
  C   C1762     1.0  0.70481  0.57931  0.72958  1.0000
  H   H1408     1.0  0.72957  0.54813  0.69598  1.0000
  Fe  Fe122     1.0  0.89134  0.52162  0.73495  1.0000
  S   S245      1.0  0.93948  0.55709  0.73670  1.0000
  H   H1409     1.0  0.75181  0.53205  0.96576  1.0000
  C   C1763     1.0  0.74900  0.92921  0.97232  1.0000
  Fe  Fe123     1.0  0.66383  0.59518  0.94452  1.0000
  H   H1410     1.0  0.88952  0.89752  0.68242  1.0000
  S   S246      1.0  0.70906  0.60215  0.90444  1.0000
  H   H1411     1.0  0.63985  0.64726  0.72587  1.0000
  C   C1764     1.0  0.75443  0.86532  0.68137  1.0000
  S   S247      1.0  0.59681  0.60117  0.93886  1.0000
  C   C1765     1.0  0.72512  0.57426  0.87747  1.0000
  H   H1412     1.0  0.75105  0.65535  0.96855  1.0000
  C   C1766     1.0  0.49862  0.84805  0.69211  1.0000
  C   C1767     1.0  0.75269  0.53090  0.83380  1.0000
  C   C1768     1.0  0.76445  0.56081  0.83075  1.0000
  C   C1769     1.0  0.75118  0.58227  0.85273  1.0000
  H   H1413     1.0  0.54515  0.65978  0.91728  1.0000
  C   C1770     1.0  0.95374  0.52086  0.99332  1.0000
  H   H1414     1.0  0.78345  0.56737  0.81129  1.0000
  H   H1415     1.0  0.76093  0.60524  0.85039  1.0000
  H   H1416     1.0  0.69245  0.53800  0.89888  1.0000
  C   C1771     1.0  0.84718  0.47498  0.93211  1.0000
  H   H1417     1.0  0.92687  0.82548  0.86378  1.0000
  C   C1772     1.0  0.78348  0.59377  0.68133  1.0000
  S   S248      1.0  0.76890  0.50258  0.80737  1.0000
  C   C1773     1.0  0.49737  0.69083  0.76545  1.0000
  H   H1418     1.0  0.83137  0.90713  0.71180  1.0000
  C   C1774     1.0  0.95435  0.87779  0.78897  1.0000
  C   C1775     1.0  0.93943  0.90693  0.78474  1.0000
  C   C1776     1.0  0.63061  0.63481  0.70534  1.0000
  H   H1419     1.0  0.93546  0.85880  0.78327  1.0000
  C   C1777     1.0  0.50538  0.92911  0.81852  1.0000
  H   H1420     1.0  0.71935  0.50385  0.72956  1.0000
  H   H1421     1.0  0.56227  0.94319  0.79883  1.0000
  C   C1778     1.0  0.78347  0.88764  0.73826  1.0000
  C   C1779     1.0  0.51008  0.52872  0.93671  1.0000
  C   C1780     1.0  0.68165  0.55712  0.77836  1.0000
  C   C1781     1.0  0.94043  0.76094  0.96154  1.0000
  C   C1782     1.0  0.95375  0.78653  0.94541  1.0000
  C   C1783     1.0  0.98307  0.58972  0.69446  1.0000
  H   H1422     1.0  0.92176  0.48480  0.97078  1.0000
  C   C1784     1.0  0.76152  0.66570  0.77029  1.0000
  H   H1423     1.0  0.64613  0.70300  0.70209  1.0000
  H   H1424     1.0  0.93996  0.80784  0.95037  1.0000
  C   C1785     1.0  0.96749  0.79359  0.84393  1.0000
  H   H1425     1.0  0.51366  0.93491  0.84236  1.0000
  H   H1426     1.0  0.96018  0.62525  0.89550  1.0000
  C   C1786     1.0  0.71913  0.82895  0.91124  1.0000
  C   C1787     1.0  0.72199  0.79779  0.91089  1.0000
  C   C1788     1.0  0.70180  0.78123  0.88758  1.0000
  C   C1789     1.0  0.67982  0.79560  0.86378  1.0000
  C   C1790     1.0  0.67734  0.82680  0.86385  1.0000
  C   C1791     1.0  0.69657  0.84335  0.88772  1.0000
  H   H1427     1.0  0.73874  0.78645  0.92911  1.0000
  H   H1428     1.0  0.70321  0.75709  0.88797  1.0000
  H   H1429     1.0  0.66056  0.83815  0.84567  1.0000
  H   H1430     1.0  0.69415  0.86748  0.88789  1.0000
  H   H1431     1.0  0.51126  0.73441  0.95136  1.0000
  C   C1792     1.0  0.62788  0.66291  0.78995  1.0000
  C   C1793     1.0  0.66397  0.65973  0.80647  1.0000
  C   C1794     1.0  0.66904  0.63560  0.82691  1.0000
  C   C1795     1.0  0.63800  0.61469  0.83086  1.0000
  C   C1796     1.0  0.60154  0.61772  0.81426  1.0000
  C   C1797     1.0  0.59670  0.64219  0.79407  1.0000
  P   P59       1.0  0.55852  0.59463  0.82409  1.0000
  C   C1798     1.0  0.57723  0.56017  0.84059  1.0000
  H   H1432     1.0  0.98179  0.61354  0.97485  1.0000
  C   C1799     1.0  0.82808  0.66452  0.87359  1.0000
  H   H1433     1.0  0.54477  0.68218  0.82426  1.0000
  H   H1434     1.0  0.88458  0.59904  0.86868  1.0000
  H   H1435     1.0  0.57029  0.92542  0.66663  1.0000
  C   C1800     1.0  0.51024  0.73782  0.87134  1.0000
  C   C1801     1.0  0.57540  0.55462  0.87288  1.0000
  C   C1802     1.0  0.59266  0.52871  0.88539  1.0000
  C   C1803     1.0  0.61109  0.50786  0.86565  1.0000
  C   C1804     1.0  0.61208  0.51283  0.83331  1.0000
  C   C1805     1.0  0.59511  0.53884  0.82079  1.0000
  H   H1436     1.0  0.77781  0.66316  0.79214  1.0000
  C   C1806     1.0  0.54270  0.58735  0.75974  1.0000
  C   C1807     1.0  0.77121  0.80788  0.81761  1.0000
  C   C1808     1.0  0.92922  0.80530  0.84993  1.0000
  H   H1437     1.0  0.62338  0.68205  0.77477  1.0000
  H   H1438     1.0  0.68745  0.67646  0.80406  1.0000
  H   H1439     1.0  0.69651  0.63352  0.84050  1.0000
  H   H1440     1.0  0.64213  0.59690  0.84784  1.0000
  H   H1441     1.0  0.56821  0.64594  0.78238  1.0000
  C   C1809     1.0  0.58708  0.94536  0.67289  1.0000
  H   H1442     1.0  0.76416  0.71399  0.77083  1.0000
  H   H1443     1.0  0.71683  0.49993  0.86083  1.0000
  H   H1444     1.0  0.50875  0.48078  0.93254  1.0000
  C   C1810     1.0  0.94865  0.87423  0.91108  1.0000
  C   C1811     1.0  0.80998  0.60772  0.96609  1.0000
  C   C1812     1.0  0.90715  0.53053  0.89876  1.0000
  C   C1813     1.0  0.52176  0.92669  0.76329  1.0000
  H   H1445     1.0  0.59629  0.54244  0.79568  1.0000
  H   H1446     1.0  0.57109  0.59842  0.75509  1.0000
  C   C1814     1.0  0.54904  0.84200  0.90569  1.0000
  H   H1447     1.0  0.89654  0.68582  0.94389  1.0000
  H   H1448     1.0  0.54184  0.84220  0.93049  1.0000
  H   H1449     1.0  0.94937  0.71371  0.96785  1.0000
  P   P60       1.0  0.83774  0.64254  0.96675  1.0000
  H   H1450     1.0  0.85123  0.56710  0.82883  1.0000
  S   S249      1.0  0.89004  0.48577  0.69846  1.0000
  C   C1815     1.0  0.94800  0.46660  0.87303  1.0000
  H   H1451     1.0  0.73087  0.86744  0.75907  1.0000
  H   H1452     1.0  0.59158  0.52470  0.91043  1.0000
  H   H1453     1.0  0.75426  0.90550  0.96995  1.0000
  C   C1816     1.0  0.73296  0.86021  0.70909  1.0000
  H   H1454     1.0  0.96438  0.51539  0.68766  1.0000
  C   C1817     1.0  0.90555  0.56169  0.89627  1.0000
  H   H1455     1.0  0.67680  0.60379  0.76756  1.0000
  H   H1456     1.0  0.75834  0.81034  0.84084  1.0000
  Fe  Fe124     1.0  0.82388  0.49679  0.69449  1.0000
  C   C1818     1.0  0.85951  0.68513  0.86964  1.0000
  H   H1457     1.0  0.91932  0.62599  0.94576  1.0000
  C   C1819     1.0  0.80875  0.67142  0.98575  1.0000
  H   H1458     1.0  0.80819  0.47245  0.86509  1.0000
  C   C1820     1.0  0.63748  0.70973  0.67869  1.0000
  C   C1821     1.0  0.79442  0.56008  0.94135  1.0000
  C   C1822     1.0  0.91479  0.93980  0.66891  1.0000
  C   C1823     1.0  0.95455  0.61944  0.98748  1.0000
  C   C1824     1.0  0.84712  0.65784  0.92822  1.0000
  C   C1825     1.0  0.78509  0.59983  0.99149  1.0000
  C   C1826     1.0  0.86620  0.55696  0.84873  1.0000
  H   H1459     1.0  0.85194  0.51236  0.83400  1.0000
  C   C1827     1.0  0.82139  0.65131  0.90291  1.0000
  C   C1828     1.0  0.70996  0.52573  0.73771  1.0000
  H   H1460     1.0  0.74206  0.80325  0.74151  1.0000
  S   S250      1.0  0.80688  0.46284  0.73141  1.0000
  H   H1461     1.0  0.94063  0.73100  0.80367  1.0000
  S   S251      1.0  0.54576  0.52727  0.96779  1.0000
  S   S252      1.0  0.66604  0.62874  0.98379  1.0000
  S   S253      1.0  0.90170  0.76164  0.99031  1.0000
  P   P61       1.0  0.89455  0.47241  0.87830  1.0000
  H   H1462     1.0  0.50388  0.57670  0.93503  1.0000
  H   H1463     1.0  0.62436  0.48779  0.87542  1.0000
  C   C1829     1.0  0.96767  0.56147  0.70187  1.0000
  H   H1464     1.0  0.94039  0.86121  0.95934  1.0000
  H   H1465     1.0  0.79716  0.54509  0.92146  1.0000
  H   H1466     1.0  0.98273  0.81594  0.73842  1.0000
  C   C1830     1.0  0.88594  0.91697  0.66752  1.0000
  H   H1467     1.0  0.56918  0.89030  0.84590  1.0000
  C   C1831     1.0  0.76662  0.67234  0.98213  1.0000
  H   H1468     1.0  0.79562  0.63658  0.90585  1.0000
  H   H1469     1.0  0.92049  0.57548  0.91362  1.0000
  H   H1470     1.0  0.83716  0.49666  0.92403  1.0000
  S   S254      1.0  0.65875  0.55601  0.97757  1.0000
  C   C1832     1.0  0.98549  0.78445  0.92318  1.0000
  H   H1471     1.0  0.56057  0.57015  0.88838  1.0000
  C   C1833     1.0  0.59678  0.70942  0.67028  1.0000
  H   H1472     1.0  0.99246  0.83777  0.68585  1.0000
  C   C1834     1.0  0.50958  0.71350  0.85082  1.0000
  C   C1835     1.0  0.91924  0.62672  0.97111  1.0000
  C   C1836     1.0  0.98212  0.66251  0.86851  1.0000
  C   C1837     1.0  0.53261  0.93403  0.79401  1.0000
  C   C1838     1.0  0.74563  0.60567  0.67363  1.0000
  C   C1839     1.0  0.88533  0.57492  0.87107  1.0000
  H   H1473     1.0  0.54326  0.92951  0.74434  1.0000
  C   C1840     1.0  0.79028  0.88223  0.68173  1.0000
  C   C1841     1.0  0.97573  0.53729  0.68187  1.0000
  H   H1474     1.0  0.86407  0.69592  0.84715  1.0000
  H   H1475     1.0  0.52141  0.94202  0.94392  1.0000
  C   C1842     1.0  0.96509  0.47020  0.84311  1.0000
  C   C1843     1.0  0.71267  0.54448  0.88012  1.0000
  C   C1844     1.0  0.82480  0.88078  0.89860  1.0000
  C   C1845     1.0  0.84521  0.90246  0.88111  1.0000
  C   C1846     1.0  0.86561  0.89427  0.85375  1.0000
  C   C1847     1.0  0.86586  0.86438  0.84403  1.0000
  C   C1848     1.0  0.84635  0.84231  0.86197  1.0000
  C   C1849     1.0  0.82502  0.85085  0.88893  1.0000
  P   P62       1.0  0.84495  0.80424  0.84787  1.0000
  C   C1850     1.0  0.82527  0.77765  0.87603  1.0000
  C   C1851     1.0  0.81307  0.80516  0.81373  1.0000
  C   C1852     1.0  0.82936  0.80366  0.78334  1.0000
  C   C1853     1.0  0.80370  0.80290  0.75730  1.0000
  C   C1854     1.0  0.76191  0.80389  0.76155  1.0000
  C   C1855     1.0  0.83936  0.77780  0.90708  1.0000
  C   C1856     1.0  0.82470  0.75688  0.92870  1.0000
  C   C1857     1.0  0.79694  0.73515  0.91936  1.0000
  C   C1858     1.0  0.78392  0.73410  0.88825  1.0000
  C   C1859     1.0  0.79816  0.75511  0.86659  1.0000
  C   C1860     1.0  0.89469  0.79054  0.83879  1.0000
  C   C1861     1.0  0.89896  0.76354  0.82227  1.0000
  C   C1862     1.0  0.93736  0.75184  0.81637  1.0000
  H   H1476     1.0  0.80820  0.88726  0.91945  1.0000
  H   H1477     1.0  0.84458  0.92567  0.88848  1.0000
  H   H1478     1.0  0.88061  0.91119  0.83970  1.0000
  H   H1479     1.0  0.88075  0.85861  0.82225  1.0000
  H   H1480     1.0  0.80798  0.83463  0.90228  1.0000
  H   H1481     1.0  0.86168  0.80330  0.77966  1.0000
  H   H1482     1.0  0.81604  0.80177  0.73378  1.0000
  H   H1483     1.0  0.86159  0.79408  0.91463  1.0000
  H   H1484     1.0  0.83475  0.75752  0.95279  1.0000
  H   H1485     1.0  0.78562  0.71912  0.93623  1.0000
  H   H1486     1.0  0.76236  0.71722  0.88100  1.0000
  H   H1487     1.0  0.78774  0.75362  0.84261  1.0000
  H   H1488     1.0  0.87256  0.75151  0.81416  1.0000
  C   C1863     1.0  0.52915  0.64892  0.89821  1.0000
  H   H1489     1.0  0.51154  0.89309  0.67748  1.0000
  C   C1864     1.0  0.64972  0.79320  0.96422  1.0000
  C   C1865     1.0  0.57784  0.62092  0.66870  1.0000
  C   C1866     1.0  0.97529  0.88664  0.88922  1.0000
  H   H1490     1.0  0.97641  0.52275  0.97508  1.0000
  C   C1867     1.0  0.87797  0.67908  0.92422  1.0000
  H   H1491     1.0  0.79065  0.58844  0.70544  1.0000
  C   C1868     1.0  0.55407  0.81473  0.88971  1.0000
  C   C1869     1.0  0.59069  0.77415  0.93653  1.0000
  C   C1870     1.0  0.61778  0.79759  0.94326  1.0000
  H   H1492     1.0  0.66997  0.55961  0.80192  1.0000
  H   H1493     1.0  0.67058  0.81138  0.96911  1.0000
  C   C1871     1.0  0.62961  0.74164  0.97093  1.0000
  C   C1872     1.0  0.59744  0.74601  0.95019  1.0000
  C   C1873     1.0  0.56482  0.81516  0.85789  1.0000
  C   C1874     1.0  0.56967  0.84234  0.84208  1.0000
  C   C1875     1.0  0.55407  0.86919  0.88988  1.0000
  H   H1494     1.0  0.94615  0.47456  0.82289  1.0000
  H   H1495     1.0  0.68869  0.50937  0.78222  1.0000
  H   H1496     1.0  0.80818  0.65931  0.85417  1.0000
  H   H1497     1.0  0.90757  0.70952  0.89246  1.0000
  C   C1876     1.0  0.58248  0.71154  0.85174  1.0000
  C   C1877     1.0  0.58324  0.73532  0.87302  1.0000
  H   H1498     1.0  0.71326  0.80819  0.79480  1.0000
  C   C1878     1.0  0.59059  0.63692  0.69507  1.0000
  C   C1879     1.0  0.96108  0.87011  0.94205  1.0000
  H   H1499     1.0  0.70534  0.84717  0.70849  1.0000
  C   C1880     1.0  0.95868  0.73344  0.95506  1.0000
  H   H1500     1.0  0.61519  0.81919  0.93213  1.0000
  H   H1501     1.0  0.70656  0.67443  0.69069  1.0000
  H   H1502     1.0  0.91828  0.86810  0.90421  1.0000
  C   C1881     1.0  0.77809  0.94730  0.98662  1.0000
  H   H1503     1.0  0.57837  0.72716  0.94440  1.0000
  H   H1504     1.0  0.57037  0.79453  0.84538  1.0000
  H   H1505     1.0  0.58254  0.62890  0.87920  1.0000
  H   H1506     1.0  0.95277  0.66811  0.85905  1.0000
  C   C1882     1.0  0.88413  0.63484  0.98752  1.0000
  C   C1883     1.0  0.69254  0.52884  0.76738  1.0000
  P   P63       1.0  0.54818  0.77952  0.91024  1.0000
  H   H1507     1.0  0.61053  0.70170  0.84385  1.0000
  H   H1508     1.0  0.61206  0.74334  0.88158  1.0000
  H   H1509     1.0  0.62611  0.49655  0.81798  1.0000
  H   H1510     1.0  0.75467  0.61840  0.76352  1.0000
  S   S255      1.0  0.87969  0.49047  0.77530  1.0000
  C   C1884     1.0  0.54715  0.74879  0.88279  1.0000
  C   C1885     1.0  0.74738  0.87149  0.73753  1.0000
  C   C1886     1.0  0.88805  0.51238  0.87630  1.0000
  H   H1511     1.0  0.57455  0.70185  0.68696  1.0000
  C   C1887     1.0  0.86705  0.52580  0.85152  1.0000
  H   H1512     1.0  0.57840  0.84241  0.81754  1.0000
  H   H1513     1.0  0.96568  0.89007  0.86517  1.0000
  Fe  Fe125     1.0  0.81403  0.50055  0.76654  1.0000
  C   C1888     1.0  0.99352  0.87303  0.80072  1.0000
  C   C1889     1.0  0.55021  0.63116  0.87669  1.0000
  C   C1890     1.0  0.74567  0.80679  0.79161  1.0000
  P   P64       1.0  0.70870  0.61139  0.70427  1.0000
  C   C1891     1.0  0.72652  0.64350  0.72587  1.0000
  H   H1514     1.0  0.92384  0.52052  0.91790  1.0000
  C   C1892     1.0  0.65563  0.76527  0.97809  1.0000
  H   H1515     1.0  0.55075  0.89015  0.90241  1.0000
  C   C1893     1.0  0.96427  0.93131  0.79185  1.0000
  C   C1894     1.0  0.72654  0.52294  0.85848  1.0000
  H   H1516     1.0  0.54866  0.79335  0.98526  1.0000
  C   C1895     1.0  0.72085  0.67207  0.71331  1.0000
  C   C1896     1.0  0.73396  0.69744  0.72962  1.0000
  C   C1897     1.0  0.75405  0.69427  0.75824  1.0000
  C   C1898     1.0  0.52908  0.58273  0.79061  1.0000
  C   C1899     1.0  0.74799  0.64034  0.75410  1.0000
  C   C1900     1.0  0.65809  0.61635  0.68945  1.0000
  H   H1517     1.0  0.72882  0.71960  0.71999  1.0000
  C   C1901     1.0  0.56441  0.86932  0.85807  1.0000
  C   C1902     1.0  0.62877  0.94634  0.66799  1.0000
  C   C1903     1.0  0.71605  0.55089  0.71885  1.0000
  H   H1518     1.0  0.63430  0.71981  0.98136  1.0000
  Fe  Fe126     1.0  0.59143  0.56440  0.97413  1.0000
  Fe  Fe127     1.0  0.59854  0.63100  0.98105  1.0000
  H   H1519     1.0  0.93956  0.93823  0.68542  1.0000
  C   C1904     1.0  0.88416  0.69266  0.89506  1.0000
  H   H1520     1.0  0.69113  0.92752  0.94950  1.0000
  H   H1521     1.0  0.80593  0.93730  0.99494  1.0000
  C   C1905     1.0  0.71339  0.94170  0.96076  1.0000
  C   C1906     1.0  0.76876  0.55279  0.96624  1.0000
  C   C1907     1.0  0.97352  0.46262  0.89901  1.0000
  S   S256      1.0  0.70365  0.77947  0.69094  1.0000
  C   C1908     1.0  0.54562  0.70066  0.84062  1.0000
  C   C1909     1.0  0.81550  0.58719  0.94154  1.0000
  H   H1522     1.0  0.83533  0.59234  0.92218  1.0000
  C   C1910     1.0  0.51983  0.57706  0.73432  1.0000
  H   H1523     1.0  0.50706  0.66944  0.67145  1.0000
  H   H1524     1.0  0.50187  0.64320  0.75862  1.0000
  Fe  Fe128     1.0  0.86265  0.95841  0.76512  1.0000
  H   H1525     1.0  0.53033  0.58082  0.71057  1.0000
  H   H1526     1.0  0.97713  0.60848  0.70980  1.0000
  C   C1911     1.0  0.76441  0.57255  0.99144  1.0000
  H   H1527     1.0  0.81714  0.82639  0.66621  1.0000
  C   C1912     1.0  0.74426  0.69560  0.99550  1.0000
  H   H1528     1.0  0.68067  0.76191  0.99404  1.0000
  C   C1913     1.0  0.82878  0.46243  0.95850  1.0000
  H   H1529     1.0  0.80557  0.47463  0.97101  1.0000
  H   H1530     1.0  0.71176  0.69621  0.99254  1.0000
  H   H1531     1.0  0.95309  0.95383  0.78866  1.0000
  C   C1914     1.0  0.98907  0.73116  0.93232  1.0000
  H   H1532     1.0  0.99176  0.46634  0.67167  1.0000
  C   C1915     1.0  0.49687  0.50167  0.92375  1.0000
  C   C1916     1.0  0.92305  0.49954  0.99090  1.0000
  C   C1917     1.0  0.50033  0.77815  0.93105  1.0000
  C   C1918     1.0  0.49493  0.87287  0.67226  1.0000
  H   H1533     1.0  0.96133  0.46112  0.92248  1.0000
  C   C1919     1.0  0.49410  0.55564  0.92512  1.0000
  H   H1534     1.0  0.51646  0.86196  0.99147  1.0000
  C   C1920     1.0  0.49586  0.88071  0.99222  1.0000
  H   H1535     1.0  0.99397  0.80486  0.85303  1.0000
  H   H1536     1.0  0.72190  0.50324  0.66539  1.0000
