data_image0
_chemical_formula_structural       C3SFe2C2H3CHCSC5HCHCH3CHCHCH2FeCSCHSHCSC2SHCHPC3H3CH2CSCH2CSH2CHC3PCH2CPHC3HC2H2CHC2HC5HCH3C4SHC2H2CHCH4Fe2C3FeCHSHCHSCH2C4H3CFeCH2SCSHSH3CHC3H3C2H3C2H3C3H2CH2SC2HPHC2HC2H3CHCHCHC4HFeC5PC2HCH2CHC3HC5H2C3H2SC2HCSCHFeHC2SCH2C2H2CHC4HSHC2H6FeCS2HC3SH2CHFeCHC6H2CHCHFeCH2C2HC2HC3HCH2PCH3C2HC3PHC3HCHCHC5HC5HCHCHC6HSCH2C2HSHCHCHC2HCSCHCH2CFe2CH4C3SC2H2CH2C2HCHCHFeHC2FeHCH2SHS2C2HCHSC2SCH5C2H2C2HC3SCHC2H2CH2CHPC4H3CHCHCHC5H2C2HCHC2H4C2HCH2C5PHC3H3CHC2HCHCH2CH2C2H2CHC4HC2H3C2HCH2C2H2SC3FeCSH2CS2CH2CH4CS2CH2SH2C2FeCSFeCHCHFeHC2H2CHC3H2CHCH2C3HCHCHCHCH3C4HC2HCH2CH3CHCH3C2PC2HC2HC3HCHC8HSC3SH2CS2CFePC2HFeH2CH3CH3SHSFe2C2HCSC3SC2SH2CHC3HC5HCSCHC4HCPC3H2C2H5CH2PC2H2CHC2H2CPHC2H3C2H2CHC5HC4SH2CSH2C2HC4H2CH4SCFeSC2HFeHC2S2C2HCFeC2HSCFeCH4C3HCHC6HC2HC2SHC2H2C2H2CPC2HCH2CH2CHFeC3HC2H2C4HS2H2C2PC3H6CHC3HCHSCHCH5CSFeHSH3CHCFeC4HCH2FeHC2HCSH5C3HCHC6H2C2HC
_chemical_formula_sum              "C480 S64 Fe32 H384 P16"
_cell_length_a       22.7539
_cell_length_b       21.3217
_cell_length_c       27.1242
_cell_angle_alpha    89.1261
_cell_angle_beta     101.15
_cell_angle_gamma    86.8654

_space_group_name_H-M_alt    "P 1"
_space_group_IT_number       1

loop_
  _space_group_symop_operation_xyz
  'x, y, z'

loop_
  _atom_site_type_symbol
  _atom_site_label
  _atom_site_symmetry_multiplicity
  _atom_site_fract_x
  _atom_site_fract_y
  _atom_site_fract_z
  _atom_site_occupancy
  C   C1        1.0  0.51172  0.19166  0.71434  1.0000
  C   C2        1.0  0.42857  0.28623  0.66804  1.0000
  C   C3        1.0  0.61107  0.24675  0.55290  1.0000
  S   S1        1.0  0.63130  0.45517  0.69828  1.0000
  Fe  Fe1       1.0  0.19188  0.44428  0.72603  1.0000
  Fe  Fe2       1.0  0.34188  0.07349  0.62251  1.0000
  C   C4        1.0  0.30116  0.23550  0.59962  1.0000
  C   C5        1.0  0.33617  0.25584  0.52249  1.0000
  H   H1        1.0  0.60201  0.42114  0.59063  1.0000
  H   H2        1.0  0.29649  0.20348  0.62970  1.0000
  H   H3        1.0  0.55328  0.49359  0.49585  1.0000
  C   C6        1.0  0.56382  0.48768  0.71175  1.0000
  H   H4        1.0  0.53044  0.35729  0.72683  1.0000
  C   C7        1.0  0.61989  0.29418  0.51931  1.0000
  S   S2        1.0  0.34981  0.13464  0.55656  1.0000
  C   C8        1.0  0.62168  0.09039  0.60125  1.0000
  C   C9        1.0  0.47835  0.26896  0.64700  1.0000
  C   C10       1.0  0.29338  0.55890  0.49483  1.0000
  C   C11       1.0  0.16971  0.14776  0.59891  1.0000
  C   C12       1.0  0.41976  0.25567  0.71169  1.0000
  H   H5        1.0  0.50569  0.44144  0.65275  1.0000
  C   C13       1.0  0.57327  0.12955  0.61001  1.0000
  H   H6        1.0  0.47648  0.14534  0.59403  1.0000
  C   C14       1.0  0.27986  0.29859  0.59960  1.0000
  H   H7        1.0  0.48230  0.29148  0.61190  1.0000
  H   H8        1.0  0.62388  0.39355  0.50670  1.0000
  H   H9        1.0  0.39619  0.32273  0.64995  1.0000
  C   C15       1.0  0.50807  0.46994  0.68563  1.0000
  H   H10       1.0  0.25775  0.31496  0.62924  1.0000
  C   C16       1.0  0.52166  0.22302  0.67095  1.0000
  H   H11       1.0  0.19626  0.14696  0.52703  1.0000
  C   C17       1.0  0.45609  0.48335  0.70549  1.0000
  H   H12       1.0  0.19289  0.18942  0.61107  1.0000
  H   H13       1.0  0.35806  0.23970  0.49269  1.0000
  Fe  Fe3       1.0  0.24751  0.45375  0.63350  1.0000
  C   C18       1.0  0.28664  0.33996  0.56076  1.0000
  S   S3        1.0  0.28755  0.54482  0.65613  1.0000
  C   C19       1.0  0.51453  0.11552  0.58825  1.0000
  H   H14       1.0  0.41368  0.46595  0.68745  1.0000
  S   S4        1.0  0.26000  0.41850  0.55889  1.0000
  H   H15       1.0  0.58988  0.54125  0.59348  1.0000
  C   C20       1.0  0.17069  0.12429  0.55127  1.0000
  S   S5        1.0  0.28037  0.40748  0.70937  1.0000
  C   C21       1.0  0.32810  0.21397  0.56041  1.0000
  C   C22       1.0  0.61710  0.35702  0.53290  1.0000
  S   S6        1.0  0.34893  0.09433  0.70412  1.0000
  H   H16       1.0  0.25379  0.54544  0.50802  1.0000
  C   C23       1.0  0.31503  0.31859  0.52244  1.0000
  H   H17       1.0  0.58717  0.33820  0.65006  1.0000
  P   P1        1.0  0.58674  0.20098  0.64412  1.0000
  C   C24       1.0  0.59644  0.32524  0.61371  1.0000
  C   C25       1.0  0.60501  0.37252  0.57997  1.0000
  C   C26       1.0  0.59929  0.26187  0.60053  1.0000
  H   H18       1.0  0.61277  0.19862  0.54111  1.0000
  H   H19       1.0  0.32068  0.35070  0.49272  1.0000
  H   H20       1.0  0.62773  0.09802  0.71750  1.0000
  C   C27       1.0  0.62919  0.56726  0.60671  1.0000
  H   H21       1.0  0.38049  0.26839  0.72736  1.0000
  H   H22       1.0  0.62812  0.28230  0.48237  1.0000
  C   C28       1.0  0.65201  0.18886  0.69428  1.0000
  S   S7        1.0  0.15673  0.48387  0.64801  1.0000
  C   C29       1.0  0.61345  0.32246  0.77314  1.0000
  H   H23       1.0  0.42327  0.41196  0.86464  1.0000
  H   H24       1.0  0.61763  0.48238  0.97656  1.0000
  C   C30       1.0  0.56230  0.10473  0.96633  1.0000
  S   S8        1.0  0.22674  0.53537  0.75545  1.0000
  H   H25       1.0  0.23602  0.10231  0.85917  1.0000
  H   H26       1.0  0.20234  0.29744  0.89057  1.0000
  C   C31       1.0  0.58115  0.45209  0.97800  1.0000
  H   H27       1.0  0.31536  0.07428  0.81202  1.0000
  C   C32       1.0  0.18351  0.15111  0.93606  1.0000
  C   C33       1.0  0.64156  0.29803  0.82028  1.0000
  C   C34       1.0  0.33054  0.26367  0.84634  1.0000
  P   P2        1.0  0.22712  0.08218  0.96523  1.0000
  C   C35       1.0  0.42609  0.31054  0.87400  1.0000
  H   H28       1.0  0.47234  0.35088  0.79352  1.0000
  H   H29       1.0  0.42371  0.12656  0.96843  1.0000
  C   C36       1.0  0.25986  0.47186  0.93094  1.0000
  P   P3        1.0  0.50584  0.30370  0.89919  1.0000
  H   H30       1.0  0.45337  0.18299  0.76760  1.0000
  C   C37       1.0  0.55233  0.33997  0.76370  1.0000
  C   C38       1.0  0.39188  0.25725  0.86722  1.0000
  C   C39       1.0  0.46026  0.51547  0.75068  1.0000
  H   H31       1.0  0.30442  0.22243  0.84076  1.0000
  C   C40       1.0  0.30292  0.32316  0.83233  1.0000
  C   C41       1.0  0.54987  0.11499  0.91427  1.0000
  H   H32       1.0  0.25676  0.43156  0.90691  1.0000
  H   H33       1.0  0.60854  0.54171  0.77262  1.0000
  C   C42       1.0  0.56633  0.52516  0.75371  1.0000
  H   H34       1.0  0.55307  0.07619  0.88933  1.0000
  C   C43       1.0  0.17967  0.25713  0.90058  1.0000
  C   C44       1.0  0.21287  0.20327  0.92265  1.0000
  H   H35       1.0  0.41204  0.21071  0.87797  1.0000
  C   C45       1.0  0.57008  0.40388  0.94355  1.0000
  C   C46       1.0  0.51489  0.53846  0.77339  1.0000
  C   C47       1.0  0.53285  0.17543  0.89418  1.0000
  C   C48       1.0  0.54005  0.21528  0.97815  1.0000
  C   C49       1.0  0.27715  0.07802  0.87878  1.0000
  H   H36       1.0  0.26148  0.20248  0.92989  1.0000
  C   C50       1.0  0.39777  0.37018  0.86028  1.0000
  H   H37       1.0  0.31536  0.42255  0.82819  1.0000
  H   H38       1.0  0.63918  0.32930  0.74423  1.0000
  H   H39       1.0  0.44359  0.53014  0.95085  1.0000
  C   C51       1.0  0.33651  0.37637  0.83949  1.0000
  C   C52       1.0  0.52747  0.22599  0.92602  1.0000
  C   C53       1.0  0.46100  0.20794  0.73451  1.0000
  C   C54       1.0  0.22825  0.52857  0.91365  1.0000
  S   S9        1.0  0.39953  0.52392  0.78161  1.0000
  H   H40       1.0  0.52343  0.18259  0.85374  1.0000
  C   C55       1.0  0.52265  0.36464  0.94462  1.0000
  C   C56       1.0  0.60879  0.29291  0.85852  1.0000
  H   H41       1.0  0.25556  0.32807  0.81555  1.0000
  H   H42       1.0  0.63161  0.27489  0.89525  1.0000
  C   C57       1.0  0.51940  0.33569  0.80182  1.0000
  H   H43       1.0  0.20172  0.53170  0.87578  1.0000
  C   C58       1.0  0.54742  0.31187  0.84955  1.0000
  H   H44       1.0  0.59845  0.39785  0.91608  1.0000
  H   H45       1.0  0.51645  0.54793  0.89557  1.0000
  H   H46       1.0  0.51813  0.56448  0.80743  1.0000
  H   H47       1.0  0.54232  0.15406  0.73259  1.0000
  Fe  Fe4       1.0  0.31250  0.50193  0.73312  1.0000
  Fe  Fe5       1.0  0.36536  0.45131  0.20812  1.0000
  C   C59       1.0  0.30080  0.11875  0.13296  1.0000
  C   C60       1.0  0.55784  0.15492  0.99815  1.0000
  C   C61       1.0  0.42394  0.14367  0.00579  1.0000
  Fe  Fe6       1.0  0.38717  0.33881  0.14488  1.0000
  C   C62       1.0  0.54517  0.46133  0.01394  1.0000
  H   H48       1.0  0.20116  0.41900  0.20769  1.0000
  S   S10       1.0  0.38112  0.27003  0.20680  1.0000
  H   H49       1.0  0.45771  0.09472  0.12819  1.0000
  C   C63       1.0  0.44314  0.10338  0.04778  1.0000
  H   H50       1.0  0.61086  0.34953  0.05495  1.0000
  S   S11       1.0  0.35707  0.55430  0.21953  1.0000
  C   C64       1.0  0.43024  0.19012  0.10211  1.0000
  H   H51       1.0  0.62167  0.35299  0.18957  1.0000
  H   H52       1.0  0.47197  0.14532  0.21478  1.0000
  C   C65       1.0  0.25863  0.09705  0.03047  1.0000
  C   C66       1.0  0.49792  0.42244  0.01527  1.0000
  C   C67       1.0  0.63693  0.30518  0.05939  1.0000
  C   C68       1.0  0.44404  0.12608  0.09586  1.0000
  H   H53       1.0  0.55375  0.49864  0.04066  1.0000
  H   H54       1.0  0.32018  0.42320  0.99256  1.0000
  H   H55       1.0  0.27183  0.55307  0.10932  1.0000
  C   C69       1.0  0.26383  0.15869  0.04783  1.0000
  Fe  Fe7       1.0  0.30220  0.33159  0.21754  1.0000
  C   C70       1.0  0.41240  0.23077  0.06024  1.0000
  H   H56       1.0  0.28807  0.21706  0.11196  1.0000
  H   H57       1.0  0.46997  0.42905  0.04321  1.0000
  S   S12       1.0  0.30410  0.39639  0.15246  1.0000
  C   C71       1.0  0.16158  0.40193  0.21864  1.0000
  S   S13       1.0  0.39769  0.31163  0.06719  1.0000
  H   H58       1.0  0.57508  0.48179  0.20240  1.0000
  S   S14       1.0  0.44882  0.40016  0.19499  1.0000
  H   H59       1.0  0.31644  0.12722  0.17251  1.0000
  H   H60       1.0  0.15499  0.17348  0.20396  1.0000
  H   H61       1.0  0.19698  0.47209  0.10084  1.0000
  C   C72       1.0  0.56455  0.12933  0.20826  1.0000
  H   H62       1.0  0.43500  0.20826  0.13925  1.0000
  C   C73       1.0  0.29560  0.46721  0.97906  1.0000
  C   C74       1.0  0.48644  0.37464  0.98052  1.0000
  C   C75       1.0  0.16396  0.07239  0.20800  1.0000
  H   H63       1.0  0.41079  0.52666  0.13275  1.0000
  H   H64       1.0  0.53454  0.25278  0.00348  1.0000
  H   H65       1.0  0.39435  0.23814  0.97942  1.0000
  C   C76       1.0  0.18271  0.52133  0.10127  1.0000
  C   C77       1.0  0.28449  0.16935  0.09886  1.0000
  H   H66       1.0  0.25151  0.19894  0.02261  1.0000
  H   H67       1.0  0.56500  0.14654  0.03835  1.0000
  H   H68       1.0  0.55443  0.12096  0.16833  1.0000
  C   C78       1.0  0.56087  0.52853  0.21206  1.0000
  C   C79       1.0  0.29984  0.51940  0.00979  1.0000
  H   H69       1.0  0.32819  0.51563  0.04680  1.0000
  H   H70       1.0  0.21716  0.55251  0.21389  1.0000
  H   H71       1.0  0.59623  0.27180  0.11943  1.0000
  C   C80       1.0  0.40807  0.20708  0.01199  1.0000
  C   C81       1.0  0.62880  0.26136  0.09585  1.0000
  C   C82       1.0  0.17168  0.13227  0.22742  1.0000
  H   H72       1.0  0.54431  0.30020  0.22517  1.0000
  H   H73       1.0  0.44933  0.34526  0.98172  1.0000
  C   C83       1.0  0.22484  0.56707  0.10581  1.0000
  H   H74       1.0  0.55180  0.56658  0.13670  1.0000
  H   H75       1.0  0.45214  0.16582  0.46564  1.0000
  S   S15       1.0  0.51220  0.30819  0.32180  1.0000
  C   C84       1.0  0.39219  0.20769  0.34408  1.0000
  C   C85       1.0  0.63811  0.13658  0.28555  1.0000
  H   H76       1.0  0.56601  0.50331  0.28955  1.0000
  P   P4        1.0  0.25959  0.09675  0.37248  1.0000
  H   H77       1.0  0.60079  0.16199  0.35083  1.0000
  C   C86       1.0  0.48310  0.50533  0.35356  1.0000
  C   C87       1.0  0.57499  0.33225  0.30018  1.0000
  H   H78       1.0  0.34092  0.44308  0.40885  1.0000
  C   C88       1.0  0.19963  0.13913  0.27754  1.0000
  C   C89       1.0  0.53455  0.49643  0.45599  1.0000
  H   H79       1.0  0.40080  0.23685  0.31357  1.0000
  H   H80       1.0  0.26373  0.27249  0.35420  1.0000
  H   H81       1.0  0.48967  0.40980  0.45637  1.0000
  C   C90       1.0  0.20655  0.14252  0.40085  1.0000
  H   H82       1.0  0.17492  0.46311  0.46748  1.0000
  C   C91       1.0  0.34059  0.17355  0.33745  1.0000
  H   H83       1.0  0.36094  0.10711  0.45512  1.0000
  C   C92       1.0  0.52088  0.55166  0.37507  1.0000
  H   H84       1.0  0.16225  0.32367  0.34438  1.0000
  C   C93       1.0  0.62411  0.12586  0.23382  1.0000
  C   C94       1.0  0.16440  0.54664  0.41937  1.0000
  C   C95       1.0  0.25844  0.32074  0.36498  1.0000
  C   C96       1.0  0.54591  0.54731  0.42669  1.0000
  H   H85       1.0  0.26993  0.20824  0.43611  1.0000
  Fe  Fe8       1.0  0.43637  0.33529  0.25774  1.0000
  C   C97       1.0  0.32820  0.13742  0.37754  1.0000
  C   C98       1.0  0.51833  0.14317  0.23430  1.0000
  C   C99       1.0  0.59159  0.15170  0.31133  1.0000
  C   C100      1.0  0.43253  0.20484  0.39009  1.0000
  C   C101      1.0  0.22395  0.54271  0.29390  1.0000
  P   P5        1.0  0.23423  0.53070  0.39811  1.0000
  C   C102      1.0  0.55518  0.54095  0.26149  1.0000
  C   C103      1.0  0.30150  0.41759  0.39525  1.0000
  H   H86       1.0  0.35312  0.33137  0.38835  1.0000
  C   C104      1.0  0.49835  0.44951  0.43393  1.0000
  H   H87       1.0  0.49613  0.16667  0.30551  1.0000
  H   H88       1.0  0.47228  0.23159  0.39501  1.0000
  C   C105      1.0  0.30865  0.35423  0.38375  1.0000
  H   H89       1.0  0.44488  0.41755  0.36562  1.0000
  C   C106      1.0  0.42138  0.16775  0.42969  1.0000
  C   C107      1.0  0.22393  0.19546  0.42894  1.0000
  C   C108      1.0  0.47275  0.45401  0.38279  1.0000
  H   H90       1.0  0.46139  0.50883  0.31418  1.0000
  C   C109      1.0  0.18135  0.23414  0.44657  1.0000
  C   C110      1.0  0.36948  0.13430  0.42349  1.0000
  C   C111      1.0  0.19366  0.41338  0.36939  1.0000
  C   C112      1.0  0.20103  0.34992  0.35879  1.0000
  C   C113      1.0  0.24389  0.44766  0.38797  1.0000
  H   H91       1.0  0.20339  0.18571  0.29260  1.0000
  H   H92       1.0  0.19502  0.27594  0.46704  1.0000
  C   C114      1.0  0.53192  0.15460  0.28568  1.0000
  C   C115      1.0  0.57744  0.32616  0.24937  1.0000
  C   C116      1.0  0.22190  0.08631  0.30822  1.0000
  H   H93       1.0  0.21896  0.49259  0.29215  1.0000
  H   H94       1.0  0.31048  0.17670  0.30131  1.0000
  S   S16       1.0  0.35665  0.39083  0.27397  1.0000
  C   C117      1.0  0.29643  0.55640  0.44370  1.0000
  C   C118      1.0  0.61851  0.36465  0.33170  1.0000
  H   H95       1.0  0.61591  0.37032  0.37078  1.0000
  C   C119      1.0  0.62118  0.35579  0.22927  1.0000
  S   S17       1.0  0.22138  0.28577  0.23164  1.0000
  C   C120      1.0  0.15965  0.33844  0.23157  1.0000
  H   H96       1.0  0.45856  0.05239  0.54197  1.0000
  Fe  Fe9       1.0  0.34001  0.93271  0.64067  1.0000
  H   H97       1.0  0.32010  0.71771  0.57105  1.0000
  C   C121      1.0  0.24811  0.82088  0.63692  1.0000
  C   C122      1.0  0.52200  0.86689  0.60302  1.0000
  S   S18       1.0  0.15690  0.66913  0.65699  1.0000
  C   C123      1.0  0.56781  0.98755  0.71045  1.0000
  H   H98       1.0  0.58443  0.85033  0.67263  1.0000
  H   H99       1.0  0.52888  0.00060  0.68234  1.0000
  C   C124      1.0  0.15955  0.90852  0.52198  1.0000
  C   C125      1.0  0.24563  0.69644  0.60578  1.0000
  H   H100      1.0  0.49834  0.90576  0.61720  1.0000
  H   H101      1.0  0.49463  0.86422  0.70804  1.0000
  C   C126      1.0  0.50347  0.84828  0.55360  1.0000
  H   H102      1.0  0.24900  0.86883  0.64924  1.0000
  C   C127      1.0  0.29021  0.79733  0.60962  1.0000
  C   C128      1.0  0.50426  0.06292  0.55831  1.0000
  C   C129      1.0  0.20521  0.78199  0.64908  1.0000
  C   C130      1.0  0.46795  0.76894  0.69801  1.0000
  H   H103      1.0  0.46512  0.77033  0.65768  1.0000
  S   S19       1.0  0.26730  0.00881  0.62009  1.0000
  H   H104      1.0  0.19048  0.92305  0.71033  1.0000
  C   C131      1.0  0.58375  0.76673  0.56648  1.0000
  C   C132      1.0  0.34205  0.57841  0.52982  1.0000
  H   H105      1.0  0.60711  0.65634  0.71647  1.0000
  H   H106      1.0  0.24392  0.64886  0.59284  1.0000
  H   H107      1.0  0.17345  0.80007  0.67085  1.0000
  H   H108      1.0  0.33938  0.58005  0.56922  1.0000
  H   H109      1.0  0.54434  0.98327  0.52666  1.0000
  H   H110      1.0  0.46491  0.87261  0.52983  1.0000
  Fe  Fe10      1.0  0.27892  0.02365  0.70319  1.0000
  C   C133      1.0  0.20522  0.71917  0.63507  1.0000
  S   S20       1.0  0.34574  0.94156  0.72389  1.0000
  S   S21       1.0  0.41342  0.99635  0.63810  1.0000
  H   H111      1.0  0.18414  0.92524  0.55707  1.0000
  C   C134      1.0  0.28819  0.73559  0.59297  1.0000
  C   C135      1.0  0.61127  0.03816  0.57079  1.0000
  C   C136      1.0  0.57056  0.83493  0.63452  1.0000
  S   S22       1.0  0.34545  0.84520  0.59672  1.0000
  H   H112      1.0  0.43860  0.67461  0.69976  1.0000
  H   H113      1.0  0.57768  0.65136  0.61745  1.0000
  C   C137      1.0  0.55255  0.02421  0.54960  1.0000
  H   H114      1.0  0.28771  0.95495  0.52217  1.0000
  Fe  Fe11      1.0  0.41495  0.01123  0.71964  1.0000
  C   C138      1.0  0.53479  0.79860  0.53510  1.0000
  H   H115      1.0  0.23412  0.84806  0.50975  1.0000
  C   C139      1.0  0.48465  0.82165  0.72621  1.0000
  C   C140      1.0  0.62248  0.97260  0.69572  1.0000
  C   C141      1.0  0.45266  0.71521  0.72162  1.0000
  C   C142      1.0  0.60082  0.78360  0.61696  1.0000
  C   C143      1.0  0.39415  0.59518  0.51417  1.0000
  C   C144      1.0  0.18789  0.86429  0.49548  1.0000
  H   H116      1.0  0.52112  0.78493  0.49648  1.0000
  H   H117      1.0  0.43163  0.61022  0.54153  1.0000
  C   C145      1.0  0.65164  0.74430  0.72141  1.0000
  H   H118      1.0  0.62456  0.97162  0.65643  1.0000
  C   C146      1.0  0.62247  0.62971  0.62053  1.0000
  H   H119      1.0  0.60838  0.72932  0.55126  1.0000
  Fe  Fe12      1.0  0.19926  0.57217  0.67599  1.0000
  C   C147      1.0  0.29533  0.96105  0.48424  1.0000
  H   H120      1.0  0.34875  0.87423  0.48704  1.0000
  H   H121      1.0  0.64872  0.00763  0.56474  1.0000
  C   C148      1.0  0.37409  0.02754  0.87496  1.0000
  C   C149      1.0  0.15875  0.99207  0.75760  1.0000
  H   H122      1.0  0.30486  0.62336  0.88634  1.0000
  C   C150      1.0  0.38177  0.00983  0.92566  1.0000
  C   C151      1.0  0.44743  0.57684  0.93604  1.0000
  H   H123      1.0  0.19674  0.98253  0.89280  1.0000
  C   C152      1.0  0.61031  0.69688  0.78827  1.0000
  C   C153      1.0  0.50759  0.82088  0.90377  1.0000
  C   C154      1.0  0.45240  0.71482  0.77311  1.0000
  H   H124      1.0  0.52528  0.65453  0.86185  1.0000
  C   C155      1.0  0.21077  0.71687  0.96444  1.0000
  H   H125      1.0  0.25183  0.84211  0.77165  1.0000
  H   H126      1.0  0.22316  0.90058  0.84211  1.0000
  P   P6        1.0  0.19255  0.65484  0.92034  1.0000
  C   C156      1.0  0.23109  0.58095  0.94479  1.0000
  H   H127      1.0  0.55930  0.74218  0.94545  1.0000
  H   H128      1.0  0.33859  0.64284  0.80728  1.0000
  H   H129      1.0  0.39492  0.84749  0.93447  1.0000
  C   C157      1.0  0.54052  0.92362  0.93068  1.0000
  C   C158      1.0  0.25663  0.69395  0.77211  1.0000
  H   H130      1.0  0.46775  0.90961  0.86950  1.0000
  C   C159      1.0  0.25897  0.75434  0.96229  1.0000
  C   C160      1.0  0.58437  0.89536  0.96896  1.0000
  C   C161      1.0  0.19962  0.71659  0.77783  1.0000
  P   P7        1.0  0.45429  0.77373  0.86479  1.0000
  H   H131      1.0  0.58857  0.65848  0.80240  1.0000
  C   C162      1.0  0.28299  0.84335  0.80718  1.0000
  C   C163      1.0  0.28537  0.06205  0.93027  1.0000
  C   C164      1.0  0.55314  0.79272  0.94117  1.0000
  H   H132      1.0  0.43641  0.67413  0.78959  1.0000
  C   C165      1.0  0.41213  0.62735  0.94872  1.0000
  H   H133      1.0  0.38755  0.72553  0.93832  1.0000
  C   C166      1.0  0.29472  0.66138  0.81183  1.0000
  H   H134      1.0  0.40839  0.01460  0.85363  1.0000
  C   C167      1.0  0.49243  0.64719  0.88498  1.0000
  C   C168      1.0  0.48807  0.58688  0.90459  1.0000
  C   C169      1.0  0.48576  0.82095  0.77785  1.0000
  C   C170      1.0  0.59071  0.82994  0.97414  1.0000
  C   C171      1.0  0.45391  0.69725  0.89459  1.0000
  H   H135      1.0  0.53525  0.97422  0.92661  1.0000
  C   C172      1.0  0.17940  0.01681  0.96355  1.0000
  C   C173      1.0  0.38056  0.81305  0.85850  1.0000
  C   C174      1.0  0.30748  0.87773  0.89275  1.0000
  C   C175      1.0  0.46887  0.76786  0.80176  1.0000
  C   C176      1.0  0.21776  0.67238  0.86268  1.0000
  H   H136      1.0  0.27103  0.70101  0.73673  1.0000
  C   C177      1.0  0.18026  0.70635  0.82292  1.0000
  H   H137      1.0  0.28635  0.74639  0.93436  1.0000
  C   C178      1.0  0.33778  0.02716  0.95333  1.0000
  H   H138      1.0  0.49708  0.86316  0.79823  1.0000
  C   C179      1.0  0.41512  0.68719  0.92787  1.0000
  C   C180      1.0  0.27530  0.65041  0.85678  1.0000
  C   C181      1.0  0.50224  0.88667  0.89826  1.0000
  C   C182      1.0  0.56473  0.98841  0.76141  1.0000
  C   C183      1.0  0.17439  0.97472  0.92389  1.0000
  C   C184      1.0  0.36408  0.84607  0.89867  1.0000
  H   H139      1.0  0.29510  0.90376  0.92350  1.0000
  S   S23       1.0  0.49734  0.00985  0.78090  1.0000
  C   C185      1.0  0.32176  0.06154  0.85157  1.0000
  H   H140      1.0  0.35031  0.78750  0.78083  1.0000
  H   H141      1.0  0.38193  0.62034  0.97438  1.0000
  C   C186      1.0  0.26694  0.87619  0.84705  1.0000
  C   C187      1.0  0.33940  0.81210  0.81272  1.0000
  H   H142      1.0  0.42215  0.98305  0.94381  1.0000
  S   S24       1.0  0.20571  0.05048  0.74535  1.0000
  H   H143      1.0  0.61848  0.74810  0.85679  1.0000
  C   C188      1.0  0.62762  0.74714  0.81906  1.0000
  H   H144      1.0  0.61384  0.97194  0.83688  1.0000
  C   C189      1.0  0.61644  0.97296  0.79749  1.0000
  H   H145      1.0  0.16980  0.74102  0.74686  1.0000
  C   C190      1.0  0.16030  0.93316  0.73585  1.0000
  C   C191      1.0  0.62168  0.69562  0.73950  1.0000
  H   H146      1.0  0.58526  0.60732  0.97597  1.0000
  C   C192      1.0  0.23702  0.81404  0.03264  1.0000
  S   S25       1.0  0.37891  0.90793  0.09730  1.0000
  C   C193      1.0  0.22656  0.80947  0.18229  1.0000
  H   H147      1.0  0.63510  0.83956  0.12008  1.0000
  C   C194      1.0  0.27941  0.84189  0.18981  1.0000
  H   H148      1.0  0.52019  0.67391  0.15939  1.0000
  H   H149      1.0  0.31134  0.82919  0.99646  1.0000
  C   C195      1.0  0.39632  0.57592  0.13134  1.0000
  Fe  Fe13      1.0  0.43223  0.81673  0.09555  1.0000
  Fe  Fe14      1.0  0.41153  0.90138  0.18122  1.0000
  C   C196      1.0  0.17616  0.72831  0.00127  1.0000
  H   H150      1.0  0.32878  0.68372  0.19656  1.0000
  H   H151      1.0  0.23909  0.66600  0.11116  1.0000
  H   H152      1.0  0.59204  0.98972  0.13169  1.0000
  H   H153      1.0  0.61314  0.92408  0.99482  1.0000
  C   C197      1.0  0.29710  0.05731  0.11601  1.0000
  C   C198      1.0  0.18842  0.77750  0.03452  1.0000
  C   C199      1.0  0.63636  0.67499  0.10810  1.0000
  S   S26       1.0  0.49474  0.95273  0.18064  1.0000
  C   C200      1.0  0.18939  0.81273  0.21780  1.0000
  C   C201      1.0  0.27250  0.80216  0.99678  1.0000
  H   H154      1.0  0.21363  0.78354  0.14842  1.0000
  H   H155      1.0  0.16063  0.78694  0.06213  1.0000
  C   C202      1.0  0.27648  0.04646  0.06497  1.0000
  H   H156      1.0  0.62449  0.80809  0.00408  1.0000
  H   H157      1.0  0.34515  0.01345  0.99270  1.0000
  C   C203      1.0  0.57954  0.69256  0.07984  1.0000
  C   C204      1.0  0.40643  0.61549  0.09225  1.0000
  H   H158      1.0  0.34571  0.75269  0.12760  1.0000
  C   C205      1.0  0.20646  0.63050  0.10719  1.0000
  H   H159      1.0  0.30665  0.84194  0.16139  1.0000
  C   C206      1.0  0.38915  0.67960  0.09170  1.0000
  H   H160      1.0  0.27339  0.99853  0.05261  1.0000
  Fe  Fe15      1.0  0.46573  0.95291  0.09665  1.0000
  H   H161      1.0  0.24757  0.85110  0.05930  1.0000
  C   C207      1.0  0.56024  0.66675  0.03296  1.0000
  C   C208      1.0  0.36943  0.60099  0.16958  1.0000
  Fe  Fe16      1.0  0.53814  0.85729  0.17304  1.0000
  H   H162      1.0  0.57454  0.05781  0.98218  1.0000
  C   C209      1.0  0.26774  0.57616  0.99288  1.0000
  H   H163      1.0  0.42987  0.59706  0.06404  1.0000
  H   H164      1.0  0.30989  0.01813  0.14264  1.0000
  S   S27       1.0  0.47368  0.02774  0.03973  1.0000
  H   H165      1.0  0.51617  0.68071  0.01137  1.0000
  S   S28       1.0  0.51630  0.86179  0.08888  1.0000
  S   S29       1.0  0.40928  0.73234  0.04901  1.0000
  C   C210      1.0  0.36023  0.70356  0.12876  1.0000
  C   C211      1.0  0.35092  0.66456  0.16787  1.0000
  H   H166      1.0  0.27243  0.61617  0.01718  1.0000
  C   C212      1.0  0.59859  0.62491  0.01338  1.0000
  H   H167      1.0  0.55050  0.72681  0.09398  1.0000
  S   S30       1.0  0.45716  0.80643  0.17939  1.0000
  C   C213      1.0  0.63714  0.00545  0.14188  1.0000
  C   C214      1.0  0.53094  0.63684  0.18780  1.0000
  S   S31       1.0  0.62263  0.81856  0.22337  1.0000
  C   C215      1.0  0.54825  0.57633  0.17511  1.0000
  H   H168      1.0  0.22729  0.66770  0.21523  1.0000
  H   H169      1.0  0.17345  0.97310  0.22483  1.0000
  H   H170      1.0  0.63006  0.05873  0.07344  1.0000
  H   H171      1.0  0.65069  0.69669  0.14398  1.0000
  H   H172      1.0  0.24071  0.72255  0.29599  1.0000
  C   C216      1.0  0.34942  0.57228  0.42832  1.0000
  C   C217      1.0  0.37428  0.72942  0.30471  1.0000
  H   H173      1.0  0.56350  0.75041  0.33676  1.0000
  H   H174      1.0  0.35338  0.56934  0.38918  1.0000
  C   C218      1.0  0.21030  0.02641  0.28938  1.0000
  C   C219      1.0  0.31921  0.97887  0.38795  1.0000
  H   H175      1.0  0.41970  0.66045  0.26685  1.0000
  C   C220      1.0  0.33042  0.91576  0.46454  1.0000
  C   C221      1.0  0.41956  0.74760  0.39115  1.0000
  C   C222      1.0  0.53634  0.60148  0.27410  1.0000
  S   S32       1.0  0.35968  0.91949  0.24233  1.0000
  C   C223      1.0  0.27100  0.01463  0.45552  1.0000
  H   H176      1.0  0.27625  0.89706  0.30588  1.0000
  C   C224      1.0  0.46875  0.67399  0.34224  1.0000
  C   C225      1.0  0.42098  0.68530  0.30140  1.0000
  H   H177      1.0  0.33655  0.79397  0.35181  1.0000
  H   H178      1.0  0.17806  0.80522  0.43101  1.0000
  C   C226      1.0  0.20717  0.84454  0.26239  1.0000
  H   H179      1.0  0.24562  0.05002  0.47220  1.0000
  H   H180      1.0  0.17953  0.84548  0.29061  1.0000
  C   C227      1.0  0.34256  0.92482  0.41643  1.0000
  H   H181      1.0  0.37087  0.89075  0.40130  1.0000
  P   P8        1.0  0.53123  0.61964  0.33794  1.0000
  C   C228      1.0  0.60257  0.72183  0.35547  1.0000
  C   C229      1.0  0.39785  0.59198  0.46343  1.0000
  C   C230      1.0  0.23677  0.67232  0.29556  1.0000
  C   C231      1.0  0.22896  0.64139  0.25000  1.0000
  H   H182      1.0  0.22086  0.98528  0.31355  1.0000
  H   H183      1.0  0.24596  0.66321  0.37549  1.0000
  H   H184      1.0  0.50346  0.69617  0.41957  1.0000
  C   C232      1.0  0.37329  0.76028  0.34957  1.0000
  H   H185      1.0  0.43820  0.60444  0.45117  1.0000
  C   C233      1.0  0.46742  0.70497  0.38740  1.0000
  H   H186      1.0  0.41840  0.77120  0.42604  1.0000
  C   C234      1.0  0.18238  0.01943  0.23922  1.0000
  H   H187      1.0  0.51475  0.69743  0.24643  1.0000
  C   C235      1.0  0.52641  0.64972  0.23721  1.0000
  C   C236      1.0  0.28198  0.02341  0.40674  1.0000
  C   C237      1.0  0.22256  0.57662  0.24920  1.0000
  C   C238      1.0  0.23221  0.57353  0.33990  1.0000
  C   C239      1.0  0.23931  0.63852  0.34044  1.0000
  H   H188      1.0  0.33085  0.98642  0.35141  1.0000
  H   H189      1.0  0.33879  0.73977  0.27231  1.0000
  C   C240      1.0  0.26147  0.87418  0.27089  1.0000
  C   C241      1.0  0.59981  0.65666  0.36219  1.0000
  H   H190      1.0  0.57323  0.58372  0.44450  1.0000
  C   C242      1.0  0.29623  0.87521  0.23377  1.0000
  H   H191      1.0  0.64915  0.01066  0.29766  1.0000
  C   C243      1.0  0.15627  0.83986  0.45136  1.0000
  C   C244      1.0  0.65265  0.62015  0.38170  1.0000
  H   H192      1.0  0.65251  0.56934  0.38356  1.0000
  H   H193      1.0  0.01788  0.10699  0.50787  1.0000
  H   H194      1.0  0.02244  0.40869  0.68162  1.0000
  H   H195      1.0  0.69969  0.13225  0.49675  1.0000
  C   C245      1.0  0.00727  0.43396  0.64614  1.0000
  C   C246      1.0  0.87586  0.29324  0.66470  1.0000
  H   H196      1.0  0.77394  0.44095  0.68124  1.0000
  C   C247      1.0  0.84599  0.14359  0.67910  1.0000
  H   H197      1.0  0.78811  0.07687  0.70232  1.0000
  H   H198      1.0  0.69036  0.27720  0.68215  1.0000
  C   C248      1.0  0.77788  0.34965  0.64878  1.0000
  C   C249      1.0  0.04181  0.24871  0.69990  1.0000
  C   C250      1.0  0.01402  0.40552  0.60135  1.0000
  C   C251      1.0  0.89285  0.11266  0.60961  1.0000
  C   C252      1.0  0.69487  0.23432  0.70437  1.0000
  P   P9        1.0  0.92429  0.22795  0.65197  1.0000
  H   H199      1.0  0.92327  0.12072  0.58446  1.0000
  C   C253      1.0  0.98317  0.49585  0.64543  1.0000
  C   C254      1.0  0.91169  0.28815  0.55764  1.0000
  C   C255      1.0  0.80247  0.40024  0.67584  1.0000
  H   H200      1.0  0.04213  0.28388  0.67090  1.0000
  H   H201      1.0  0.85455  0.52920  0.53902  1.0000
  H   H202      1.0  0.79461  0.25776  0.62155  1.0000
  C   C256      1.0  0.90016  0.34432  0.69188  1.0000
  H   H203      1.0  0.69154  0.48833  0.60357  1.0000
  C   C257      1.0  0.98094  0.07663  0.50006  1.0000
  C   C258      1.0  0.93080  0.30366  0.51331  1.0000
  H   H204      1.0  0.75847  0.22703  0.51419  1.0000
  C   C259      1.0  0.00059  0.21848  0.58292  1.0000
  H   H205      1.0  0.86979  0.30971  0.56387  1.0000
  C   C260      1.0  0.13955  0.11687  0.63135  1.0000
  H   H206      1.0  0.94738  0.34331  0.70869  1.0000
  H   H207      1.0  0.90360  0.33599  0.48571  1.0000
  C   C261      1.0  0.97250  0.50058  0.55485  1.0000
  H   H208      1.0  0.74932  0.54673  0.49790  1.0000
  H   H209      1.0  0.02766  0.18462  0.60909  1.0000
  C   C262      1.0  0.92372  0.10360  0.48026  1.0000
  C   C263      1.0  0.02014  0.23513  0.53900  1.0000
  H   H210      1.0  0.84079  0.17567  0.70869  1.0000
  H   H211      1.0  0.00130  0.41680  0.52088  1.0000
  C   C264      1.0  0.96620  0.52984  0.59971  1.0000
  H   H212      1.0  0.78098  0.54564  0.63976  1.0000
  C   C265      1.0  0.99601  0.43863  0.55567  1.0000
  C   C266      1.0  0.81640  0.08760  0.67577  1.0000
  C   C267      1.0  0.86357  0.39773  0.69717  1.0000
  C   C268      1.0  0.81428  0.29617  0.64331  1.0000
  H   H213      1.0  0.66740  0.10029  0.61777  1.0000
  C   C269      1.0  0.94695  0.24606  0.59325  1.0000
  C   C270      1.0  0.68640  0.53725  0.61288  1.0000
  H   H214      1.0  0.88244  0.43715  0.71820  1.0000
  H   H215      1.0  0.95993  0.52617  0.51927  1.0000
  H   H216      1.0  0.97941  0.51734  0.68062  1.0000
  C   C271      1.0  0.98536  0.27795  0.50438  1.0000
  C   C272      1.0  0.98998  0.21638  0.70164  1.0000
  H   H217      1.0  0.06216  0.21467  0.53174  1.0000
  C   C273      1.0  0.88388  0.15694  0.64564  1.0000
  H   H218      1.0  0.73055  0.35212  0.63216  1.0000
  H   H219      1.0  0.03413  0.35827  0.60204  1.0000
  C   C274      1.0  0.13933  0.07129  0.53527  1.0000
  C   C275      1.0  0.65966  0.13400  0.72463  1.0000
  H   H220      1.0  0.14018  0.13426  0.66881  1.0000
  H   H221      1.0  0.07752  0.48108  0.49310  1.0000
  S   S33       1.0  0.76499  0.31567  0.92086  1.0000
  C   C276      1.0  0.90179  0.23356  0.86541  1.0000
  C   C277      1.0  0.06996  0.49117  0.77558  1.0000
  C   C278      1.0  0.85523  0.15149  0.90421  1.0000
  Fe  Fe17      1.0  0.82363  0.49630  0.81963  1.0000
  C   C279      1.0  0.01851  0.52470  0.78406  1.0000
  S   S34       1.0  0.73897  0.55490  0.78983  1.0000
  H   H222      1.0  0.10546  0.51614  0.76443  1.0000
  H   H223      1.0  0.69543  0.14833  0.96784  1.0000
  C   C280      1.0  0.02792  0.39394  0.79469  1.0000
  S   S35       1.0  0.94796  0.11438  0.85824  1.0000
  S   S36       1.0  0.78360  0.40531  0.79497  1.0000
  C   C281      1.0  0.97595  0.42769  0.80291  1.0000
  H   H224      1.0  0.93537  0.24794  0.84490  1.0000
  H   H225      1.0  0.85308  0.10251  0.91428  1.0000
  C   C282      1.0  0.97106  0.49318  0.79688  1.0000
  H   H226      1.0  0.86436  0.32767  0.87020  1.0000
  H   H227      1.0  0.78178  0.18251  0.93890  1.0000
  H   H228      1.0  0.71351  0.08313  0.78843  1.0000
  H   H229      1.0  0.13623  0.18015  0.80140  1.0000
  C   C283      1.0  0.70730  0.09868  0.97169  1.0000
  S   S37       1.0  0.90614  0.53791  0.80334  1.0000
  S   S38       1.0  0.67032  0.45284  0.84592  1.0000
  C   C284      1.0  0.70816  0.12550  0.76502  1.0000
  H   H230      1.0  0.03887  0.20895  0.89727  1.0000
  H   H231      1.0  0.04359  0.12767  0.80808  1.0000
  S   S39       1.0  0.13790  0.38382  0.76709  1.0000
  H   H232      1.0  0.09143  0.30115  0.87482  1.0000
  H   H233      1.0  0.93254  0.51373  0.94988  1.0000
  C   C285      1.0  0.99092  0.17313  0.74142  1.0000
  C   C286      1.0  0.12047  0.15348  0.92649  1.0000
  Fe  Fe18      1.0  0.69737  0.46362  0.77105  1.0000
  C   C287      1.0  0.89847  0.16998  0.87756  1.0000
  S   S40       1.0  0.80581  0.48920  0.89788  1.0000
  Fe  Fe19      1.0  0.71796  0.54041  0.86618  1.0000
  C   C288      1.0  0.86120  0.27860  0.87918  1.0000
  H   H234      1.0  0.03106  0.34318  0.79782  1.0000
  C   C289      1.0  0.07483  0.42580  0.78078  1.0000
  H   H235      1.0  0.68908  0.28441  0.82763  1.0000
  Fe  Fe20      1.0  0.75979  0.40212  0.87167  1.0000
  H   H236      1.0  0.78718  0.16502  0.80670  1.0000
  C   C290      1.0  0.09537  0.19087  0.77396  1.0000
  C   C291      1.0  0.81506  0.19672  0.91837  1.0000
  H   H237      1.0  0.68157  0.08591  0.89180  1.0000
  H   H238      1.0  0.93948  0.40308  0.81307  1.0000
  C   C292      1.0  0.81758  0.26012  0.90543  1.0000
  H   H239      1.0  0.00349  0.54375  0.89771  1.0000
  C   C293      1.0  0.08750  0.20748  0.90449  1.0000
  C   C294      1.0  0.74975  0.17158  0.77532  1.0000
  C   C295      1.0  0.04331  0.16090  0.77745  1.0000
  H   H240      1.0  0.13484  0.25868  0.73297  1.0000
  H   H241      1.0  0.09631  0.11404  0.93589  1.0000
  C   C296      1.0  0.11704  0.25930  0.89169  1.0000
  H   H242      1.0  0.11265  0.54812  0.91608  1.0000
  C   C297      1.0  0.74312  0.22603  0.74504  1.0000
  H   H243      1.0  0.77525  0.26201  0.75352  1.0000
  H   H244      1.0  0.95176  0.14831  0.74510  1.0000
  C   C298      1.0  0.09452  0.23495  0.73530  1.0000
  C   C299      1.0  0.98220  0.56478  0.06867  1.0000
  C   C300      1.0  0.92586  0.46347  0.01766  1.0000
  H   H245      1.0  0.81677  0.35111  0.14225  1.0000
  C   C301      1.0  0.97059  0.56377  0.01591  1.0000
  H   H246      1.0  0.71160  0.38652  0.10713  1.0000
  C   C302      1.0  0.93872  0.46305  0.07009  1.0000
  H   H247      1.0  0.92826  0.42297  0.09107  1.0000
  C   C303      1.0  0.67951  0.29230  0.02951  1.0000
  H   H248      1.0  0.99600  0.13597  0.14460  1.0000
  C   C304      1.0  0.82334  0.22966  0.21705  1.0000
  H   H249      1.0  0.97788  0.51089  0.13610  1.0000
  H   H250      1.0  0.84984  0.25513  0.19534  1.0000
  H   H251      1.0  0.90406  0.42448  0.99801  1.0000
  C   C305      1.0  0.76985  0.52942  0.12756  1.0000
  C   C306      1.0  0.96657  0.51340  0.09551  1.0000
  C   C307      1.0  0.84591  0.44489  0.15435  1.0000
  C   C308      1.0  0.72734  0.48484  0.11241  1.0000
  H   H252      1.0  0.75683  0.30593  0.21526  1.0000
  C   C309      1.0  0.80390  0.40074  0.13778  1.0000
  C   C310      1.0  0.90958  0.18596  0.12275  1.0000
  H   H253      1.0  0.89150  0.42966  0.17191  1.0000
  C   C311      1.0  0.84799  0.18075  0.10538  1.0000
  H   H254      1.0  0.81882  0.22293  0.10161  1.0000
  H   H255      1.0  0.09078  0.50229  0.09715  1.0000
  C   C312      1.0  0.12220  0.53885  0.09866  1.0000
  H   H256      1.0  0.68682  0.32681  0.00182  1.0000
  H   H257      1.0  0.88212  0.14598  0.22482  1.0000
  H   H258      1.0  0.65510  0.17111  0.13039  1.0000
  C   C313      1.0  0.66217  0.20383  0.10163  1.0000
  H   H259      1.0  0.80640  0.56528  0.04127  1.0000
  C   C314      1.0  0.73036  0.06958  0.01886  1.0000
  H   H260      1.0  0.92720  0.23151  0.13163  1.0000
  H   H261      1.0  0.74693  0.22643  0.01266  1.0000
  H   H262      1.0  0.68072  0.49904  0.09842  1.0000
  C   C315      1.0  0.70349  0.18922  0.07043  1.0000
  C   C316      1.0  0.71319  0.23492  0.03542  1.0000
  P   P10       1.0  0.74477  0.11336  0.07622  1.0000
  C   C317      1.0  0.94851  0.13226  0.12975  1.0000
  C   C318      1.0  0.74465  0.42074  0.11718  1.0000
  H   H263      1.0  0.65938  0.11461  0.21324  1.0000
  C   C319      1.0  0.82486  0.12159  0.09459  1.0000
  C   C320      1.0  0.82902  0.50893  0.14922  1.0000
  H   H264      1.0  0.86196  0.54238  0.16303  1.0000
  C   C321      1.0  0.94206  0.51370  0.99060  1.0000
  C   C322      1.0  0.92612  0.07349  0.11824  1.0000
  C   C323      1.0  0.11211  0.44355  0.22020  1.0000
  H   H265      1.0  0.11343  0.49266  0.21012  1.0000
  C   C324      1.0  0.06147  0.42196  0.23586  1.0000
  H   H266      1.0  0.91281  0.11805  0.38095  1.0000
  C   C325      1.0  0.96685  0.09625  0.32602  1.0000
  C   C326      1.0  0.75942  0.21475  0.38936  1.0000
  C   C327      1.0  0.66270  0.39388  0.31162  1.0000
  C   C328      1.0  0.14635  0.50422  0.45288  1.0000
  C   C329      1.0  0.73908  0.22679  0.25923  1.0000
  C   C330      1.0  0.99959  0.12084  0.29234  1.0000
  C   C331      1.0  0.10392  0.16551  0.41085  1.0000
  C   C332      1.0  0.00381  0.18580  0.28822  1.0000
  H   H267      1.0  0.69964  0.25032  0.26896  1.0000
  S   S41       1.0  0.71406  0.43149  0.23341  1.0000
  C   C333      1.0  0.05318  0.56650  0.44865  1.0000
  C   C334      1.0  0.77077  0.23834  0.43790  1.0000
  C   C335      1.0  0.66334  0.39029  0.26024  1.0000
  S   S42       1.0  0.81925  0.41142  0.36693  1.0000
  H   H268      1.0  0.13148  0.08722  0.37011  1.0000
  H   H269      1.0  0.79705  0.27930  0.44523  1.0000
  C   C336      1.0  0.70529  0.13133  0.41830  1.0000
  S   S43       1.0  0.87894  0.36474  0.27213  1.0000
  S   S44       1.0  0.00095  0.47495  0.23872  1.0000
  C   C337      1.0  0.94275  0.20191  0.35136  1.0000
  Fe  Fe21      1.0  0.88095  0.49046  0.37356  1.0000
  P   P11       1.0  0.71533  0.12678  0.31763  1.0000
  C   C338      1.0  0.80928  0.13627  0.26416  1.0000
  C   C339      1.0  0.75825  0.16576  0.27789  1.0000
  H   H270      1.0  0.05737  0.15415  0.40350  1.0000
  Fe  Fe22      1.0  0.80400  0.43137  0.28422  1.0000
  H   H271      1.0  0.69385  0.42229  0.33522  1.0000
  H   H272      1.0  0.08809  0.25044  0.44924  1.0000
  C   C340      1.0  0.93836  0.13691  0.35539  1.0000
  H   H273      1.0  0.68035  0.08946  0.41125  1.0000
  H   H274      1.0  0.82465  0.08876  0.27611  1.0000
  H   H275      1.0  0.91736  0.15391  0.47253  1.0000
  C   C341      1.0  0.71631  0.15534  0.46678  1.0000
  H   H276      1.0  0.98028  0.27631  0.31538  1.0000
  H   H277      1.0  0.02889  0.20468  0.26201  1.0000
  H   H278      1.0  0.83096  0.08688  0.45314  1.0000
  S   S45       1.0  0.90870  0.25227  0.38936  1.0000
  H   H279      1.0  0.02020  0.34179  0.26020  1.0000
  S   S46       1.0  0.86013  0.51455  0.29139  1.0000
  Fe  Fe23      1.0  0.89817  0.35007  0.35572  1.0000
  Fe  Fe24      1.0  0.93714  0.44612  0.28689  1.0000
  C   C342      1.0  0.77136  0.25844  0.22876  1.0000
  C   C343      1.0  0.72662  0.16097  0.37913  1.0000
  H   H280      1.0  0.77746  0.23824  0.36041  1.0000
  C   C344      1.0  0.09095  0.51414  0.46738  1.0000
  S   S47       1.0  0.96234  0.42732  0.37030  1.0000
  C   C345      1.0  0.97563  0.22632  0.31784  1.0000
  C   C346      1.0  0.84187  0.16840  0.23420  1.0000
  C   C347      1.0  0.12125  0.21950  0.43701  1.0000
  S   S48       1.0  0.03578  0.07154  0.25521  1.0000
  C   C348      1.0  0.14623  0.12736  0.39236  1.0000
  C   C349      1.0  0.05953  0.35855  0.24868  1.0000
  S   S49       1.0  0.87217  0.56373  0.43046  1.0000
  H   H281      1.0  0.99993  0.29090  0.47008  1.0000
  H   H282      1.0  0.10723  0.26761  0.25605  1.0000
  C   C350      1.0  0.10838  0.31667  0.24591  1.0000
  H   H283      1.0  0.14884  0.43589  0.36178  1.0000
  C   C351      1.0  0.74930  0.20871  0.47662  1.0000
  C   C352      1.0  0.78354  0.77578  0.68845  1.0000
  C   C353      1.0  0.04671  0.63089  0.56263  1.0000
  H   H284      1.0  0.98947  0.82085  0.69016  1.0000
  C   C354      1.0  0.10800  0.04048  0.56747  1.0000
  C   C355      1.0  0.94043  0.97375  0.49831  1.0000
  C   C356      1.0  0.86268  0.62289  0.56895  1.0000
  C   C357      1.0  0.09908  0.92844  0.50463  1.0000
  C   C358      1.0  0.83337  0.84737  0.64220  1.0000
  H   H285      1.0  0.69498  0.64981  0.50326  1.0000
  C   C359      1.0  0.78029  0.85882  0.60698  1.0000
  S   S50       1.0  0.74365  0.94885  0.71213  1.0000
  C   C360      1.0  0.67313  0.66306  0.63980  1.0000
  H   H286      1.0  0.12951  0.64604  0.53831  1.0000
  C   C361      1.0  0.98964  0.01157  0.51007  1.0000
  C   C362      1.0  0.00419  0.85072  0.66290  1.0000
  C   C363      1.0  0.08411  0.66450  0.53807  1.0000
  C   C364      1.0  0.77133  0.69064  0.54810  1.0000
  H   H287      1.0  0.74789  0.73574  0.54960  1.0000
  C   C365      1.0  0.04313  0.92871  0.59299  1.0000
  P   P12       1.0  0.06105  0.97770  0.54366  1.0000
  C   C366      1.0  0.72878  0.82865  0.61228  1.0000
  C   C367      1.0  0.86322  0.05663  0.60641  1.0000
  C   C368      1.0  0.83502  0.80606  0.68292  1.0000
  H   H288      1.0  0.94614  0.92338  0.50540  1.0000
  H   H289      1.0  0.76945  0.65555  0.66399  1.0000
  C   C369      1.0  0.77186  0.58407  0.51914  1.0000
  C   C370      1.0  0.82493  0.04418  0.63941  1.0000
  H   H290      1.0  0.78527  0.74469  0.72076  1.0000
  H   H291      1.0  0.87085  0.02227  0.57906  1.0000
  H   H292      1.0  0.06468  0.58732  0.58221  1.0000
  H   H293      1.0  0.92424  0.73391  0.54133  1.0000
  H   H294      1.0  0.05756  0.77668  0.63640  1.0000
  C   C371      1.0  0.06366  0.72225  0.51442  1.0000
  H   H295      1.0  0.09290  0.74812  0.49566  1.0000
  H   H296      1.0  0.68822  0.83882  0.58464  1.0000
  P   P13       1.0  0.94136  0.61194  0.59790  1.0000
  C   C372      1.0  0.73012  0.78619  0.65276  1.0000
  C   C373      1.0  0.73676  0.56935  0.63373  1.0000
  H   H297      1.0  0.77883  0.89180  0.57599  1.0000
  H   H298      1.0  0.99005  0.00249  0.62094  1.0000
  C   C374      1.0  0.04232  0.82587  0.63264  1.0000
  H   H299      1.0  0.13902  0.05482  0.49762  1.0000
  C   C375      1.0  0.83136  0.68086  0.57228  1.0000
  C   C376      1.0  0.96837  0.71348  0.54048  1.0000
  H   H300      1.0  0.85351  0.71863  0.59324  1.0000
  H   H301      1.0  0.95910  0.93420  0.68429  1.0000
  C   C377      1.0  0.06205  0.86463  0.59801  1.0000
  P   P14       1.0  0.66456  0.74384  0.65771  1.0000
  H   H302      1.0  0.03944  0.67294  0.66136  1.0000
  C   C378      1.0  0.90545  0.63745  0.68863  1.0000
  C   C379      1.0  0.10947  0.06295  0.61610  1.0000
  H   H303      1.0  0.80281  0.00032  0.63767  1.0000
  H   H304      1.0  0.99019  0.79176  0.49719  1.0000
  H   H305      1.0  0.87604  0.79842  0.71069  1.0000
  C   C380      1.0  0.00313  0.67117  0.68139  1.0000
  C   C381      1.0  0.74149  0.64221  0.52181  1.0000
  H   H306      1.0  0.87288  0.87140  0.63843  1.0000
  H   H307      1.0  0.86661  0.61135  0.67484  1.0000
  C   C382      1.0  0.73011  0.63189  0.64735  1.0000
  H   H308      1.0  0.09146  0.84362  0.57519  1.0000
  C   C383      1.0  0.95085  0.64178  0.66063  1.0000
  C   C384      1.0  0.00588  0.74682  0.51564  1.0000
  C   C385      1.0  0.98807  0.65462  0.56353  1.0000
  C   C386      1.0  0.98670  0.91466  0.65932  1.0000
  C   C387      1.0  0.00528  0.95337  0.62403  1.0000
  H   H309      1.0  0.08793  0.03939  0.64271  1.0000
  C   C388      1.0  0.83210  0.57435  0.54262  1.0000
  C   C389      1.0  0.00878  0.69887  0.72821  1.0000
  C   C390      1.0  0.01184  0.70198  0.88924  1.0000
  C   C391      1.0  0.10923  0.91243  0.96295  1.0000
  S   S51       1.0  0.82026  0.98946  0.84938  1.0000
  H   H310      1.0  0.87531  0.66320  0.75666  1.0000
  H   H311      1.0  0.01511  0.78678  0.96644  1.0000
  C   C392      1.0  0.78465  0.78943  0.93019  1.0000
  S   S52       1.0  0.86416  0.85104  0.81061  1.0000
  H   H312      1.0  0.67454  0.71683  0.97394  1.0000
  H   H313      1.0  0.13603  0.88998  0.89313  1.0000
  C   C393      1.0  0.76312  0.69103  0.88801  1.0000
  C   C394      1.0  0.08029  0.95995  0.80031  1.0000
  H   H314      1.0  0.98317  0.74470  0.88108  1.0000
  C   C395      1.0  0.71061  0.99816  0.93162  1.0000
  C   C396      1.0  0.12297  0.88705  0.74764  1.0000
  C   C397      1.0  0.11180  0.64980  0.90835  1.0000
  C   C398      1.0  0.11912  0.00509  0.79010  1.0000
  H   H315      1.0  0.09312  0.75057  0.89812  1.0000
  H   H316      1.0  0.96556  0.72086  0.79003  1.0000
  C   C399      1.0  0.67474  0.96035  0.73174  1.0000
  H   H317      1.0  0.71066  0.94550  0.81058  1.0000
  H   H318      1.0  0.04938  0.72174  0.74385  1.0000
  H   H319      1.0  0.70450  0.97023  0.89827  1.0000
  H   H320      1.0  0.04963  0.97085  0.82529  1.0000
  S   S53       1.0  0.03479  0.84330  0.79302  1.0000
  C   C400      1.0  0.13984  0.92240  0.92385  1.0000
  Fe  Fe25      1.0  0.86535  0.89845  0.88361  1.0000
  S   S54       1.0  0.91220  0.98003  0.77117  1.0000
  C   C401      1.0  0.02327  0.58891  0.89885  1.0000
  C   C402      1.0  0.98632  0.64392  0.88909  1.0000
  H   H321      1.0  0.93792  0.64132  0.88062  1.0000
  Fe  Fe26      1.0  0.91268  0.01860  0.84750  1.0000
  H   H322      1.0  0.77243  0.65678  0.86121  1.0000
  C   C403      1.0  0.07424  0.70502  0.89873  1.0000
  C   C404      1.0  0.96179  0.69791  0.75444  1.0000
  S   S55       1.0  0.67678  0.61409  0.90872  1.0000
  S   S56       1.0  0.95810  0.93222  0.88927  1.0000
  C   C405      1.0  0.71895  0.68100  0.91638  1.0000
  C   C406      1.0  0.08262  0.90051  0.77953  1.0000
  H   H323      1.0  0.08220  0.87221  0.96262  1.0000
  C   C407      1.0  0.70740  0.72532  0.95111  1.0000
  Fe  Fe27      1.0  0.95332  0.89224  0.81305  1.0000
  C   C408      1.0  0.79573  0.74549  0.89469  1.0000
  C   C409      1.0  0.69824  0.06311  0.92817  1.0000
  H   H324      1.0  0.83118  0.75189  0.87410  1.0000
  S   S57       1.0  0.83152  0.85199  0.94610  1.0000
  C   C410      1.0  0.67134  0.95867  0.78266  1.0000
  Fe  Fe28      1.0  0.82313  0.94331  0.77628  1.0000
  C   C411      1.0  0.74012  0.77923  0.95807  1.0000
  H   H325      1.0  0.01522  0.57530  0.77988  1.0000
  H   H326      1.0  0.13577  0.72421  0.82579  1.0000
  H   H327      1.0  0.67305  0.83322  0.82633  1.0000
  H   H328      1.0  0.11905  0.04995  0.80797  1.0000
  C   C412      1.0  0.67029  0.79385  0.75311  1.0000
  C   C413      1.0  0.91047  0.66644  0.73503  1.0000
  C   C414      1.0  0.08564  0.59166  0.90863  1.0000
  H   H329      1.0  0.12415  0.84149  0.73115  1.0000
  C   C415      1.0  0.65815  0.79527  0.80171  1.0000
  H   H330      1.0  0.69415  0.83141  0.74039  1.0000
  C   C416      1.0  0.73166  0.96882  0.97841  1.0000
  C   C417      1.0  0.14724  0.00727  0.00210  1.0000
  C   C418      1.0  0.73319  0.00316  0.19897  1.0000
  C   C419      1.0  0.72711  0.85902  0.12411  1.0000
  C   C420      1.0  0.86022  0.70613  0.02002  1.0000
  C   C421      1.0  0.68501  0.82833  0.19584  1.0000
  H   H331      1.0  0.68900  0.58078  0.20330  1.0000
  C   C422      1.0  0.80410  0.71322  0.08701  1.0000
  C   C423      1.0  0.97030  0.81106  0.07693  1.0000
  H   H332      1.0  0.84864  0.02173  0.09300  1.0000
  C   C424      1.0  0.79075  0.84603  0.20656  1.0000
  C   C425      1.0  0.98084  0.82361  0.02892  1.0000
  S   S58       1.0  0.84338  0.88829  0.13133  1.0000
  H   H333      1.0  0.95632  0.03187  0.12371  1.0000
  C   C426      1.0  0.74203  0.00412  0.02167  1.0000
  C   C427      1.0  0.67407  0.98505  0.18712  1.0000
  H   H334      1.0  0.95000  0.84757  0.09653  1.0000
  H   H335      1.0  0.75893  0.97969  0.05735  1.0000
  C   C428      1.0  0.72286  0.61320  0.21784  1.0000
  C   C429      1.0  0.67439  0.63132  0.08925  1.0000
  H   H336      1.0  0.96810  0.86964  0.01130  1.0000
  H   H337      1.0  0.83466  0.69521  0.18498  1.0000
  C   C430      1.0  0.96281  0.62720  0.18021  1.0000
  P   P15       1.0  0.02644  0.62491  0.10180  1.0000
  C   C431      1.0  0.65562  0.60767  0.04113  1.0000
  C   C432      1.0  0.84704  0.64334  0.01398  1.0000
  H   H338      1.0  0.92271  0.62662  0.15136  1.0000
  C   C433      1.0  0.80420  0.67748  0.20702  1.0000
  H   H339      1.0  0.98292  0.60144  0.99393  1.0000
  H   H340      1.0  0.84431  0.79133  0.05797  1.0000
  C   C434      1.0  0.67811  0.84158  0.14432  1.0000
  H   H341      1.0  0.78374  0.74216  0.11220  1.0000
  H   H342      1.0  0.72145  0.87066  0.08443  1.0000
  C   C435      1.0  0.81612  0.61411  0.04674  1.0000
  H   H343      1.0  0.08800  0.94776  0.03180  1.0000
  Fe  Fe29      1.0  0.92165  0.88675  0.19497  1.0000
  C   C436      1.0  0.83796  0.74135  0.05603  1.0000
  C   C437      1.0  0.00673  0.77653  0.00347  1.0000
  C   C438      1.0  0.75493  0.04309  0.16619  1.0000
  H   H344      1.0  0.14126  0.06706  0.16951  1.0000
  C   C439      1.0  0.65889  0.04470  0.10885  1.0000
  C   C440      1.0  0.98406  0.75109  0.09911  1.0000
  H   H345      1.0  0.04142  0.68090  0.00542  1.0000
  H   H346      1.0  0.80105  0.05566  0.17583  1.0000
  C   C441      1.0  0.01940  0.62707  0.16693  1.0000
  C   C442      1.0  0.75907  0.63773  0.18666  1.0000
  C   C443      1.0  0.02071  0.71641  0.02549  1.0000
  C   C444      1.0  0.11258  0.95502  0.00189  1.0000
  H   H347      1.0  0.13284  0.69715  0.10901  1.0000
  S   S59       1.0  0.12115  0.77661  0.20650  1.0000
  S   S60       1.0  0.00964  0.91904  0.18355  1.0000
  H   H348      1.0  0.14890  0.04014  0.03235  1.0000
  H   H349      1.0  0.11439  0.63204  0.19574  1.0000
  C   C445      1.0  0.78314  0.86245  0.15552  1.0000
  C   C446      1.0  0.10331  0.60257  0.09969  1.0000
  P   P16       1.0  0.74984  0.61252  0.12267  1.0000
  C   C447      1.0  0.00814  0.70263  0.07307  1.0000
  C   C448      1.0  0.79547  0.64871  0.08431  1.0000
  C   C449      1.0  0.07061  0.62975  0.20485  1.0000
  H   H350      1.0  0.68563  0.57718  0.02441  1.0000
  H   H351      1.0  0.97522  0.74313  0.13636  1.0000
  H   H352      1.0  0.13987  0.69897  0.00435  1.0000
  H   H353      1.0  0.73287  0.81135  0.98701  1.0000
  H   H354      1.0  0.85897  0.61800  0.98280  1.0000
  H   H355      1.0  0.88449  0.72875  0.99478  1.0000
  C   C450      1.0  0.14601  0.64819  0.10491  1.0000
  H   H356      1.0  0.65728  0.95364  0.21217  1.0000
  C   C451      1.0  0.71770  0.06449  0.12098  1.0000
  C   C452      1.0  0.74164  0.82886  0.22666  1.0000
  C   C453      1.0  0.86475  0.06808  0.10054  1.0000
  H   H357      1.0  0.74099  0.91860  0.98133  1.0000
  C   C454      1.0  0.69547  0.99797  0.31457  1.0000
  H   H358      1.0  0.70328  0.60929  0.29208  1.0000
  S   S61       1.0  0.05850  0.89234  0.30368  1.0000
  C   C455      1.0  0.93062  0.71172  0.36111  1.0000
  H   H359      1.0  0.83411  0.84761  0.23087  1.0000
  C   C456      1.0  0.86923  0.69075  0.43911  1.0000
  H   H360      1.0  0.00671  0.62521  0.30755  1.0000
  H   H361      1.0  0.84657  0.72471  0.27268  1.0000
  H   H362      1.0  0.74723  0.81742  0.26628  1.0000
  H   H363      1.0  0.78334  0.68058  0.32743  1.0000
  H   H364      1.0  0.68222  0.89868  0.30941  1.0000
  C   C457      1.0  0.79630  0.02554  0.35041  1.0000
  S   S62       1.0  0.96109  0.80010  0.23963  1.0000
  Fe  Fe30      1.0  0.01043  0.97165  0.25426  1.0000
  H   H365      1.0  0.02085  0.91735  0.44606  1.0000
  S   S63       1.0  0.91908  0.94522  0.26218  1.0000
  H   H366      1.0  0.84569  0.68285  0.46933  1.0000
  H   H367      1.0  0.04317  0.65150  0.40342  1.0000
  H   H368      1.0  0.76283  0.98469  0.23281  1.0000
  C   C458      1.0  0.81475  0.96197  0.35689  1.0000
  H   H369      1.0  0.84580  0.97123  0.46823  1.0000
  C   C459      1.0  0.07169  0.61002  0.41676  1.0000
  Fe  Fe31      1.0  0.96621  0.86125  0.30679  1.0000
  C   C460      1.0  0.88665  0.63988  0.41235  1.0000
  C   C461      1.0  0.71394  0.93418  0.32158  1.0000
  C   C462      1.0  0.77374  0.91618  0.34236  1.0000
  C   C463      1.0  0.91462  0.76225  0.38906  1.0000
  H   H370      1.0  0.75052  0.73649  0.40314  1.0000
  C   C464      1.0  0.88286  0.75176  0.42738  1.0000
  H   H371      1.0  0.78876  0.86687  0.34654  1.0000
  H   H372      1.0  0.92940  0.61112  0.35171  1.0000
  Fe  Fe32      1.0  0.04997  0.83686  0.23312  1.0000
  H   H373      1.0  0.13930  0.63420  0.37661  1.0000
  C   C465      1.0  0.70844  0.71427  0.39235  1.0000
  C   C466      1.0  0.70671  0.64903  0.39702  1.0000
  H   H374      1.0  0.95500  0.71981  0.33139  1.0000
  C   C467      1.0  0.00982  0.62783  0.26841  1.0000
  S   S64       1.0  0.93612  0.83855  0.37925  1.0000
  H   H375      1.0  0.10587  0.63154  0.28404  1.0000
  H   H376      1.0  0.74781  0.62064  0.41090  1.0000
  H   H377      1.0  0.86129  0.94828  0.37230  1.0000
  H   H378      1.0  0.87009  0.79073  0.44891  1.0000
  H   H379      1.0  0.07076  0.83827  0.40110  1.0000
  C   C468      1.0  0.73708  0.04415  0.32785  1.0000
  C   C469      1.0  0.88341  0.00077  0.47765  1.0000
  C   C470      1.0  0.73107  0.62904  0.26837  1.0000
  H   H380      1.0  0.00993  0.57413  0.45933  1.0000
  C   C471      1.0  0.91628  0.65043  0.37261  1.0000
  H   H381      1.0  0.96396  0.04605  0.32974  1.0000
  C   C472      1.0  0.06760  0.90368  0.46025  1.0000
  C   C473      1.0  0.77583  0.66908  0.28819  1.0000
  C   C474      1.0  0.81209  0.69343  0.25748  1.0000
  C   C475      1.0  0.06587  0.63020  0.25529  1.0000
  C   C476      1.0  0.09603  0.85907  0.43414  1.0000
  C   C477      1.0  0.95824  0.62677  0.23097  1.0000
  H   H382      1.0  0.91529  0.62298  0.24161  1.0000
  H   H383      1.0  0.82876  0.06032  0.36151  1.0000
  C   C478      1.0  0.12687  0.60015  0.40195  1.0000
  C   C479      1.0  0.65659  0.75051  0.37092  1.0000
  H   H384      1.0  0.65860  0.80055  0.36441  1.0000
  C   C480      1.0  0.87497  0.06575  0.46916  1.0000
