data_image0
_chemical_formula_structural       FeS2FeS2FeHFeS3FeS2FeS2FeSFeCS2C2FeS2HCFeS2CHC8H4C6H4C6H5CH2CHC2HSHCH2C8HCSC2HC4H4CHC2HCH3C6PC3H3C11H12SPHC3SHFeCFeC2HCHCHFeHCH3CHC2H2CHPC2SHC3H4CH4CH2C3H3C3HC2H2CHS2H4CHC2HCH2C2HC2SC2H2CHC2HCHFeHC3HCH2C2H3C2PHCH2C3HC2HC2HCH2C2H2CH2C2HC4HC2H2CH2CH2CH2C7HCHC2H6CHC2H2C2HCHC2HCH3C2HC3H3CPC2HCH2C3HC5H2C4FeS2FeS2FeSFeCS2FeS2FeS2FeHFeS3FeS2FeS2CH2SHCS2C6H4C2FeCHC6H4C6H4SH6C3HSH3CH2CHC2FeCHFeCSH3FeCHC3H2CH2C2HC3H3C2HCHC3PC18HC2H8CH6CPH2SHC6PC18H13C3H2CH4C3H3CHCPH2CH2C2SCHCHCHC2HC2H2CH2CHC2HC5HCFeSFeSFeS3FeS2FeS2C4H2C6H4C6HCH4S2FeS2FeSFeS2C2H2CHC3H2CH2C3PHCHCH2CHC7PC6H5C4HCH2C3PC19HCH18C2HCHC2H4CH3CHPC5H2C3HC3HC2SCHC3H3C3HCH4CH2CHC3H2C3HC6H2C3H3C4H6CHCHCHC2HC2HCH5CH5C3HC4H2CH2CHC4PCHCHC4H2C2H2CHCH2C3HC3H2CPH2C7HC2H4CHC2H2CH2CH2C2HC4HPH2C2HC3H4CPHC3HC5HCHC2HC2H2FeS2FeSFeS3FeS2FeSFeS3HPC5H2C6H4C6H4FeS2FeS2CHC2H3C4H4C6HCH2C2HC4H3C5H2CH3CH3PC7HCH6C4PC8HCHC4H2CHCH5C2PCH2C2HC4HC4HC3HCHC2HCHC2H2CH3PC2H3C2H4C3H2C2H2CHCHC2H2C4HCH2C2HC2HCHCHC2HC2H2CH4C7H2C2HCHC2H2C6HC2HC3H4C2H2CH2FeS2FeS2FeSFeS3FeS2FeS2FeSFeS3C2H2FeS2H2C2FeS2H2CH3C6H4C6H4C6H5C3HC2HC2H2C4PHCH5CHCHC4H2C3HCHC8HC2H3CHC3H5C8PC16H6CSH10C2H2C4HPCH2C3HCHCH2CHC2HCH2CHCHC2HC5HC2HC2PCHPH2CH3C2H2C3HC4HCH4CH2CHC6H3C2HC3HCH2C2H2CH5C2HC2H2CHCHCHC3H4C3H2CHC4HCHC3H2C2HPHCH2CHCHC5H3C2H2CHCH4C2HC4H4CHCH4CH2C2HC4HC2H3CHCFeS2FeS2FeSFeS3FeS2FeS2FeSFeS3FeS2H3C3FeCSHCH3C2H2CH2CHC9H5CHC8H9SHSCH2C3H2CH3C3HCHC5PC18HC2H3CH12C3HC8H3CHC6HCH2PCHSHCH4CH2CH2CHC4HC3H3C2HC3HCH3C2HCHCPCH4C3HPCHCH
_chemical_formula_sum              "Fe64 S128 H768 C960 P32"
_cell_length_a       49.2379
_cell_length_b       45.5087
_cell_length_c       35.0815
_cell_angle_alpha    89.8994
_cell_angle_beta     90.1053
_cell_angle_gamma    89.8971

_space_group_name_H-M_alt    "P 1"
_space_group_IT_number       1

loop_
  _space_group_symop_operation_xyz
  'x, y, z'

loop_
  _atom_site_type_symbol
  _atom_site_label
  _atom_site_symmetry_multiplicity
  _atom_site_fract_x
  _atom_site_fract_y
  _atom_site_fract_z
  _atom_site_occupancy
  Fe  Fe1       1.0  0.25890  0.41472  0.32925  1.0000
  S   S1        1.0  0.26295  0.44388  0.27780  1.0000
  S   S2        1.0  0.26416  0.43005  0.39214  1.0000
  Fe  Fe2       1.0  0.25367  0.35914  0.27723  1.0000
  S   S3        1.0  0.25839  0.38594  0.22344  1.0000
  S   S4        1.0  0.24111  0.31163  0.26455  1.0000
  Fe  Fe3       1.0  0.29203  0.40965  0.25449  1.0000
  H   H1        1.0  0.17795  0.08655  0.29954  1.0000
  Fe  Fe4       1.0  0.22891  0.41705  0.25138  1.0000
  S   S5        1.0  0.19228  0.43811  0.22054  1.0000
  S   S6        1.0  0.28896  0.38096  0.30684  1.0000
  S   S7        1.0  0.22317  0.38977  0.30428  1.0000
  Fe  Fe5       1.0  0.26027  0.07558  0.32079  1.0000
  S   S8        1.0  0.25645  0.06078  0.25878  1.0000
  S   S9        1.0  0.25126  0.04998  0.37772  1.0000
  Fe  Fe6       1.0  0.27082  0.14005  0.29531  1.0000
  S   S10       1.0  0.26682  0.12898  0.23369  1.0000
  S   S11       1.0  0.28451  0.18542  0.31561  1.0000
  Fe  Fe7       1.0  0.23061  0.10130  0.24959  1.0000
  S   S12       1.0  0.19482  0.10875  0.20772  1.0000
  Fe  Fe8       1.0  0.29317  0.08975  0.24657  1.0000
  C   C1        1.0  0.20860  0.23942  0.14651  1.0000
  S   S13       1.0  0.23296  0.11537  0.31129  1.0000
  S   S14       1.0  0.29857  0.10184  0.30857  1.0000
  C   C2        1.0  0.14943  0.18639  0.06883  1.0000
  C   C3        1.0  0.09661  0.25332  0.08787  1.0000
  Fe  Fe9       1.0  0.03990  0.08137  0.13009  1.0000
  S   S15       1.0  0.07394  0.06392  0.16957  1.0000
  S   S16       1.0  0.04331  0.10228  0.07207  1.0000
  H   H2        1.0  0.18349  0.03352  0.28712  1.0000
  C   C4        1.0  0.18236  0.02102  0.34666  1.0000
  Fe  Fe10      1.0  0.04384  0.39072  0.12608  1.0000
  S   S17       1.0  0.08466  0.37704  0.15355  1.0000
  S   S18       1.0  0.03619  0.38544  0.06271  1.0000
  C   C5        1.0  0.11113  0.39373  0.05569  1.0000
  H   H3        1.0  0.17449  0.10473  0.36561  1.0000
  C   C6        1.0  0.01612  0.99840  0.98265  1.0000
  C   C7        1.0  0.12260  0.27682  0.13791  1.0000
  C   C8        1.0  0.16184  0.09452  0.19655  1.0000
  C   C9        1.0  0.14865  0.07373  0.21935  1.0000
  C   C10       1.0  0.12192  0.06463  0.21054  1.0000
  C   C11       1.0  0.10784  0.07612  0.17883  1.0000
  C   C12       1.0  0.12118  0.09651  0.15559  1.0000
  C   C13       1.0  0.14795  0.10559  0.16440  1.0000
  H   H4        1.0  0.15897  0.06458  0.24371  1.0000
  H   H5        1.0  0.11202  0.04860  0.22853  1.0000
  H   H6        1.0  0.11089  0.10522  0.13071  1.0000
  H   H7        1.0  0.15798  0.12128  0.14604  1.0000
  C   C14       1.0  0.11429  0.39481  0.17204  1.0000
  C   C15       1.0  0.13550  0.37743  0.18713  1.0000
  C   C16       1.0  0.15944  0.39024  0.20179  1.0000
  C   C17       1.0  0.16255  0.42078  0.20187  1.0000
  C   C18       1.0  0.14134  0.43823  0.18691  1.0000
  C   C19       1.0  0.11736  0.42537  0.17217  1.0000
  H   H8        1.0  0.13338  0.35389  0.18821  1.0000
  H   H9        1.0  0.17539  0.37651  0.21345  1.0000
  H   H10       1.0  0.14346  0.46187  0.18689  1.0000
  H   H11       1.0  0.10130  0.43903  0.16077  1.0000
  C   C20       1.0  0.25528  0.27709  0.27735  1.0000
  C   C21       1.0  0.27530  0.27408  0.30541  1.0000
  C   C22       1.0  0.28411  0.24584  0.31662  1.0000
  C   C23       1.0  0.27311  0.22041  0.29986  1.0000
  C   C24       1.0  0.25359  0.22347  0.27114  1.0000
  C   C25       1.0  0.24487  0.25167  0.25990  1.0000
  H   H12       1.0  0.28347  0.29343  0.31913  1.0000
  H   H13       1.0  0.29932  0.24368  0.33875  1.0000
  H   H14       1.0  0.24521  0.20413  0.25767  1.0000
  H   H15       1.0  0.22991  0.25387  0.23761  1.0000
  H   H16       1.0  0.13743  0.36314  0.08478  1.0000
  C   C26       1.0  0.25985  0.46240  0.42128  1.0000
  H   H17       1.0  0.15575  0.32257  0.24253  1.0000
  H   H18       1.0  0.16780  0.40186  0.11024  1.0000
  C   C27       1.0  0.25309  0.01958  0.41135  1.0000
  H   H19       1.0  0.18581  0.23492  0.22767  1.0000
  C   C28       1.0  0.22417  0.11987  0.42595  1.0000
  C   C29       1.0  0.09036  0.29676  0.40989  1.0000
  H   H20       1.0  0.15841  0.45389  0.09684  1.0000
  S   S19       1.0  0.32480  0.08367  0.19834  1.0000
  H   H21       1.0  0.04190  0.24376  0.12738  1.0000
  C   C30       1.0  0.14881  0.16173  0.34091  1.0000
  H   H22       1.0  0.32192  0.04362  0.12394  1.0000
  H   H23       1.0  0.19162  0.28894  0.22092  1.0000
  C   C31       1.0  0.21233  0.16770  0.39957  1.0000
  C   C32       1.0  0.17341  0.17736  0.34090  1.0000
  C   C33       1.0  0.18892  0.17850  0.30743  1.0000
  C   C34       1.0  0.17948  0.16518  0.27412  1.0000
  C   C35       1.0  0.15461  0.15047  0.27396  1.0000
  C   C36       1.0  0.13935  0.14859  0.30738  1.0000
  C   C37       1.0  0.13378  0.38596  0.07757  1.0000
  C   C38       1.0  0.23971  0.17211  0.39019  1.0000
  H   H24       1.0  0.08877  0.13656  0.21084  1.0000
  C   C39       1.0  0.99713  0.27880  0.06848  1.0000
  S   S20       1.0  0.00285  0.05421  0.11432  1.0000
  C   C40       1.0  0.01504  0.22137  0.08850  1.0000
  C   C41       1.0  0.20037  0.22963  0.37480  1.0000
  H   H25       1.0  0.08748  0.42904  0.03205  1.0000
  C   C42       1.0  0.17828  0.07113  0.32314  1.0000
  C   C43       1.0  0.22042  0.28651  0.36202  1.0000
  C   C44       1.0  0.20107  0.27461  0.33735  1.0000
  C   C45       1.0  0.19096  0.24635  0.34376  1.0000
  H   H26       1.0  0.20864  0.18910  0.30733  1.0000
  H   H27       1.0  0.19185  0.16548  0.24868  1.0000
  H   H28       1.0  0.14756  0.13985  0.24813  1.0000
  H   H29       1.0  0.12049  0.13633  0.30739  1.0000
  C   C46       1.0  0.12336  0.44529  0.06092  1.0000
  H   H30       1.0  0.24606  0.19165  0.37508  1.0000
  C   C47       1.0  0.31342  0.19311  0.21415  1.0000
  C   C48       1.0  0.09210  0.22081  0.19359  1.0000
  H   H31       1.0  0.13616  0.27574  0.16222  1.0000
  C   C49       1.0  0.17630  0.08141  0.36047  1.0000
  H   H32       1.0  0.22873  0.30815  0.35633  1.0000
  H   H33       1.0  0.19452  0.28718  0.31270  1.0000
  H   H34       1.0  0.17598  0.23763  0.32432  1.0000
  C   C50       1.0  0.05220  0.30513  0.18958  1.0000
  C   C51       1.0  0.03076  0.28799  0.20306  1.0000
  C   C52       1.0  0.03101  0.27795  0.24076  1.0000
  C   C53       1.0  0.05260  0.28528  0.26504  1.0000
  C   C54       1.0  0.07381  0.30324  0.25183  1.0000
  C   C55       1.0  0.07369  0.31248  0.21371  1.0000
  P   P1        1.0  0.10297  0.31152  0.28118  1.0000
  C   C56       1.0  0.11163  0.35009  0.27994  1.0000
  C   C57       1.0  0.09740  0.30406  0.33104  1.0000
  C   C58       1.0  0.07369  0.31423  0.34885  1.0000
  H   H35       1.0  0.22154  0.25779  0.13900  1.0000
  H   H36       1.0  0.01445  0.26445  0.25102  1.0000
  H   H37       1.0  0.32676  0.14912  0.22764  1.0000
  C   C59       1.0  0.11788  0.29086  0.35324  1.0000
  C   C60       1.0  0.13595  0.35970  0.29682  1.0000
  C   C61       1.0  0.14249  0.38959  0.29719  1.0000
  C   C62       1.0  0.30690  0.31775  0.20730  1.0000
  C   C63       1.0  0.09347  0.37101  0.26493  1.0000
  C   C64       1.0  0.12949  0.28784  0.26359  1.0000
  C   C65       1.0  0.12619  0.25728  0.26655  1.0000
  C   C66       1.0  0.14631  0.23827  0.25318  1.0000
  C   C67       1.0  0.16998  0.24968  0.23715  1.0000
  C   C68       1.0  0.17321  0.28006  0.23340  1.0000
  C   C69       1.0  0.15291  0.29915  0.24621  1.0000
  H   H38       1.0  0.05216  0.31314  0.16047  1.0000
  H   H39       1.0  0.12195  0.13807  0.00557  1.0000
  H   H40       1.0  0.21201  0.17141  0.18660  1.0000
  H   H41       1.0  0.05271  0.27675  0.29382  1.0000
  H   H42       1.0  0.09015  0.32573  0.20268  1.0000
  H   H43       1.0  0.05824  0.32570  0.33251  1.0000
  H   H44       1.0  0.09576  0.22402  0.42814  1.0000
  H   H45       1.0  0.13697  0.28422  0.34060  1.0000
  H   H46       1.0  0.15002  0.34413  0.30940  1.0000
  H   H47       1.0  0.07430  0.36456  0.25241  1.0000
  H   H48       1.0  0.10800  0.24815  0.27918  1.0000
  H   H49       1.0  0.14362  0.21470  0.25533  1.0000
  S   S21       1.0  0.02859  0.18622  0.10041  1.0000
  P   P2        1.0  0.18671  0.19351  0.38397  1.0000
  H   H50       1.0  0.02603  0.29394  0.10973  1.0000
  C   C70       1.0  0.01707  0.27490  0.09645  1.0000
  C   C71       1.0  0.02605  0.24640  0.10625  1.0000
  C   C72       1.0  0.11432  0.28721  0.39250  1.0000
  S   S22       1.0  0.01407  0.11764  0.15304  1.0000
  H   H51       1.0  0.16840  0.19762  0.07419  1.0000
  Fe  Fe11      1.0  0.00493  0.07711  0.05689  1.0000
  C   C73       1.0  0.08557  0.28054  0.07755  1.0000
  Fe  Fe12      1.0  0.00792  0.42472  0.06739  1.0000
  C   C74       1.0  0.18096  0.24003  0.13706  1.0000
  C   C75       1.0  0.11564  0.25127  0.11773  1.0000
  H   H52       1.0  0.05178  0.31833  0.40169  1.0000
  C   C76       1.0  0.14773  0.16727  0.03772  1.0000
  H   H53       1.0  0.16527  0.16375  0.01970  1.0000
  C   C77       1.0  0.16072  0.19867  0.41948  1.0000
  H   H54       1.0  0.08439  0.32700  0.08946  1.0000
  Fe  Fe13      1.0  0.01550  0.13789  0.09479  1.0000
  H   H55       1.0  0.32679  0.46771  0.42013  1.0000
  C   C78       1.0  0.07008  0.31028  0.38808  1.0000
  H   H56       1.0  0.28014  0.15388  0.39058  1.0000
  H   H57       1.0  0.16163  0.39690  0.30914  1.0000
  H   H58       1.0  0.13720  0.15904  0.36682  1.0000
  C   C79       1.0  0.15096  0.40776  0.09175  1.0000
  H   H59       1.0  0.13044  0.27763  0.40958  1.0000
  C   C80       1.0  0.22948  0.27025  0.39341  1.0000
  C   C81       1.0  0.13539  0.21038  0.40893  1.0000
  H   H60       1.0  0.01398  0.28257  0.18425  1.0000
  H   H61       1.0  0.08472  0.17937  0.10188  1.0000
  C   C82       1.0  0.00020  0.19901  0.19115  1.0000
  H   H62       1.0  0.27796  0.00072  0.29003  1.0000
  P   P3        1.0  0.12861  0.21576  0.13254  1.0000
  C   C83       1.0  0.12464  0.41015  0.28137  1.0000
  C   C84       1.0  0.11183  0.30403  0.12702  1.0000
  S   S23       1.0  0.01753  0.43128  0.13036  1.0000
  H   H63       1.0  0.02054  0.20632  0.18419  1.0000
  C   C85       1.0  0.12681  0.19081  0.09253  1.0000
  C   C86       1.0  0.14560  0.43734  0.08391  1.0000
  C   C87       1.0  0.18147  0.04110  0.31623  1.0000
  H   H64       1.0  0.01383  0.16053  0.22148  1.0000
  H   H65       1.0  0.13019  0.43320  0.28064  1.0000
  H   H66       1.0  0.13109  0.21564  0.37939  1.0000
  H   H67       1.0  0.30592  0.23792  0.19736  1.0000
  C   C88       1.0  0.25914  0.15064  0.39882  1.0000
  H   H68       1.0  0.31955  0.31665  0.26579  1.0000
  H   H69       1.0  0.06165  0.17034  0.25122  1.0000
  H   H70       1.0  0.10223  0.99643  0.25841  1.0000
  H   H71       1.0  0.07060  0.28184  0.05487  1.0000
  C   C89       1.0  0.23941  0.02143  0.44668  1.0000
  H   H72       1.0  0.24463  0.27949  0.41234  1.0000
  H   H73       1.0  0.32596  0.07307  0.06479  1.0000
  C   C90       1.0  0.20319  0.19095  0.17373  1.0000
  C   C91       1.0  0.32489  0.49013  0.40997  1.0000
  C   C92       1.0  0.09324  0.30591  0.09704  1.0000
  H   H74       1.0  0.08972  0.23397  0.07284  1.0000
  H   H75       1.0  0.21831  0.09920  0.43888  1.0000
  H   H76       1.0  0.16320  0.17281  0.17220  1.0000
  C   C93       1.0  0.25136  0.12446  0.41647  1.0000
  C   C94       1.0  0.10073  0.15740  0.05288  1.0000
  C   C95       1.0  0.17540  0.19184  0.16538  1.0000
  H   H77       1.0  0.30373  0.47746  0.35878  1.0000
  C   C96       1.0  0.21932  0.24200  0.40002  1.0000
  C   C97       1.0  0.10778  0.20181  0.17096  1.0000
  H   H78       1.0  0.24122  0.21417  0.17154  1.0000
  H   H79       1.0  0.08169  0.14660  0.04646  1.0000
  C   C98       1.0  0.10248  0.17613  0.08428  1.0000
  H   H80       1.0  0.18357  0.13703  0.42396  1.0000
  S   S24       1.0  0.00416  0.46661  0.02881  1.0000
  S   S25       1.0  0.99761  0.05629  0.99672  1.0000
  H   H81       1.0  0.08646  0.41680  0.25260  1.0000
  H   H82       1.0  0.06333  0.22414  0.23956  1.0000
  H   H83       1.0  0.09219  0.24428  0.18872  1.0000
  H   H84       1.0  0.23147  0.01536  0.30708  1.0000
  C   C99       1.0  0.10007  0.40088  0.26550  1.0000
  H   H85       1.0  0.29451  0.19096  0.22960  1.0000
  C   C100      1.0  0.16394  0.21650  0.14719  1.0000
  C   C101      1.0  0.10831  0.47134  0.97556  1.0000
  H   H86       1.0  0.11748  0.32376  0.14209  1.0000
  C   C102      1.0  0.21972  0.21487  0.16478  1.0000
  H   H87       1.0  0.29995  0.31855  0.14675  1.0000
  H   H88       1.0  0.16961  0.01632  0.95684  1.0000
  C   C103      1.0  0.18044  0.03155  0.38417  1.0000
  C   C104      1.0  0.10571  0.42331  0.04777  1.0000
  H   H89       1.0  0.18170  0.01679  0.40827  1.0000
  C   C105      1.0  0.07469  0.17919  0.22920  1.0000
  C   C106      1.0  0.12337  0.15279  0.02973  1.0000
  S   S26       1.0  0.00927  0.36081  0.14295  1.0000
  C   C107      1.0  0.07568  0.20948  0.22263  1.0000
  C   C108      1.0  0.09005  0.16018  0.20665  1.0000
  H   H90       1.0  0.24174  0.48991  0.37826  1.0000
  H   H91       1.0  0.28590  0.32233  0.21430  1.0000
  C   C109      1.0  0.09090  0.49252  0.08982  1.0000
  H   H92       1.0  0.11774  0.15646  0.15997  1.0000
  C   C110      1.0  0.17740  0.06165  0.39098  1.0000
  C   C111      1.0  0.20467  0.14135  0.41747  1.0000
  H   H93       1.0  0.26628  0.10736  0.42192  1.0000
  C   C112      1.0  0.10652  0.17147  0.17777  1.0000
  H   H94       1.0  0.17323  0.25859  0.12108  1.0000
  Fe  Fe14      1.0  0.00034  0.35771  0.08058  1.0000
  H   H95       1.0  0.02275  0.99794  0.01206  1.0000
  C   C113      1.0  0.31482  0.31551  0.16922  1.0000
  C   C114      1.0  0.00724  0.48430  0.98278  1.0000
  C   C115      1.0  0.11542  0.21541  0.43650  1.0000
  H   H96       1.0  0.12109  0.45228  0.98008  1.0000
  C   C116      1.0  0.24849  0.48867  0.40757  1.0000
  H   H97       1.0  0.09731  0.37688  0.04585  1.0000
  H   H98       1.0  0.17643  0.06959  0.41999  1.0000
  C   C117      1.0  0.00375  0.02388  0.96819  1.0000
  C   C118      1.0  0.06299  0.49279  0.08181  1.0000
  H   H99       1.0  0.08778  0.29429  0.44041  1.0000
  H   H100      1.0  0.13066  0.00335  0.31580  1.0000
  H   H101      1.0  0.22648  0.22974  0.42456  1.0000
  C   C119      1.0  0.31986  0.21949  0.19584  1.0000
  C   C120      1.0  0.32611  0.31465  0.23642  1.0000
  P   P4        1.0  0.11511  0.48348  0.05317  1.0000
  H   H102      1.0  0.17082  0.47530  0.02641  1.0000
  C   C121      1.0  0.10185  0.49020  0.00589  1.0000
  H   H103      1.0  0.05555  0.48775  0.05354  1.0000
  H   H104      1.0  0.27267  0.48518  0.51314  1.0000
  C   C122      1.0  0.24015  0.99803  0.47372  1.0000
  C   C123      1.0  0.01444  0.45036  0.57883  1.0000
  C   C124      1.0  0.16638  0.19376  0.45822  1.0000
  H   H105      1.0  0.01646  0.02213  0.79854  1.0000
  C   C125      1.0  0.15290  0.02213  0.90050  1.0000
  C   C126      1.0  0.07272  0.00109  0.84809  1.0000
  H   H106      1.0  0.02375  0.47216  0.88933  1.0000
  C   C127      1.0  0.01552  0.46935  0.94984  1.0000
  C   C128      1.0  0.03147  0.48970  0.71835  1.0000
  H   H107      1.0  0.08195  0.00437  0.87576  1.0000
  C   C129      1.0  0.03629  0.44637  0.60382  1.0000
  H   H108      1.0  0.10295  0.46221  0.91570  1.0000
  H   H109      1.0  0.10545  0.21344  0.49629  1.0000
  C   C130      1.0  0.13962  0.00865  0.86991  1.0000
  C   C131      1.0  0.15947  0.00582  0.93305  1.0000
  H   H110      1.0  0.27737  0.44163  0.47085  1.0000
  H   H111      1.0  0.02057  0.44625  0.95172  1.0000
  C   C132      1.0  0.04842  0.01572  0.83974  1.0000
  H   H112      1.0  0.03941  0.03021  0.86072  1.0000
  H   H113      1.0  0.22951  0.00014  0.50052  1.0000
  C   C133      1.0  0.03543  0.01109  0.80482  1.0000
  C   C134      1.0  0.03230  0.48215  0.75704  1.0000
  H   H114      1.0  0.15081  0.19477  0.51558  1.0000
  C   C135      1.0  0.00118  0.47752  0.57705  1.0000
  C   C136      1.0  0.12089  0.20952  0.47488  1.0000
  C   C137      1.0  0.14641  0.19889  0.48574  1.0000
  C   C138      1.0  0.04477  0.46944  0.62726  1.0000
  H   H115      1.0  0.13461  0.02151  0.84483  1.0000
  C   C139      1.0  0.26852  0.46164  0.45966  1.0000
  C   C140      1.0  0.01728  0.48421  0.91426  1.0000
  H   H116      1.0  0.01964  0.47629  0.69910  1.0000
  H   H117      1.0  0.02140  0.46306  0.76728  1.0000
  C   C141      1.0  0.09830  0.47704  0.93891  1.0000
  H   H118      1.0  0.04681  0.42544  0.60487  1.0000
  H   H119      1.0  0.18623  0.18615  0.46731  1.0000
  C   C142      1.0  0.26592  0.48644  0.48384  1.0000
  H   H120      1.0  0.00797  0.43250  0.56056  1.0000
  H   H121      1.0  0.06194  0.46618  0.64621  1.0000
  C   C143      1.0  0.99881  0.99840  0.90627  1.0000
  H   H122      1.0  0.15801  0.04525  0.89901  1.0000
  H   H123      1.0  0.22821  0.04120  0.45335  1.0000
  C   C144      1.0  0.19233  0.95769  0.40880  1.0000
  C   C145      1.0  0.15552  0.95266  0.23418  1.0000
  C   C146      1.0  0.12154  0.98507  0.26091  1.0000
  C   C147      1.0  0.26756  0.99362  0.40388  1.0000
  C   C148      1.0  0.19162  0.54148  0.06031  1.0000
  C   C149      1.0  0.26792  0.97006  0.43056  1.0000
  C   C150      1.0  0.25462  0.93466  0.32134  1.0000
  H   H124      1.0  0.20968  0.55499  0.06217  1.0000
  C   C151      1.0  0.18460  0.94190  0.44118  1.0000
  H   H125      1.0  0.26139  0.91228  0.32600  1.0000
  C   C152      1.0  0.14376  0.53411  0.07311  1.0000
  C   C153      1.0  0.26393  0.98442  0.30091  1.0000
  H   H126      1.0  0.21441  0.92637  0.34210  1.0000
  H   H127      1.0  0.13360  0.95200  0.35770  1.0000
  H   H128      1.0  0.02272  0.49878  0.10396  1.0000
  H   H129      1.0  0.12014  0.92420  0.41505  1.0000
  H   H130      1.0  0.19129  0.94559  0.26784  1.0000
  H   H131      1.0  0.21187  0.50620  0.03086  1.0000
  C   C154      1.0  0.17415  0.96156  0.37833  1.0000
  H   H132      1.0  0.16603  0.57305  0.08860  1.0000
  C   C155      1.0  0.16705  0.55161  0.07529  1.0000
  C   C156      1.0  0.07617  0.52103  0.96201  1.0000
  H   H133      1.0  0.08785  0.50616  0.18530  1.0000
  H   H134      1.0  0.29740  0.52864  0.33631  1.0000
  C   C157      1.0  0.21937  0.97202  0.32585  1.0000
  C   C158      1.0  0.22806  0.94281  0.33072  1.0000
  H   H135      1.0  0.12482  0.54252  0.08435  1.0000
  C   C159      1.0  0.31178  0.49562  0.37533  1.0000
  H   H136      1.0  0.23688  0.53345  0.42068  1.0000
  C   C160      1.0  0.08619  0.51545  0.99864  1.0000
  C   C161      1.0  0.27256  0.95547  0.30642  1.0000
  H   H137      1.0  0.03853  0.50793  0.17027  1.0000
  C   C162      1.0  0.14802  0.94940  0.38074  1.0000
  H   H138      1.0  0.27906  0.95025  0.42381  1.0000
  H   H139      1.0  0.08149  0.53073  0.02132  1.0000
  H   H140      1.0  0.11808  0.96445  0.20593  1.0000
  C   C163      1.0  0.28978  0.59260  0.44917  1.0000
  C   C164      1.0  0.16306  0.97485  0.29628  1.0000
  H   H141      1.0  0.21251  0.96703  0.40759  1.0000
  C   C165      1.0  0.31720  0.60099  0.44949  1.0000
  C   C166      1.0  0.24580  0.51347  0.43181  1.0000
  C   C167      1.0  0.08092  0.50297  0.15626  1.0000
  H   H142      1.0  0.12114  0.49578  0.13451  1.0000
  H   H143      1.0  0.02945  0.95396  0.97101  1.0000
  H   H144      1.0  0.28417  0.56981  0.44539  1.0000
  C   C168      1.0  0.30813  0.52450  0.36278  1.0000
  P   P5        1.0  0.18474  0.98211  0.33683  1.0000
  C   C169      1.0  0.14504  0.50613  0.05640  1.0000
  C   C170      1.0  0.14030  0.93359  0.41324  1.0000
  H   H145      1.0  0.16250  0.93883  0.21106  1.0000
  C   C171      1.0  0.19286  0.51397  0.04271  1.0000
  H   H146      1.0  0.29324  0.94929  0.29960  1.0000
  H   H147      1.0  0.15816  0.96332  0.96008  1.0000
  C   C172      1.0  0.04424  0.49890  0.11057  1.0000
  C   C173      1.0  0.01987  0.97334  0.95915  1.0000
  C   C174      1.0  0.17179  0.95653  0.26653  1.0000
  H   H148      1.0  0.31448  0.57021  0.37481  1.0000
  C   C175      1.0  0.05317  0.50393  0.14783  1.0000
  C   C176      1.0  0.09975  0.49719  0.12739  1.0000
  C   C177      1.0  0.00076  0.51443  0.97911  1.0000
  C   C178      1.0  0.15859  0.92984  0.44344  1.0000
  C   C179      1.0  0.31773  0.54793  0.38475  1.0000
  H   H149      1.0  0.06345  0.54009  0.95671  1.0000
  H   H150      1.0  0.27866  0.99164  0.37752  1.0000
  C   C180      1.0  0.13048  0.96703  0.23129  1.0000
  C   C181      1.0  0.13771  0.98894  0.29333  1.0000
  C   C182      1.0  0.23746  0.99269  0.31063  1.0000
  C   C183      1.0  0.16961  0.49645  0.04045  1.0000
  Fe  Fe15      1.0  0.24894  0.91969  0.55898  1.0000
  S   S27       1.0  0.24205  0.94465  0.61425  1.0000
  S   S28       1.0  0.25506  0.94057  0.49815  1.0000
  Fe  Fe16      1.0  0.25265  0.85944  0.60195  1.0000
  S   S29       1.0  0.24607  0.88258  0.65747  1.0000
  S   S30       1.0  0.25940  0.81134  0.62051  1.0000
  Fe  Fe17      1.0  0.21249  0.90807  0.62964  1.0000
  S   S31       1.0  0.17560  0.90296  0.67012  1.0000
  Fe  Fe18      1.0  0.27605  0.91620  0.63816  1.0000
  C   C184      1.0  0.12513  0.53508  0.64082  1.0000
  S   S32       1.0  0.21790  0.88391  0.57385  1.0000
  S   S33       1.0  0.28414  0.89260  0.58321  1.0000
  Fe  Fe19      1.0  0.25404  0.57213  0.55560  1.0000
  S   S34       1.0  0.25658  0.55872  0.61771  1.0000
  S   S35       1.0  0.25011  0.54469  0.49985  1.0000
  Fe  Fe20      1.0  0.25174  0.63801  0.57756  1.0000
  S   S36       1.0  0.25329  0.62876  0.64035  1.0000
  S   S37       1.0  0.25028  0.68290  0.54814  1.0000
  Fe  Fe21      1.0  0.28639  0.59615  0.62595  1.0000
  H   H151      1.0  0.04041  0.78881  0.69909  1.0000
  Fe  Fe22      1.0  0.22346  0.59230  0.62846  1.0000
  S   S38       1.0  0.19026  0.57864  0.67123  1.0000
  S   S39       1.0  0.28615  0.60732  0.56322  1.0000
  S   S40       1.0  0.21944  0.60391  0.56629  1.0000
  Fe  Fe23      1.0  0.03667  0.60679  0.75989  1.0000
  S   S41       1.0  0.04317  0.60914  0.82336  1.0000
  S   S42       1.0  0.06852  0.61702  0.71353  1.0000
  Fe  Fe24      1.0  0.02185  0.91799  0.74845  1.0000
  S   S43       1.0  0.03669  0.89371  0.79998  1.0000
  S   S44       1.0  0.05034  0.93521  0.70156  1.0000
  C   C185      1.0  0.13932  0.96258  0.79322  1.0000
  H   H152      1.0  0.12435  0.90448  0.79509  1.0000
  H   H153      1.0  0.03639  0.98751  0.75151  1.0000
  S   S45       1.0  0.32119  0.59602  0.67042  1.0000
  H   H154      1.0  0.01538  0.63083  0.64847  1.0000
  C   C186      1.0  0.11205  0.90134  0.82024  1.0000
  S   S46       1.0  0.01635  0.94012  0.89271  1.0000
  S   S47       1.0  0.01375  0.68715  0.85383  1.0000
  C   C187      1.0  0.15695  0.59097  0.68344  1.0000
  C   C188      1.0  0.14427  0.57904  0.71594  1.0000
  C   C189      1.0  0.11744  0.58689  0.72590  1.0000
  C   C190      1.0  0.10276  0.60671  0.70327  1.0000
  C   C191      1.0  0.11553  0.61887  0.67100  1.0000
  C   C192      1.0  0.14247  0.61121  0.66122  1.0000
  H   H155      1.0  0.15524  0.56336  0.73336  1.0000
  H   H156      1.0  0.10814  0.57748  0.75098  1.0000
  H   H157      1.0  0.10441  0.63412  0.65320  1.0000
  H   H158      1.0  0.15182  0.62038  0.63602  1.0000
  C   C193      1.0  0.12674  0.55078  0.60669  1.0000
  C   C194      1.0  0.00820  0.77826  0.79600  1.0000
  Fe  Fe25      1.0  0.00976  0.64322  0.82272  1.0000
  C   C195      1.0  0.02795  0.83042  0.67667  1.0000
  H   H159      1.0  0.30979  0.88009  0.73839  1.0000
  C   C196      1.0  0.14073  0.91237  0.67797  1.0000
  C   C197      1.0  0.12699  0.89963  0.70911  1.0000
  C   C198      1.0  0.09947  0.90633  0.71677  1.0000
  C   C199      1.0  0.08528  0.92618  0.69358  1.0000
  C   C200      1.0  0.09903  0.93901  0.66254  1.0000
  C   C201      1.0  0.12649  0.93211  0.65467  1.0000
  H   H160      1.0  0.13774  0.88443  0.72745  1.0000
  H   H161      1.0  0.08917  0.89601  0.74045  1.0000
  H   H162      1.0  0.08832  0.95434  0.64430  1.0000
  H   H163      1.0  0.13667  0.94218  0.63070  1.0000
  C   C202      1.0  0.25531  0.77598  0.59982  1.0000
  C   C203      1.0  0.25792  0.75106  0.62338  1.0000
  C   C204      1.0  0.25627  0.72241  0.60824  1.0000
  C   C205      1.0  0.25184  0.71839  0.56919  1.0000
  C   C206      1.0  0.24885  0.74333  0.54572  1.0000
  C   C207      1.0  0.25051  0.77197  0.56091  1.0000
  H   H164      1.0  0.26159  0.75397  0.65348  1.0000
  H   H165      1.0  0.25881  0.70350  0.62664  1.0000
  H   H166      1.0  0.24542  0.74048  0.51548  1.0000
  H   H167      1.0  0.24851  0.79090  0.54240  1.0000
  S   S48       1.0  0.01416  0.53199  0.86449  1.0000
  H   H168      1.0  0.21534  0.68427  0.66323  1.0000
  H   H169      1.0  0.15370  0.64014  0.74996  1.0000
  H   H170      1.0  0.13005  0.69320  0.68977  1.0000
  H   H171      1.0  0.11210  0.62958  0.78663  1.0000
  H   H172      1.0  0.20013  0.93198  0.76817  1.0000
  H   H173      1.0  0.20027  0.80120  0.61498  1.0000
  C   C208      1.0  0.10300  0.55877  0.58738  1.0000
  C   C209      1.0  0.32384  0.82047  0.68377  1.0000
  C   C210      1.0  0.03607  0.85688  0.66007  1.0000
  H   H174      1.0  0.29306  0.85382  0.68140  1.0000
  S   S49       1.0  0.00485  0.64229  0.75967  1.0000
  H   H175      1.0  0.07023  0.53901  0.79030  1.0000
  H   H176      1.0  0.07408  0.50612  0.90391  1.0000
  H   H177      1.0  0.30709  0.55888  0.51103  1.0000
  C   C211      1.0  0.04724  0.80888  0.68555  1.0000
  H   H178      1.0  0.07813  0.75994  0.62505  1.0000
  H   H179      1.0  0.11893  0.68624  0.62201  1.0000
  C   C212      1.0  0.25435  0.97189  0.46594  1.0000
  H   H180      1.0  0.00907  0.79538  0.85310  1.0000
  C   C213      1.0  0.06342  0.86161  0.65181  1.0000
  C   C214      1.0  0.10455  0.92520  0.84328  1.0000
  Fe  Fe26      1.0  0.00559  0.92057  0.83311  1.0000
  C   C215      1.0  0.31675  0.73190  0.68938  1.0000
  H   H181      1.0  0.02133  0.87407  0.65433  1.0000
  Fe  Fe27      1.0  0.00304  0.86142  0.78762  1.0000
  C   C216      1.0  0.31045  0.84548  0.69682  1.0000
  S   S50       1.0  0.30778  0.93127  0.68259  1.0000
  H   H182      1.0  0.16745  0.93321  0.82171  1.0000
  H   H183      1.0  0.01047  0.70511  0.77360  1.0000
  H   H184      1.0  0.06363  0.88891  0.90588  1.0000
  Fe  Fe28      1.0  0.00937  0.57541  0.82887  1.0000
  C   C217      1.0  0.29343  0.72677  0.71109  1.0000
  H   H185      1.0  0.18399  0.83999  0.65870  1.0000
  C   C218      1.0  0.05904  0.53254  0.73146  1.0000
  C   C219      1.0  0.10284  0.87305  0.82875  1.0000
  C   C220      1.0  0.01887  0.55627  0.65646  1.0000
  H   H186      1.0  0.31521  0.54367  0.57743  1.0000
  H   H187      1.0  0.07971  0.93877  0.89108  1.0000
  C   C221      1.0  0.01123  0.74777  0.85295  1.0000
  H   H188      1.0  0.31479  0.75010  0.61361  1.0000
  H   H189      1.0  0.24825  0.60624  0.45641  1.0000
  C   C222      1.0  0.01022  0.72459  0.79109  1.0000
  C   C223      1.0  0.01157  0.72199  0.83079  1.0000
  H   H190      1.0  0.08651  0.66991  0.81751  1.0000
  C   C224      1.0  0.05994  0.52488  0.77006  1.0000
  C   C225      1.0  0.01096  0.51440  0.91061  1.0000
  C   C226      1.0  0.08587  0.86838  0.86009  1.0000
  H   H191      1.0  0.15566  0.67835  0.57460  1.0000
  H   H192      1.0  0.20361  0.67723  0.59558  1.0000
  H   H193      1.0  0.05911  0.71069  0.61152  1.0000
  C   C227      1.0  0.07780  0.89214  0.88262  1.0000
  C   C228      1.0  0.09981  0.52784  0.65617  1.0000
  H   H194      1.0  0.10435  0.57069  0.56071  1.0000
  C   C229      1.0  0.07762  0.55140  0.60251  1.0000
  H   H195      1.0  0.01224  0.74602  0.88368  1.0000
  C   C230      1.0  0.08284  0.84030  0.66109  1.0000
  C   C231      1.0  0.07498  0.81376  0.67844  1.0000
  C   C232      1.0  0.02720  0.58529  0.64973  1.0000
  P   P6        1.0  0.09981  0.78688  0.69432  1.0000
  C   C233      1.0  0.08515  0.75110  0.68487  1.0000
  C   C234      1.0  0.13191  0.79106  0.66935  1.0000
  C   C235      1.0  0.14178  0.76883  0.64520  1.0000
  C   C236      1.0  0.16637  0.77243  0.62581  1.0000
  C   C237      1.0  0.18138  0.79819  0.63036  1.0000
  C   C238      1.0  0.17217  0.82008  0.65502  1.0000
  C   C239      1.0  0.14771  0.81647  0.67467  1.0000
  C   C240      1.0  0.08200  0.73031  0.71416  1.0000
  C   C241      1.0  0.07114  0.70257  0.70640  1.0000
  C   C242      1.0  0.06310  0.69541  0.66941  1.0000
  C   C243      1.0  0.06549  0.71621  0.64019  1.0000
  C   C244      1.0  0.07632  0.74402  0.64792  1.0000
  C   C245      1.0  0.10474  0.79133  0.74520  1.0000
  C   C246      1.0  0.08213  0.79296  0.76947  1.0000
  C   C247      1.0  0.08551  0.79391  0.80899  1.0000
  C   C248      1.0  0.11155  0.79360  0.82477  1.0000
  C   C249      1.0  0.13424  0.79249  0.80094  1.0000
  C   C250      1.0  0.13091  0.79111  0.76134  1.0000
  H   H196      1.0  0.19117  0.96064  0.70959  1.0000
  C   C251      1.0  0.08693  0.92046  0.87409  1.0000
  C   C252      1.0  0.29883  0.67442  0.70169  1.0000
  H   H197      1.0  0.10380  0.84516  0.65492  1.0000
  H   H198      1.0  0.13071  0.74866  0.64112  1.0000
  H   H199      1.0  0.17386  0.75529  0.60710  1.0000
  H   H200      1.0  0.14108  0.83373  0.69378  1.0000
  H   H201      1.0  0.08775  0.73538  0.74305  1.0000
  H   H202      1.0  0.06902  0.68644  0.72908  1.0000
  H   H203      1.0  0.05505  0.67369  0.66361  1.0000
  H   H204      1.0  0.10816  0.85499  0.81016  1.0000
  C   C253      1.0  0.00865  0.75253  0.77386  1.0000
  H   H205      1.0  0.06173  0.79280  0.75815  1.0000
  H   H206      1.0  0.06775  0.79478  0.82724  1.0000
  H   H207      1.0  0.11410  0.79440  0.85545  1.0000
  H   H208      1.0  0.15444  0.79242  0.81319  1.0000
  H   H209      1.0  0.14881  0.78923  0.74367  1.0000
  H   H210      1.0  0.31627  0.80944  0.65861  1.0000
  C   C254      1.0  0.28433  0.69805  0.71689  1.0000
  P   P7        1.0  0.04288  0.52623  0.65601  1.0000
  H   H211      1.0  0.10239  0.72130  0.81110  1.0000
  H   H212      1.0  0.26600  0.69411  0.73293  1.0000
  S   S51       1.0  0.00442  0.57139  0.76417  1.0000
  H   H213      1.0  0.07808  0.84662  0.86607  1.0000
  C   C255      1.0  0.24385  0.65295  0.78920  1.0000
  C   C256      1.0  0.24734  0.62706  0.76843  1.0000
  C   C257      1.0  0.23071  0.62139  0.73707  1.0000
  C   C258      1.0  0.21091  0.64176  0.72598  1.0000
  C   C259      1.0  0.20790  0.66837  0.74573  1.0000
  C   C260      1.0  0.22407  0.67342  0.77813  1.0000
  P   P8        1.0  0.18211  0.69464  0.73147  1.0000
  C   C261      1.0  0.15225  0.68713  0.75989  1.0000
  C   C262      1.0  0.19544  0.73153  0.73790  1.0000
  C   C263      1.0  0.19686  0.74406  0.77447  1.0000
  C   C264      1.0  0.20786  0.77212  0.77961  1.0000
  C   C265      1.0  0.21761  0.78794  0.74834  1.0000
  C   C266      1.0  0.21652  0.77565  0.71198  1.0000
  C   C267      1.0  0.20549  0.74766  0.70669  1.0000
  C   C268      1.0  0.13718  0.70993  0.77662  1.0000
  C   C269      1.0  0.11392  0.70367  0.79805  1.0000
  C   C270      1.0  0.10494  0.67471  0.80171  1.0000
  C   C271      1.0  0.11942  0.65197  0.78438  1.0000
  C   C272      1.0  0.14301  0.65808  0.76364  1.0000
  C   C273      1.0  0.17359  0.68937  0.68173  1.0000
  C   C274      1.0  0.19419  0.68484  0.65468  1.0000
  C   C275      1.0  0.18765  0.68098  0.61624  1.0000
  C   C276      1.0  0.16057  0.68166  0.60441  1.0000
  C   C277      1.0  0.13995  0.68618  0.63108  1.0000
  C   C278      1.0  0.14639  0.69003  0.66961  1.0000
  H   H214      1.0  0.25647  0.65708  0.81394  1.0000
  H   H215      1.0  0.26271  0.61119  0.77674  1.0000
  H   H216      1.0  0.23305  0.60104  0.72131  1.0000
  H   H217      1.0  0.19798  0.63652  0.70199  1.0000
  H   H218      1.0  0.22167  0.69308  0.79490  1.0000
  H   H219      1.0  0.18957  0.73210  0.79912  1.0000
  H   H220      1.0  0.20899  0.78161  0.80787  1.0000
  H   H221      1.0  0.22614  0.80972  0.75216  1.0000
  H   H222      1.0  0.22432  0.78789  0.68774  1.0000
  H   H223      1.0  0.20506  0.73894  0.67809  1.0000
  H   H224      1.0  0.14299  0.73253  0.77266  1.0000
  H   H225      1.0  0.05941  0.55739  0.58697  1.0000
  H   H226      1.0  0.14648  0.55682  0.59542  1.0000
  C   C279      1.0  0.00940  0.77578  0.83570  1.0000
  C   C280      1.0  0.17705  0.96176  0.73326  1.0000
  C   C281      1.0  0.01120  0.97294  0.92076  1.0000
  H   H227      1.0  0.07835  0.96052  0.76691  1.0000
  H   H228      1.0  0.06971  0.88229  0.63927  1.0000
  C   C282      1.0  0.15362  0.97895  0.73037  1.0000
  H   H229      1.0  0.28214  0.74512  0.72277  1.0000
  H   H230      1.0  0.29194  0.65204  0.70622  1.0000
  H   H231      1.0  0.09924  0.51547  0.68248  1.0000
  H   H232      1.0  0.04826  0.59039  0.64411  1.0000
  C   C283      1.0  0.25435  0.51261  0.47025  1.0000
  C   C284      1.0  0.13974  0.96240  0.90430  1.0000
  C   C285      1.0  0.13261  0.97880  0.87182  1.0000
  H   H233      1.0  0.14365  0.52900  0.65572  1.0000
  H   H234      1.0  0.31684  0.69747  0.59149  1.0000
  H   H235      1.0  0.00683  0.82695  0.68405  1.0000
  C   C286      1.0  0.13495  0.97967  0.76035  1.0000
  H   H236      1.0  0.99955  0.52171  0.59786  1.0000
  C   C287      1.0  0.16336  0.94606  0.79633  1.0000
  P   P9        1.0  0.11520  0.96213  0.83210  1.0000
  H   H237      1.0  0.31342  0.66028  0.54149  1.0000
  H   H238      1.0  0.06859  0.55269  0.72213  1.0000
  C   C288      1.0  0.00857  0.60843  0.65232  1.0000
  H   H239      1.0  0.13516  0.93922  0.90623  1.0000
  H   H240      1.0  0.14973  0.99132  0.70450  1.0000
  C   C289      1.0  0.00259  0.52933  0.94355  1.0000
  C   C290      1.0  0.07054  0.97645  0.78704  1.0000
  S   S52       1.0  0.00660  0.81267  0.77208  1.0000
  C   C291      1.0  0.18200  0.94545  0.76630  1.0000
  H   H241      1.0  0.19888  0.93904  0.46454  1.0000
  C   C292      1.0  0.07579  0.53662  0.63761  1.0000
  H   H242      1.0  0.15269  0.91760  0.46863  1.0000
  C   C293      1.0  0.04518  0.51480  0.70522  1.0000
  H   H243      1.0  0.30803  0.67443  0.46548  1.0000
  C   C294      1.0  0.32364  0.63079  0.45492  1.0000
  C   C295      1.0  0.30302  0.65156  0.46058  1.0000
  H   H244      1.0  0.25995  0.65868  0.46694  1.0000
  C   C296      1.0  0.27586  0.64276  0.46121  1.0000
  C   C297      1.0  0.32777  0.55585  0.52075  1.0000
  H   H245      1.0  0.99754  0.55242  0.94167  1.0000
  H   H246      1.0  0.04663  0.49428  0.81296  1.0000
  C   C298      1.0  0.26926  0.61332  0.45523  1.0000
  H   H247      1.0  0.32328  0.75424  0.68485  1.0000
  H   H248      1.0  0.00768  0.75418  0.74313  1.0000
  C   C299      1.0  0.08430  0.98186  0.82133  1.0000
  H   H249      1.0  0.31263  0.79756  0.58017  1.0000
  C   C300      1.0  0.31990  0.86016  0.72907  1.0000
  C   C301      1.0  0.32210  0.67952  0.67994  1.0000
  H   H250      1.0  0.00282  0.73016  0.64444  1.0000
  C   C302      1.0  0.15299  0.97596  0.93487  1.0000
  C   C303      1.0  0.04656  0.49970  0.78284  1.0000
  C   C304      1.0  0.04658  0.99156  0.77842  1.0000
  C   C305      1.0  0.00966  0.50067  0.60039  1.0000
  C   C306      1.0  0.03124  0.49659  0.62613  1.0000
  H   H251      1.0  0.11725  0.99353  0.75742  1.0000
  C   C307      1.0  0.08216  0.50182  0.93218  1.0000
  Fe  Fe29      1.0  0.50797  0.08954  0.04560  1.0000
  S   S53       1.0  0.50809  0.07111  0.98362  1.0000
  Fe  Fe30      1.0  0.50564  0.14891  0.09040  1.0000
  S   S54       1.0  0.49147  0.19629  0.09933  1.0000
  Fe  Fe31      1.0  0.48498  0.09278  0.12782  1.0000
  S   S55       1.0  0.45441  0.08028  0.17497  1.0000
  S   S56       1.0  0.47390  0.11571  0.07332  1.0000
  S   S57       1.0  0.50423  0.43994  0.11947  1.0000
  Fe  Fe32      1.0  0.52434  0.36498  0.07465  1.0000
  S   S58       1.0  0.51219  0.36974  0.13566  1.0000
  S   S59       1.0  0.53981  0.32115  0.05164  1.0000
  Fe  Fe33      1.0  0.47842  0.39882  0.11413  1.0000
  S   S60       1.0  0.43487  0.38464  0.13076  1.0000
  S   S61       1.0  0.48946  0.39203  0.05197  1.0000
  C   C308      1.0  0.50641  0.23049  0.08693  1.0000
  C   C309      1.0  0.52826  0.23272  0.06170  1.0000
  C   C310      1.0  0.53841  0.26063  0.05144  1.0000
  C   C311      1.0  0.52705  0.28650  0.06658  1.0000
  H   H252      1.0  0.53692  0.21302  0.04947  1.0000
  H   H253      1.0  0.55486  0.26225  0.03119  1.0000
  C   C312      1.0  0.36103  0.08578  0.19344  1.0000
  C   C313      1.0  0.37886  0.08138  0.22405  1.0000
  C   C314      1.0  0.40727  0.08038  0.21789  1.0000
  C   C315      1.0  0.41845  0.08436  0.18125  1.0000
  C   C316      1.0  0.40067  0.08994  0.15086  1.0000
  C   C317      1.0  0.37224  0.09035  0.15693  1.0000
  H   H254      1.0  0.37076  0.07767  0.25229  1.0000
  H   H255      1.0  0.42069  0.07600  0.24168  1.0000
  H   H256      1.0  0.40876  0.09311  0.12251  1.0000
  H   H257      1.0  0.35877  0.09392  0.13306  1.0000
  C   C318      1.0  0.40738  0.39634  0.16048  1.0000
  C   C319      1.0  0.38319  0.37980  0.16081  1.0000
  C   C320      1.0  0.36071  0.38827  0.18338  1.0000
  C   C321      1.0  0.36202  0.41360  0.20593  1.0000
  C   C322      1.0  0.38633  0.42994  0.20589  1.0000
  C   C323      1.0  0.40887  0.42135  0.18354  1.0000
  H   H258      1.0  0.38177  0.36039  0.14320  1.0000
  C   C324      1.0  0.35798  0.37501  0.35713  1.0000
  H   H259      1.0  0.38771  0.44947  0.22330  1.0000
  H   H260      1.0  0.42735  0.43416  0.18401  1.0000
  H   H261      1.0  0.46795  0.02896  0.13522  1.0000
  H   H262      1.0  0.36553  0.34075  0.39813  1.0000
  S   S62       1.0  0.51735  0.06442  0.09955  1.0000
  S   S63       1.0  0.51591  0.12651  0.14571  1.0000
  Fe  Fe34      1.0  0.54703  0.10097  0.11292  1.0000
  S   S64       1.0  0.59173  0.09039  0.12686  1.0000
  S   S65       1.0  0.53868  0.12539  0.05808  1.0000
  Fe  Fe35      1.0  0.51682  0.43164  0.05785  1.0000
  S   S66       1.0  0.52516  0.46857  0.01274  1.0000
  Fe  Fe36      1.0  0.53924  0.40976  0.13623  1.0000
  S   S67       1.0  0.56775  0.41286  0.18871  1.0000
  S   S68       1.0  0.55292  0.40365  0.07578  1.0000
  C   C325      1.0  0.50568  0.28417  0.09260  1.0000
  C   C326      1.0  0.49543  0.25631  0.10261  1.0000
  H   H263      1.0  0.49674  0.30386  0.10447  1.0000
  H   H264      1.0  0.47873  0.25473  0.12237  1.0000
  C   C327      1.0  0.62942  0.12827  0.21929  1.0000
  H   H265      1.0  0.64798  0.07582  0.13675  1.0000
  C   C328      1.0  0.64267  0.09057  0.15973  1.0000
  C   C329      1.0  0.61595  0.10156  0.16201  1.0000
  C   C330      1.0  0.60948  0.12066  0.19194  1.0000
  H   H266      1.0  0.34226  0.37544  0.18301  1.0000
  H   H267      1.0  0.56786  0.17128  0.27020  1.0000
  C   C331      1.0  0.42671  0.45929  0.09105  1.0000
  H   H268      1.0  0.58907  0.12930  0.19421  1.0000
  H   H269      1.0  0.63296  0.39581  0.41277  1.0000
  C   C332      1.0  0.60379  0.41662  0.19495  1.0000
  C   C333      1.0  0.61522  0.41188  0.23138  1.0000
  C   C334      1.0  0.64333  0.41600  0.23827  1.0000
  P   P10       1.0  0.37829  0.30562  0.26527  1.0000
  H   H270      1.0  0.37278  0.19042  0.32937  1.0000
  C   C335      1.0  0.62110  0.42519  0.16533  1.0000
  H   H271      1.0  0.60216  0.40521  0.25457  1.0000
  C   C336      1.0  0.50380  0.03774  0.95662  1.0000
  H   H272      1.0  0.59798  0.22555  0.01833  1.0000
  H   H273      1.0  0.61279  0.42907  0.13719  1.0000
  C   C337      1.0  0.54872  0.20605  0.17282  1.0000
  H   H274      1.0  0.42450  0.26741  0.24362  1.0000
  C   C338      1.0  0.39590  0.23059  0.32551  1.0000
  C   C339      1.0  0.60092  0.31747  0.13193  1.0000
  C   C340      1.0  0.57602  0.32775  0.14538  1.0000
  C   C341      1.0  0.55810  0.30843  0.16333  1.0000
  C   C342      1.0  0.56503  0.27881  0.16786  1.0000
  C   C343      1.0  0.59014  0.26828  0.15459  1.0000
  C   C344      1.0  0.60809  0.28798  0.13693  1.0000
  P   P11       1.0  0.59971  0.22997  0.15975  1.0000
  C   C345      1.0  0.60022  0.21170  0.11394  1.0000
  C   C346      1.0  0.59947  0.22771  0.07965  1.0000
  C   C347      1.0  0.59917  0.21307  0.04461  1.0000
  C   C348      1.0  0.44422  0.46378  0.06034  1.0000
  C   C349      1.0  0.39722  0.25879  0.30967  1.0000
  C   C350      1.0  0.59999  0.18083  0.11241  1.0000
  H   H275      1.0  0.61447  0.33243  0.11731  1.0000
  H   H276      1.0  0.57052  0.35065  0.14148  1.0000
  H   H277      1.0  0.46974  0.27807  0.21741  1.0000
  H   H278      1.0  0.62742  0.28040  0.12640  1.0000
  H   H279      1.0  0.59822  0.25141  0.07952  1.0000
  C   C351      1.0  0.43751  0.01057  0.05117  1.0000
  C   C352      1.0  0.58165  0.19782  0.22315  1.0000
  C   C353      1.0  0.52935  0.19031  0.19344  1.0000
  C   C354      1.0  0.56238  0.18146  0.24333  1.0000
  H   H280      1.0  0.55061  0.26444  0.18158  1.0000
  C   C355      1.0  0.35704  0.38237  0.31852  1.0000
  H   H281      1.0  0.58143  0.00038  0.04838  1.0000
  H   H282      1.0  0.63555  0.45648  0.31778  1.0000
  C   C356      1.0  0.35619  0.17223  0.19369  1.0000
  C   C357      1.0  0.36263  0.19841  0.17446  1.0000
  C   C358      1.0  0.34442  0.22221  0.17607  1.0000
  P   P12       1.0  0.39480  0.20118  0.14998  1.0000
  C   C359      1.0  0.41995  0.19005  0.18463  1.0000
  C   C360      1.0  0.39591  0.17763  0.10857  1.0000
  C   C361      1.0  0.41707  0.18099  0.08216  1.0000
  C   C362      1.0  0.41873  0.16263  0.05034  1.0000
  C   C363      1.0  0.39923  0.14081  0.04457  1.0000
  C   C364      1.0  0.37795  0.13749  0.07050  1.0000
  C   C365      1.0  0.37621  0.15585  0.10235  1.0000
  C   C366      1.0  0.41912  0.20210  0.22145  1.0000
  C   C367      1.0  0.43714  0.19227  0.24959  1.0000
  C   C368      1.0  0.45579  0.17001  0.24134  1.0000
  C   C369      1.0  0.45664  0.15784  0.20487  1.0000
  C   C370      1.0  0.43892  0.16785  0.17649  1.0000
  C   C371      1.0  0.40088  0.23818  0.13311  1.0000
  C   C372      1.0  0.38492  0.24953  0.10326  1.0000
  C   C373      1.0  0.38979  0.27776  0.08897  1.0000
  C   C374      1.0  0.41071  0.29483  0.10420  1.0000
  C   C375      1.0  0.42697  0.28351  0.13338  1.0000
  C   C376      1.0  0.42219  0.25525  0.14778  1.0000
  C   C377      1.0  0.42268  0.48161  0.11776  1.0000
  H   H283      1.0  0.64874  0.11656  0.39015  1.0000
  C   C378      1.0  0.66131  0.13525  0.38290  1.0000
  H   H284      1.0  0.37012  0.15371  0.19346  1.0000
  H   H285      1.0  0.34910  0.24294  0.16258  1.0000
  H   H286      1.0  0.43263  0.19750  0.08649  1.0000
  H   H287      1.0  0.43549  0.16508  0.03058  1.0000
  H   H288      1.0  0.40068  0.12638  0.02019  1.0000
  H   H289      1.0  0.59970  0.14246  0.07664  1.0000
  H   H290      1.0  0.35962  0.15263  0.12201  1.0000
  H   H291      1.0  0.40409  0.21860  0.22858  1.0000
  H   H292      1.0  0.43625  0.20137  0.27802  1.0000
  H   H293      1.0  0.46927  0.16174  0.26333  1.0000
  H   H294      1.0  0.47062  0.14007  0.19869  1.0000
  H   H295      1.0  0.43982  0.15760  0.14869  1.0000
  H   H296      1.0  0.36888  0.23638  0.09082  1.0000
  H   H297      1.0  0.37757  0.28635  0.06575  1.0000
  H   H298      1.0  0.41469  0.31670  0.09310  1.0000
  H   H299      1.0  0.44365  0.29661  0.14414  1.0000
  H   H300      1.0  0.43561  0.24662  0.16952  1.0000
  H   H301      1.0  0.64197  0.18361  0.16264  1.0000
  C   C379      1.0  0.66009  0.04829  0.39067  1.0000
  C   C380      1.0  0.65606  0.11692  0.21721  1.0000
  H   H302      1.0  0.62783  0.35186  0.19005  1.0000
  C   C381      1.0  0.43862  0.07231  0.00287  1.0000
  H   H303      1.0  0.54331  0.21485  0.14509  1.0000
  C   C382      1.0  0.57491  0.21027  0.18769  1.0000
  C   C383      1.0  0.49835  0.01059  0.97373  1.0000
  H   H304      1.0  0.44758  0.44636  0.03984  1.0000
  H   H305      1.0  0.60183  0.20014  0.23503  1.0000
  H   H306      1.0  0.50920  0.18728  0.18154  1.0000
  H   H307      1.0  0.33610  0.20809  0.28705  1.0000
  C   C384      1.0  0.53624  0.17773  0.22849  1.0000
  H   H308      1.0  0.65885  0.24869  0.08538  1.0000
  H   H309      1.0  0.53861  0.31640  0.17317  1.0000
  H   H310      1.0  0.38225  0.30286  0.18163  1.0000
  C   C385      1.0  0.46316  0.32477  0.21461  1.0000
  H   H311      1.0  0.48276  0.32939  0.20189  1.0000
  P   P13       1.0  0.40927  0.02154  0.02124  1.0000
  C   C386      1.0  0.45762  0.49063  0.05623  1.0000
  C   C387      1.0  0.51498  0.49183  0.97332  1.0000
  C   C388      1.0  0.57225  0.02916  0.00146  1.0000
  C   C389      1.0  0.33163  0.16956  0.21320  1.0000
  C   C390      1.0  0.35630  0.01609  0.11091  1.0000
  H   H312      1.0  0.59946  0.16780  0.13826  1.0000
  H   H313      1.0  0.65160  0.41258  0.26651  1.0000
  C   C391      1.0  0.40022  0.06134  0.96216  1.0000
  C   C392      1.0  0.33779  0.03866  0.10345  1.0000
  C   C393      1.0  0.59944  0.18239  0.04347  1.0000
  H   H314      1.0  0.45039  0.37001  0.21343  1.0000
  C   C394      1.0  0.66050  0.42530  0.20884  1.0000
  C   C395      1.0  0.35349  0.30926  0.22757  1.0000
  C   C396      1.0  0.43009  0.29001  0.23858  1.0000
  H   H315      1.0  0.52145  0.16467  0.24377  1.0000
  C   C397      1.0  0.41183  0.31306  0.24627  1.0000
  C   C398      1.0  0.36276  0.36117  0.29089  1.0000
  S   S69       1.0  0.33417  0.42601  0.23457  1.0000
  C   C399      1.0  0.59991  0.16630  0.07738  1.0000
  H   H316      1.0  0.41176  0.22298  0.34459  1.0000
  C   C400      1.0  0.63256  0.22753  0.18302  1.0000
  C   C401      1.0  0.44494  0.34771  0.22127  1.0000
  C   C402      1.0  0.66027  0.14693  0.34607  1.0000
  H   H317      1.0  0.49687  0.00944  0.00438  1.0000
  H   H318      1.0  0.36331  0.06371  0.01975  1.0000
  H   H319      1.0  0.64179  0.03475  0.44339  1.0000
  C   C403      1.0  0.44420  0.09719  0.98074  1.0000
  C   C404      1.0  0.64652  0.34279  0.20152  1.0000
  C   C405      1.0  0.37399  0.21225  0.31703  1.0000
  H   H320      1.0  0.34819  0.30884  0.13066  1.0000
  C   C406      1.0  0.45577  0.29591  0.22336  1.0000
  H   H321      1.0  0.62941  0.26999  0.21084  1.0000
  H   H322      1.0  0.35119  0.40439  0.30983  1.0000
  H   H323      1.0  0.43136  0.04557  0.09224  1.0000
  H   H324      1.0  0.62408  0.14284  0.24240  1.0000
  C   C407      1.0  0.60152  0.47995  0.29476  1.0000
  H   H325      1.0  0.59872  0.17101  0.01637  1.0000
  H   H326      1.0  0.40558  0.36014  0.24090  1.0000
  C   C408      1.0  0.36150  0.04997  0.04473  1.0000
  H   H327      1.0  0.36297  0.12043  0.06624  1.0000
  C   C409      1.0  0.64501  0.43933  0.39533  1.0000
  C   C410      1.0  0.36127  0.30674  0.18923  1.0000
  C   C411      1.0  0.65039  0.34178  0.24094  1.0000
  H   H328      1.0  0.63461  0.34971  0.25981  1.0000
  H   H329      1.0  0.36095  0.36719  0.26115  1.0000
  C   C412      1.0  0.37017  0.33250  0.30158  1.0000
  C   C413      1.0  0.64157  0.25039  0.20683  1.0000
  C   C414      1.0  0.41941  0.34195  0.23697  1.0000
  H   H330      1.0  0.35464  0.00354  0.13710  1.0000
  C   C415      1.0  0.46386  0.01695  0.10920  1.0000
  C   C416      1.0  0.64911  0.42977  0.17236  1.0000
  C   C417      1.0  0.65896  0.04574  0.43042  1.0000
  C   C418      1.0  0.35330  0.22220  0.29301  1.0000
  C   C419      1.0  0.41648  0.05429  0.99390  1.0000
  C   C420      1.0  0.37654  0.26893  0.28525  1.0000
  H   H331      1.0  0.64405  0.03911  0.37318  1.0000
  H   H332      1.0  0.47488  0.47395  0.96608  1.0000
  C   C421      1.0  0.35444  0.25041  0.27726  1.0000
  C   C422      1.0  0.56980  0.03173  0.96194  1.0000
  C   C423      1.0  0.57950  0.00222  0.01769  1.0000
  H   H333      1.0  0.37646  0.30345  0.35001  1.0000
  H   H334      1.0  0.41423  0.27286  0.31674  1.0000
  H   H335      1.0  0.40903  0.47800  0.14151  1.0000
  C   C424      1.0  0.34198  0.30997  0.16019  1.0000
  C   C425      1.0  0.44316  0.02630  0.08468  1.0000
  C   C426      1.0  0.38036  0.02745  0.05217  1.0000
  C   C427      1.0  0.37127  0.32533  0.34057  1.0000
  H   H336      1.0  0.45212  0.06685  0.02618  1.0000
  H   H337      1.0  0.47114  0.49381  0.03230  1.0000
  H   H338      1.0  0.41632  0.43844  0.09423  1.0000
  H   H339      1.0  0.46169  0.11070  0.98734  1.0000
  H   H340      1.0  0.35282  0.39134  0.37839  1.0000
  H   H341      1.0  0.66201  0.43716  0.14936  1.0000
  C   C428      1.0  0.64857  0.20204  0.17967  1.0000
  H   H342      1.0  0.62430  0.44665  0.39106  1.0000
  C   C429      1.0  0.37735  0.01030  0.08527  1.0000
  H   H343      1.0  0.59617  0.46250  0.27508  1.0000
  C   C430      1.0  0.34025  0.05542  0.07023  1.0000
  H   H344      1.0  0.64706  0.13727  0.32472  1.0000
  C   C431      1.0  0.66259  0.09817  0.18703  1.0000
  C   C432      1.0  0.62373  0.47655  0.31928  1.0000
  H   H345      1.0  0.56822  0.04805  0.01947  1.0000
  C   C433      1.0  0.36507  0.34649  0.36816  1.0000
  C   C434      1.0  0.48939  0.48989  0.95581  1.0000
  H   H346      1.0  0.33785  0.25760  0.25929  1.0000
  C   C435      1.0  0.64983  0.41060  0.40802  1.0000
  H   H347      1.0  0.38331  0.04742  0.95424  1.0000
  H   H348      1.0  0.60703  0.14497  0.56015  1.0000
  H   H349      1.0  0.64028  0.12108  0.60357  1.0000
  H   H350      1.0  0.63536  0.09204  0.46746  1.0000
  H   H351      1.0  0.57149  0.00997  0.90817  1.0000
  C   C436      1.0  0.54367  0.46477  0.86534  1.0000
  H   H352      1.0  0.43277  0.12300  0.93182  1.0000
  H   H353      1.0  0.47869  0.41974  0.88717  1.0000
  H   H354      1.0  0.48408  0.44354  0.82423  1.0000
  H   H355      1.0  0.43725  0.00440  0.95162  1.0000
  H   H356      1.0  0.57846  0.44868  0.77979  1.0000
  C   C437      1.0  0.62081  0.12837  0.54930  1.0000
  C   C438      1.0  0.64783  0.01691  0.55110  1.0000
  C   C439      1.0  0.42795  0.10407  0.94930  1.0000
  H   H357      1.0  0.51083  0.05924  0.90273  1.0000
  C   C440      1.0  0.65563  0.08437  0.52159  1.0000
  C   C441      1.0  0.55149  0.40153  0.71493  1.0000
  C   C442      1.0  0.63953  0.11492  0.57375  1.0000
  C   C443      1.0  0.40592  0.08615  0.94003  1.0000
  H   H358      1.0  0.50606  0.01400  0.86347  1.0000
  H   H359      1.0  0.55609  0.45325  0.92251  1.0000
  C   C444      1.0  0.54058  0.45098  0.90073  1.0000
  H   H360      1.0  0.55718  0.38294  0.69741  1.0000
  H   H361      1.0  0.51464  0.42476  0.93643  1.0000
  C   C445      1.0  0.52473  0.41186  0.71452  1.0000
  H   H362      1.0  0.50965  0.40118  0.69680  1.0000
  C   C446      1.0  0.50385  0.01276  0.89409  1.0000
  C   C447      1.0  0.56342  0.43883  0.76119  1.0000
  C   C448      1.0  0.53678  0.44983  0.76011  1.0000
  C   C449      1.0  0.63694  0.09824  0.49711  1.0000
  P   P14       1.0  0.52721  0.47953  0.79126  1.0000
  C   C450      1.0  0.57080  0.41494  0.73838  1.0000
  H   H363      1.0  0.49634  0.44302  0.73726  1.0000
  C   C451      1.0  0.57401  0.00729  0.93855  1.0000
  H   H364      1.0  0.64821  0.18650  0.53173  1.0000
  C   C452      1.0  0.49685  0.43224  0.88094  1.0000
  C   C453      1.0  0.50649  0.03851  0.91656  1.0000
  C   C454      1.0  0.49988  0.44597  0.84548  1.0000
  C   C455      1.0  0.51716  0.43483  0.90859  1.0000
  H   H365      1.0  0.56215  0.47683  0.85984  1.0000
  H   H366      1.0  0.59145  0.40669  0.73916  1.0000
  C   C456      1.0  0.52305  0.46290  0.83771  1.0000
  C   C457      1.0  0.51730  0.43576  0.73729  1.0000
  H   H367      1.0  0.39355  0.09122  0.91530  1.0000
  H   H368      1.0  0.56379  0.05260  0.94954  1.0000
  C   C458      1.0  0.61964  0.12016  0.51097  1.0000
  H   H369      1.0  0.64161  0.03581  0.56748  1.0000
  C   C459      1.0  0.65693  0.09308  0.55996  1.0000
  H   H370      1.0  0.60500  0.13046  0.49206  1.0000
  H   H371      1.0  0.58956  0.95702  0.00744  1.0000
  C   C460      1.0  0.63566  0.52306  0.43526  1.0000
  C   C461      1.0  0.51994  0.51743  0.08741  1.0000
  C   C462      1.0  0.33115  0.54259  0.41949  1.0000
  H   H372      1.0  0.42744  0.63312  0.17818  1.0000
  C   C463      1.0  0.42831  0.61751  0.12024  1.0000
  C   C464      1.0  0.44040  0.55436  0.01018  1.0000
  C   C465      1.0  0.42168  0.61134  0.39469  1.0000
  H   H373      1.0  0.45964  0.59518  0.20186  1.0000
  H   H374      1.0  0.49045  0.96434  0.96507  1.0000
  C   C466      1.0  0.37405  0.58799  0.42675  1.0000
  P   P15       1.0  0.34344  0.57304  0.44776  1.0000
  H   H375      1.0  0.44002  0.62035  0.38231  1.0000
  H   H376      1.0  0.61660  0.51636  0.42263  1.0000
  C   C467      1.0  0.46582  0.55897  0.02746  1.0000
  C   C468      1.0  0.54779  0.51536  0.09468  1.0000
  C   C469      1.0  0.40562  0.59191  0.37369  1.0000
  C   C470      1.0  0.58662  0.50609  0.29483  1.0000
  C   C471      1.0  0.66043  0.51664  0.41724  1.0000
  C   C472      1.0  0.48660  0.57242  0.00636  1.0000
  C   C473      1.0  0.45392  0.59567  0.17202  1.0000
  H   H377      1.0  0.56958  0.50869  0.27548  1.0000
  C   C474      1.0  0.33461  0.51347  0.43200  1.0000
  C   C475      1.0  0.53346  0.51267  0.95869  1.0000
  H   H378      1.0  0.51290  0.59181  0.09240  1.0000
  H   H379      1.0  0.58296  0.54955  0.31845  1.0000
  H   H380      1.0  0.36686  0.97580  0.01495  1.0000
  H   H381      1.0  0.50289  0.90761  0.98291  1.0000
  C   C476      1.0  0.61645  0.52576  0.34353  1.0000
  H   H382      1.0  0.62267  0.54416  0.36099  1.0000
  C   C477      1.0  0.58402  0.97777  0.99439  1.0000
  C   C478      1.0  0.50703  0.54489  0.08636  1.0000
  H   H383      1.0  0.37001  0.56513  0.37274  1.0000
  H   H384      1.0  0.43290  0.59755  0.06540  1.0000
  C   C479      1.0  0.53968  0.92501  0.95862  1.0000
  H   H385      1.0  0.56212  0.58792  0.10553  1.0000
  H   H386      1.0  0.42416  0.54372  0.02571  1.0000
  C   C480      1.0  0.46465  0.57486  0.14689  1.0000
  H   H387      1.0  0.50663  0.57553  0.01830  1.0000
  H   H388      1.0  0.48632  0.95757  0.05980  1.0000
  C   C481      1.0  0.52241  0.57033  0.09324  1.0000
  C   C482      1.0  0.43577  0.61701  0.15870  1.0000
  H   H389      1.0  0.43272  0.52534  0.13489  1.0000
  C   C483      1.0  0.38193  0.58025  0.38959  1.0000
  C   C484      1.0  0.47410  0.97659  0.06691  1.0000
  C   C485      1.0  0.43898  0.59671  0.09503  1.0000
  C   C486      1.0  0.41411  0.61906  0.43171  1.0000
  H   H390      1.0  0.41154  0.58579  0.34504  1.0000
  P   P16       1.0  0.47107  0.54786  0.07643  1.0000
  H   H391      1.0  0.41422  0.63404  0.10991  1.0000
  H   H392      1.0  0.44937  0.97282  0.01713  1.0000
  C   C487      1.0  0.55029  0.56823  0.10064  1.0000
  C   C488      1.0  0.45733  0.57529  0.10818  1.0000
  H   H393      1.0  0.55758  0.49397  0.09462  1.0000
  C   C489      1.0  0.51811  0.90508  0.96094  1.0000
  C   C490      1.0  0.59413  0.52903  0.31910  1.0000
  C   C491      1.0  0.56299  0.54073  0.10129  1.0000
  H   H394      1.0  0.47857  0.55829  0.15762  1.0000
  H   H395      1.0  0.54064  0.94272  0.97902  1.0000
  H   H396      1.0  0.55331  0.51458  0.97170  1.0000
  H   H397      1.0  0.58462  0.53901  0.10663  1.0000
  C   C492      1.0  0.48181  0.58159  0.96887  1.0000
  P   P17       1.0  0.66120  0.49573  0.37349  1.0000
  H   H398      1.0  0.42661  0.63405  0.44806  1.0000
  C   C493      1.0  0.38050  0.97386  0.99091  1.0000
  C   C494      1.0  0.39046  0.60742  0.44770  1.0000
  C   C495      1.0  0.45394  0.51311  0.08306  1.0000
  H   H399      1.0  0.50876  0.49749  0.08213  1.0000
  C   C496      1.0  0.43578  0.56338  0.97260  1.0000
  C   C497      1.0  0.63101  0.49921  0.34450  1.0000
  C   C498      1.0  0.45309  0.98551  0.04259  1.0000
  C   C499      1.0  0.58103  0.98001  0.95461  1.0000
  C   C500      1.0  0.43626  0.50844  0.11389  1.0000
  H   H400      1.0  0.49580  0.98554  0.11906  1.0000
  C   C501      1.0  0.64482  0.88753  0.95676  1.0000
  H   H401      1.0  0.64647  0.86385  0.95930  1.0000
  C   C502      1.0  0.47948  0.99231  0.10020  1.0000
  C   C503      1.0  0.40258  0.99305  0.98676  1.0000
  H   H402      1.0  0.39166  0.99291  0.09187  1.0000
  C   C504      1.0  0.37587  0.95189  0.96377  1.0000
  C   C505      1.0  0.41996  0.98991  0.95527  1.0000
  H   H403      1.0  0.35873  0.93719  0.96692  1.0000
  H   H404      1.0  0.41631  0.55941  0.95916  1.0000
  Fe  Fe37      1.0  0.47948  0.60596  0.74310  1.0000
  S   S70       1.0  0.46501  0.61481  0.80253  1.0000
  S   S71       1.0  0.45131  0.59744  0.69131  1.0000
  Fe  Fe38      1.0  0.49377  0.65339  0.80147  1.0000
  S   S72       1.0  0.47702  0.69789  0.82058  1.0000
  Fe  Fe39      1.0  0.50058  0.58740  0.82359  1.0000
  S   S73       1.0  0.49090  0.55217  0.87026  1.0000
  S   S74       1.0  0.50665  0.64594  0.74104  1.0000
  S   S75       1.0  0.51397  0.57636  0.76326  1.0000
  Fe  Fe40      1.0  0.47009  0.90879  0.75219  1.0000
  S   S76       1.0  0.47459  0.89033  0.81176  1.0000
  S   S77       1.0  0.43386  0.89985  0.71175  1.0000
  Fe  Fe41      1.0  0.50001  0.93099  0.82435  1.0000
  S   S78       1.0  0.49369  0.95215  0.88436  1.0000
  Fe  Fe42      1.0  0.51324  0.86930  0.79119  1.0000
  S   S79       1.0  0.53216  0.82363  0.79735  1.0000
  S   S80       1.0  0.49396  0.95024  0.76510  1.0000
  S   S81       1.0  0.50759  0.88529  0.73139  1.0000
  H   H405      1.0  0.62491  0.56868  0.64650  1.0000
  P   P18       1.0  0.58695  0.94800  0.92514  1.0000
  C   C506      1.0  0.50110  0.52903  0.90976  1.0000
  C   C507      1.0  0.49234  0.73267  0.81234  1.0000
  C   C508      1.0  0.47860  0.75825  0.82405  1.0000
  C   C509      1.0  0.49008  0.78632  0.81855  1.0000
  C   C510      1.0  0.51573  0.78907  0.80191  1.0000
  H   H406      1.0  0.45921  0.75627  0.83823  1.0000
  H   H407      1.0  0.47954  0.80573  0.82842  1.0000
  C   C511      1.0  0.35746  0.59749  0.67508  1.0000
  C   C512      1.0  0.37501  0.59678  0.64372  1.0000
  C   C513      1.0  0.40353  0.59694  0.64921  1.0000
  C   C514      1.0  0.41504  0.59818  0.68606  1.0000
  C   C515      1.0  0.39746  0.59953  0.71735  1.0000
  C   C516      1.0  0.36897  0.59909  0.71185  1.0000
  H   H408      1.0  0.36658  0.59578  0.61530  1.0000
  H   H409      1.0  0.41680  0.59596  0.62472  1.0000
  H   H410      1.0  0.40580  0.60049  0.74587  1.0000
  H   H411      1.0  0.35573  0.59969  0.73640  1.0000
  C   C517      1.0  0.34281  0.92192  0.69021  1.0000
  C   C518      1.0  0.35662  0.93394  0.72182  1.0000
  C   C519      1.0  0.38427  0.92736  0.72909  1.0000
  C   C520      1.0  0.39868  0.90866  0.70472  1.0000
  C   C521      1.0  0.38477  0.89629  0.67345  1.0000
  C   C522      1.0  0.35711  0.90280  0.66623  1.0000
  H   H412      1.0  0.34587  0.94869  0.74066  1.0000
  H   H413      1.0  0.39451  0.93709  0.75325  1.0000
  H   H414      1.0  0.39559  0.88184  0.65432  1.0000
  H   H415      1.0  0.34689  0.89322  0.64195  1.0000
  Fe  Fe43      1.0  0.53989  0.61743  0.76589  1.0000
  S   S82       1.0  0.52807  0.62706  0.82718  1.0000
  S   S83       1.0  0.58497  0.62739  0.75190  1.0000
  Fe  Fe44      1.0  0.53197  0.92464  0.74843  1.0000
  S   S84       1.0  0.53918  0.90792  0.80790  1.0000
  S   S85       1.0  0.56458  0.94025  0.70550  1.0000
  C   C523      1.0  0.46328  0.82496  0.68568  1.0000
  H   H416      1.0  0.61661  0.65838  0.65917  1.0000
  C   C524      1.0  0.52957  0.76349  0.79043  1.0000
  C   C525      1.0  0.51784  0.73546  0.79518  1.0000
  H   H417      1.0  0.54959  0.76534  0.77810  1.0000
  H   H418      1.0  0.52875  0.71599  0.78632  1.0000
  H   H419      1.0  0.56848  0.49759  0.73496  1.0000
  C   C526      1.0  0.62854  0.58523  0.66800  1.0000
  C   C527      1.0  0.60704  0.59384  0.69233  1.0000
  C   C528      1.0  0.61133  0.61507  0.72053  1.0000
  C   C529      1.0  0.63740  0.62764  0.72366  1.0000
  H   H420      1.0  0.35218  0.62670  0.52856  1.0000
  H   H421      1.0  0.42463  0.76808  0.79171  1.0000
  H   H422      1.0  0.58717  0.58403  0.68926  1.0000
  H   H423      1.0  0.64106  0.64403  0.74533  1.0000
  C   C530      1.0  0.63537  0.53772  0.47033  1.0000
  C   C531      1.0  0.46571  0.81920  0.72464  1.0000
  C   C532      1.0  0.63967  0.93237  0.65579  1.0000
  C   C533      1.0  0.61186  0.93829  0.66274  1.0000
  C   C534      1.0  0.59949  0.93067  0.69763  1.0000
  C   C535      1.0  0.61551  0.91702  0.72555  1.0000
  H   H424      1.0  0.42926  0.96531  0.90453  1.0000
  C   C536      1.0  0.33353  0.76148  0.60740  1.0000
  H   H425      1.0  0.59979  0.94895  0.64093  1.0000
  H   H426      1.0  0.60646  0.91121  0.75254  1.0000
  C   C537      1.0  0.62034  0.90025  0.94481  1.0000
  C   C538      1.0  0.63402  0.79311  0.60347  1.0000
  H   H427      1.0  0.34437  0.50864  0.45894  1.0000
  C   C539      1.0  0.61794  0.93094  0.94181  1.0000
  C   C540      1.0  0.33222  0.78829  0.58794  1.0000
  C   C541      1.0  0.35662  0.72767  0.77436  1.0000
  C   C542      1.0  0.33098  0.70835  0.67302  1.0000
  H   H428      1.0  0.58761  0.69560  0.77464  1.0000
  H   H429      1.0  0.33286  0.66085  0.66808  1.0000
  H   H430      1.0  0.43445  0.54262  0.73848  1.0000
  C   C543      1.0  0.59688  0.82748  0.70094  1.0000
  C   C544      1.0  0.40335  0.72734  0.79549  1.0000
  C   C545      1.0  0.52669  0.53099  0.92724  1.0000
  C   C546      1.0  0.34699  0.81024  0.70271  1.0000
  C   C547      1.0  0.35604  0.80328  0.57874  1.0000
  H   H431      1.0  0.35490  0.82426  0.56409  1.0000
  H   H432      1.0  0.57304  0.56715  0.84347  1.0000
  C   C548      1.0  0.62814  0.83296  0.77154  1.0000
  H   H433      1.0  0.58847  0.88183  0.63477  1.0000
  H   H434      1.0  0.40115  0.54229  0.55716  1.0000
  H   H435      1.0  0.53261  0.86268  0.88376  1.0000
  C   C549      1.0  0.35857  0.75771  0.76613  1.0000
  H   H436      1.0  0.37874  0.79758  0.84126  1.0000
  H   H437      1.0  0.35754  0.79117  0.69177  1.0000
  H   H438      1.0  0.65695  0.64173  0.60999  1.0000
  P   P19       1.0  0.62273  0.81017  0.73009  1.0000
  C   C550      1.0  0.65462  0.59781  0.67110  1.0000
  C   C551      1.0  0.60629  0.69479  0.62201  1.0000
  C   C552      1.0  0.60042  0.67143  0.64684  1.0000
  C   C553      1.0  0.57351  0.66452  0.65575  1.0000
  C   C554      1.0  0.55221  0.68044  0.63935  1.0000
  C   C555      1.0  0.55782  0.70290  0.61331  1.0000
  C   C556      1.0  0.58474  0.70977  0.60421  1.0000
  H   H439      1.0  0.63466  0.95458  0.80069  1.0000
  C   C557      1.0  0.56733  0.96795  0.85522  1.0000
  H   H440      1.0  0.56914  0.64669  0.67536  1.0000
  H   H441      1.0  0.53139  0.67501  0.64650  1.0000
  H   H442      1.0  0.54126  0.71478  0.59993  1.0000
  H   H443      1.0  0.58867  0.72660  0.58308  1.0000
  H   H444      1.0  0.35014  0.86229  0.77256  1.0000
  H   H445      1.0  0.60434  0.57269  0.78861  1.0000
  C   C558      1.0  0.45332  0.52108  0.78653  1.0000
  C   C559      1.0  0.58833  0.72808  0.72988  1.0000
  C   C560      1.0  0.35875  0.68740  0.60580  1.0000
  C   C561      1.0  0.43760  0.82662  0.66886  1.0000
  P   P20       1.0  0.36023  0.71463  0.64308  1.0000
  C   C562      1.0  0.59439  0.71738  0.76624  1.0000
  C   C563      1.0  0.38972  0.71006  0.67365  1.0000
  C   C564      1.0  0.40490  0.73442  0.68601  1.0000
  C   C565      1.0  0.42848  0.73039  0.70775  1.0000
  C   C566      1.0  0.43632  0.70219  0.71912  1.0000
  C   C567      1.0  0.42051  0.67801  0.70885  1.0000
  C   C568      1.0  0.39721  0.68188  0.68646  1.0000
  C   C569      1.0  0.38132  0.66994  0.59636  1.0000
  H   H446      1.0  0.66073  0.82397  0.57567  1.0000
  C   C570      1.0  0.35874  0.74956  0.61830  1.0000
  H   H447      1.0  0.44482  0.81214  0.77719  1.0000
  C   C571      1.0  0.61447  0.95264  0.85529  1.0000
  C   C572      1.0  0.49798  0.98564  0.91120  1.0000
  C   C573      1.0  0.38125  0.79091  0.58776  1.0000
  C   C574      1.0  0.38263  0.76386  0.60672  1.0000
  H   H448      1.0  0.48120  0.82916  0.66874  1.0000
  H   H449      1.0  0.56341  0.80520  0.72880  1.0000
  C   C575      1.0  0.61600  0.95863  0.81619  1.0000
  H   H450      1.0  0.59204  0.76405  0.69074  1.0000
  C   C576      1.0  0.53477  0.87983  0.90502  1.0000
  H   H451      1.0  0.39863  0.75658  0.67929  1.0000
  H   H452      1.0  0.44041  0.74919  0.71665  1.0000
  H   H453      1.0  0.45431  0.69910  0.73666  1.0000
  H   H454      1.0  0.42647  0.65620  0.71821  1.0000
  H   H455      1.0  0.38528  0.66276  0.67886  1.0000
  C   C577      1.0  0.45147  0.52943  0.74828  1.0000
  C   C578      1.0  0.55634  0.89968  0.90272  1.0000
  P   P21       1.0  0.38669  0.81128  0.75963  1.0000
  C   C579      1.0  0.65443  0.80719  0.70428  1.0000
  H   H456      1.0  0.39973  0.80220  0.57964  1.0000
  H   H457      1.0  0.40234  0.75409  0.61197  1.0000
  C   C580      1.0  0.40552  0.75720  0.78662  1.0000
  C   C581      1.0  0.39156  0.83584  0.87194  1.0000
  H   H458      1.0  0.40653  0.87069  0.77325  1.0000
  C   C582      1.0  0.58867  0.53493  0.75889  1.0000
  C   C583      1.0  0.55899  0.92245  0.92939  1.0000
  C   C584      1.0  0.59007  0.55458  0.78938  1.0000
  C   C585      1.0  0.54912  0.83535  0.68652  1.0000
  H   H459      1.0  0.63226  0.94409  0.86958  1.0000
  C   C586      1.0  0.37895  0.64809  0.56852  1.0000
  C   C587      1.0  0.37621  0.55490  0.50911  1.0000
  C   C588      1.0  0.65978  0.54539  0.48811  1.0000
  C   C589      1.0  0.39219  0.83197  0.80285  1.0000
  H   H460      1.0  0.43571  0.83239  0.63902  1.0000
  C   C590      1.0  0.44246  0.81526  0.74682  1.0000
  C   C591      1.0  0.65006  0.67874  0.57226  1.0000
  C   C592      1.0  0.59005  0.95732  0.87516  1.0000
  H   H461      1.0  0.53998  0.52654  0.84483  1.0000
  C   C593      1.0  0.40223  0.86076  0.80067  1.0000
  H   H462      1.0  0.48559  0.81869  0.73798  1.0000
  C   C594      1.0  0.61148  0.77394  0.74461  1.0000
  C   C595      1.0  0.55380  0.52835  0.82105  1.0000
  H   H463      1.0  0.36213  0.53594  0.60103  1.0000
  C   C596      1.0  0.64637  0.74149  0.59763  1.0000
  H   H464      1.0  0.62838  0.77631  0.80160  1.0000
  C   C597      1.0  0.61193  0.86992  0.81599  1.0000
  C   C598      1.0  0.65653  0.80101  0.58160  1.0000
  H   H465      1.0  0.61623  0.54277  0.48406  1.0000
  H   H466      1.0  0.54816  0.97104  0.86973  1.0000
  C   C599      1.0  0.41545  0.96777  0.92846  1.0000
  H   H467      1.0  0.64270  0.70997  0.52667  1.0000
  H   H468      1.0  0.63389  0.70451  0.69368  1.0000
  H   H469      1.0  0.62068  0.81000  0.61452  1.0000
  P   P22       1.0  0.64115  0.70340  0.61039  1.0000
  C   C600      1.0  0.65353  0.83329  0.78988  1.0000
  C   C601      1.0  0.62910  0.76352  0.61179  1.0000
  H   H470      1.0  0.37770  0.68913  0.79485  1.0000
  H   H471      1.0  0.60344  0.88599  0.93825  1.0000
  H   H472      1.0  0.39602  0.63376  0.56261  1.0000
  C   C602      1.0  0.41650  0.81655  0.73018  1.0000
  C   C603      1.0  0.61740  0.76306  0.78118  1.0000
  H   H473      1.0  0.64088  0.88513  0.85752  1.0000
  H   H474      1.0  0.40058  0.67265  0.61077  1.0000
  H   H475      1.0  0.59587  0.88439  0.82546  1.0000
  H   H476      1.0  0.39485  0.82515  0.67723  1.0000
  C   C604      1.0  0.33241  0.66273  0.55683  1.0000
  C   C605      1.0  0.38666  0.81966  0.83875  1.0000
  C   C606      1.0  0.66358  0.77993  0.69060  1.0000
  H   H477      1.0  0.54126  0.54677  0.91672  1.0000
  H   H478      1.0  0.52803  0.83049  0.69231  1.0000
  C   C607      1.0  0.40674  0.87701  0.83384  1.0000
  C   C608      1.0  0.56939  0.82081  0.70706  1.0000
  H   H479      1.0  0.62731  0.98671  0.58882  1.0000
  H   H480      1.0  0.42077  0.71558  0.80692  1.0000
  C   C609      1.0  0.38335  0.77259  0.77112  1.0000
  H   H481      1.0  0.38973  0.93190  0.91153  1.0000
  C   C610      1.0  0.47211  0.52174  0.72289  1.0000
  H   H482      1.0  0.55132  0.98228  0.80104  1.0000
  C   C611      1.0  0.34971  0.56063  0.49604  1.0000
  C   C612      1.0  0.35873  0.54243  0.57162  1.0000
  H   H483      1.0  0.34064  0.76910  0.75618  1.0000
  H   H484      1.0  0.38764  0.82611  0.89958  1.0000
  C   C613      1.0  0.64859  0.68774  0.53400  1.0000
  C   C614      1.0  0.59332  0.96952  0.79675  1.0000
  C   C615      1.0  0.59700  0.75612  0.71897  1.0000
  C   C616      1.0  0.37907  0.71245  0.78877  1.0000
  H   H485      1.0  0.58736  0.85127  0.77191  1.0000
  C   C617      1.0  0.57252  0.55139  0.82034  1.0000
  H   H486      1.0  0.34441  0.63820  0.45541  1.0000
  H   H487      1.0  0.40572  0.87691  0.89517  1.0000
  C   C618      1.0  0.39332  0.94886  0.93258  1.0000
  C   C619      1.0  0.63731  0.87040  0.83382  1.0000
  H   H488      1.0  0.57085  0.89742  0.87987  1.0000
  C   C620      1.0  0.58321  0.86418  0.65416  1.0000
  C   C621      1.0  0.47580  0.50506  0.79947  1.0000
  H   H489      1.0  0.57678  0.71458  0.71029  1.0000
  C   C622      1.0  0.66192  0.63892  0.51355  1.0000
  H   H490      1.0  0.61319  0.72667  0.82027  1.0000
  C   C623      1.0  0.66232  0.62957  0.55150  1.0000
  H   H491      1.0  0.64876  0.93851  0.62892  1.0000
  C   C624      1.0  0.35438  0.64421  0.54914  1.0000
  C   C625      1.0  0.60724  0.85114  0.78520  1.0000
  H   H492      1.0  0.47100  0.52920  0.69357  1.0000
  C   C626      1.0  0.60362  0.84947  0.67442  1.0000
  C   C627      1.0  0.55597  0.85721  0.66028  1.0000
  H   H493      1.0  0.65208  0.76017  0.69563  1.0000
  H   H494      1.0  0.41452  0.89923  0.83173  1.0000
  C   C628      1.0  0.56905  0.97434  0.81631  1.0000
  H   H495      1.0  0.54016  0.86945  0.64566  1.0000
  H   H496      1.0  0.62439  0.85615  0.66996  1.0000
  H   H497      1.0  0.65963  0.55651  0.51544  1.0000
  H   H498      1.0  0.47728  0.49994  0.82953  1.0000
  C   C629      1.0  0.60888  0.73488  0.79188  1.0000
  C   C630      1.0  0.35676  0.82486  0.73522  1.0000
  C   C631      1.0  0.64347  0.91180  0.71901  1.0000
  C   C632      1.0  0.40167  0.86447  0.86949  1.0000
  C   C633      1.0  0.41431  0.82243  0.69092  1.0000
  C   C634      1.0  0.65495  0.69986  0.68759  1.0000
  C   C635      1.0  0.34301  0.85002  0.74820  1.0000
  H   H499      1.0  0.39346  0.55692  0.49026  1.0000
  H   H500      1.0  0.38504  0.61348  0.47653  1.0000
  C   C636      1.0  0.55258  0.50816  0.79093  1.0000
  C   C637      1.0  0.49666  0.49728  0.77421  1.0000
  H   H501      1.0  0.61217  0.75802  0.62994  1.0000
  C   C638      1.0  0.38068  0.54621  0.54692  1.0000
  H   H502      1.0  0.59438  0.97382  0.76635  1.0000
  C   C639      1.0  0.56982  0.51196  0.75941  1.0000
  C   C640      1.0  0.65882  0.61924  0.69907  1.0000
  H   H503      1.0  0.33770  0.71612  0.76965  1.0000
  H   H504      1.0  0.45310  0.58359  0.92261  1.0000
  C   C641      1.0  0.64048  0.94862  0.95044  1.0000
  C   C642      1.0  0.51560  0.88259  0.93408  1.0000
  C   C643      1.0  0.48257  0.50829  0.92450  1.0000
  C   C644      1.0  0.33229  0.54695  0.55841  1.0000
  C   C645      1.0  0.49470  0.50584  0.73580  1.0000
  C   C646      1.0  0.45644  0.57712  0.95203  1.0000
  H   H505      1.0  0.43783  0.52792  0.80655  1.0000
  C   C647      1.0  0.65641  0.64937  0.58073  1.0000
  C   C648      1.0  0.33447  0.68401  0.58523  1.0000
  H   H506      1.0  0.49802  0.59134  0.95225  1.0000
  C   C649      1.0  0.49510  0.98495  0.95125  1.0000
  C   C650      1.0  0.65585  0.91938  0.68408  1.0000
  C   C651      1.0  0.64794  0.96397  0.54357  1.0000
  H   H507      1.0  0.64216  0.94232  0.55361  1.0000
  H   H508      1.0  0.49854  0.86763  0.93530  1.0000
  H   H509      1.0  0.65563  0.90195  0.74135  1.0000
  H   H510      1.0  0.60193  0.53792  0.73456  1.0000
  C   C652      1.0  0.65807  0.85198  0.82088  1.0000
  C   C653      1.0  0.65488  0.66795  0.50478  1.0000
  H   H511      1.0  0.51103  0.50110  0.71611  1.0000
  H   H512      1.0  0.65437  0.67513  0.47533  1.0000
  C   C654      1.0  0.63965  0.98901  0.56341  1.0000
  H   H513      1.0  0.63915  0.97233  0.94789  1.0000
  H   H514      1.0  0.46271  0.50641  0.91154  1.0000
  Fe  Fe45      1.0  0.76232  0.43067  0.33352  1.0000
  S   S86       1.0  0.76637  0.44641  0.27227  1.0000
  S   S87       1.0  0.76693  0.45440  0.39222  1.0000
  Fe  Fe46      1.0  0.74942  0.36732  0.30732  1.0000
  S   S88       1.0  0.75269  0.37926  0.24569  1.0000
  S   S89       1.0  0.73207  0.32233  0.32296  1.0000
  Fe  Fe47      1.0  0.79040  0.40473  0.26147  1.0000
  S   S90       1.0  0.82378  0.39860  0.21559  1.0000
  Fe  Fe48      1.0  0.72845  0.41952  0.25989  1.0000
  S   S91       1.0  0.69567  0.43383  0.21642  1.0000
  S   S92       1.0  0.78847  0.39003  0.32319  1.0000
  S   S93       1.0  0.72309  0.40646  0.32114  1.0000
  Fe  Fe49      1.0  0.76494  0.08900  0.32380  1.0000
  S   S94       1.0  0.75061  0.07545  0.26492  1.0000
  S   S95       1.0  0.77618  0.06103  0.37740  1.0000
  Fe  Fe50      1.0  0.77201  0.15431  0.29673  1.0000
  S   S96       1.0  0.75826  0.14445  0.23727  1.0000
  S   S97       1.0  0.79162  0.19825  0.31141  1.0000
  Fe  Fe51      1.0  0.72542  0.11726  0.26489  1.0000
  S   S98       1.0  0.68009  0.12669  0.25330  1.0000
  Fe  Fe52      1.0  0.78481  0.10408  0.24188  1.0000
  S   S99       1.0  0.81381  0.09322  0.19230  1.0000
  S   S100      1.0  0.73819  0.12943  0.32506  1.0000
  S   S101      1.0  0.79994  0.11535  0.29999  1.0000
  C   C655      1.0  0.94875  0.47165  0.12689  1.0000
  C   C656      1.0  0.79274  0.15159  0.39571  1.0000
  H   H515      1.0  0.96735  0.14178  0.23302  1.0000
  H   H516      1.0  0.83531  0.02219  0.40419  1.0000
  Fe  Fe53      1.0  0.97712  0.09281  0.13358  1.0000
  S   S102      1.0  0.94420  0.09353  0.18060  1.0000
  S   S103      1.0  0.97721  0.11482  0.07586  1.0000
  H   H517      1.0  0.85327  0.04165  0.25343  1.0000
  H   H518      1.0  0.94524  0.35742  0.98888  1.0000
  C   C657      1.0  0.86091  0.11637  0.34887  1.0000
  C   C658      1.0  0.77021  0.16978  0.40146  1.0000
  Fe  Fe54      1.0  0.98230  0.40077  0.14269  1.0000
  S   S104      1.0  0.95329  0.40848  0.19333  1.0000
  S   S105      1.0  0.97142  0.39635  0.08084  1.0000
  H   H519      1.0  0.97041  0.25647  0.02936  1.0000
  H   H520      1.0  0.80790  0.15759  0.37474  1.0000
  C   C659      1.0  0.75234  0.13503  0.44724  1.0000
  H   H521      1.0  0.86155  0.00158  0.02394  1.0000
  H   H522      1.0  0.77158  0.01098  0.24159  1.0000
  H   H523      1.0  0.80417  0.36726  0.13214  1.0000
  C   C660      1.0  0.85011  0.09409  0.18941  1.0000
  C   C661      1.0  0.86649  0.10138  0.22063  1.0000
  C   C662      1.0  0.89510  0.10126  0.21725  1.0000
  C   C663      1.0  0.90788  0.09442  0.18243  1.0000
  C   C664      1.0  0.89151  0.08781  0.15093  1.0000
  C   C665      1.0  0.86287  0.08748  0.15451  1.0000
  H   H524      1.0  0.85708  0.10733  0.24726  1.0000
  H   H525      1.0  0.90743  0.10662  0.24180  1.0000
  H   H526      1.0  0.90090  0.08250  0.12396  1.0000
  H   H527      1.0  0.85051  0.08203  0.13002  1.0000
  C   C666      1.0  0.91724  0.40535  0.19896  1.0000
  C   C667      1.0  0.90524  0.41394  0.23367  1.0000
  C   C668      1.0  0.87685  0.41190  0.23947  1.0000
  C   C669      1.0  0.85992  0.40129  0.21049  1.0000
  C   C670      1.0  0.87197  0.39259  0.17580  1.0000
  C   C671      1.0  0.90038  0.39442  0.17017  1.0000
  H   H528      1.0  0.91800  0.42234  0.25628  1.0000
  H   H529      1.0  0.86806  0.41872  0.26626  1.0000
  H   H530      1.0  0.85921  0.38422  0.15319  1.0000
  H   H531      1.0  0.90933  0.38722  0.14372  1.0000
  C   C672      1.0  0.74917  0.28836  0.31679  1.0000
  C   C673      1.0  0.77718  0.28582  0.32248  1.0000
  C   C674      1.0  0.78978  0.25802  0.32104  1.0000
  C   C675      1.0  0.77462  0.23258  0.31323  1.0000
  C   C676      1.0  0.74667  0.23514  0.30685  1.0000
  C   C677      1.0  0.73395  0.26288  0.30914  1.0000
  H   H532      1.0  0.78904  0.30520  0.32887  1.0000
  H   H533      1.0  0.81142  0.25625  0.32593  1.0000
  H   H534      1.0  0.73492  0.21578  0.30019  1.0000
  H   H535      1.0  0.71224  0.26462  0.30499  1.0000
  H   H536      1.0  0.86286  0.41169  0.41270  1.0000
  C   C678      1.0  0.92823  0.01038  0.00167  1.0000
  C   C679      1.0  0.67501  0.33169  0.25591  1.0000
  C   C680      1.0  0.87181  0.12040  0.38526  1.0000
  H   H537      1.0  0.95318  0.46219  0.15455  1.0000
  C   C681      1.0  0.71407  0.27156  0.40408  1.0000
  C   C682      1.0  0.76477  0.03236  0.40893  1.0000
  H   H538      1.0  0.94726  0.06347  0.26415  1.0000
  C   C683      1.0  0.81278  0.02661  0.24352  1.0000
  C   C684      1.0  0.70787  0.24212  0.41152  1.0000
  H   H539      1.0  0.69905  0.28598  0.39127  1.0000
  H   H540      1.0  0.71885  0.41297  0.41427  1.0000
  C   C685      1.0  0.84746  0.43803  0.03544  1.0000
  C   C686      1.0  0.92000  0.35054  0.03801  1.0000
  C   C687      1.0  0.67317  0.19960  0.19947  1.0000
  C   C688      1.0  0.75011  0.16190  0.42783  1.0000
  P   P23       1.0  0.72043  0.18467  0.43402  1.0000
  H   H541      1.0  0.92293  0.43615  0.11021  1.0000
  C   C689      1.0  0.69339  0.44874  0.39589  1.0000
  H   H542      1.0  0.88485  0.40365  0.08469  1.0000
  H   H543      1.0  0.71041  0.46337  0.39157  1.0000
  H   H544      1.0  0.71934  0.48510  0.26028  1.0000
  H   H545      1.0  0.76822  0.18963  0.38464  1.0000
  H   H546      1.0  0.85046  0.08514  0.30542  1.0000
  C   C690      1.0  0.88086  0.09615  0.40626  1.0000
  H   H547      1.0  0.71155  0.30437  0.01990  1.0000
  C   C691      1.0  0.93145  0.36754  0.00905  1.0000
  H   H548      1.0  0.90478  0.01954  0.05200  1.0000
  C   C692      1.0  0.84077  0.45083  0.42755  1.0000
  C   C693      1.0  0.74003  0.28235  0.41186  1.0000
  C   C694      1.0  0.69572  0.32240  0.23150  1.0000
  C   C695      1.0  0.66715  0.33339  0.17702  1.0000
  H   H549      1.0  0.72023  0.08428  0.38241  1.0000
  H   H550      1.0  0.68025  0.37873  0.42429  1.0000
  C   C696      1.0  0.91371  0.04653  0.29710  1.0000
  C   C697      1.0  0.74090  0.28594  0.18286  1.0000
  C   C698      1.0  0.81525  0.46188  0.07741  1.0000
  H   H551      1.0  0.91325  0.06561  0.31541  1.0000
  C   C699      1.0  0.67642  0.40100  0.41471  1.0000
  H   H552      1.0  0.88669  0.04946  0.40719  1.0000
  C   C700      1.0  0.77867  0.27409  0.22497  1.0000
  C   C701      1.0  0.86086  0.42952  0.43297  1.0000
  C   C702      1.0  0.69815  0.42020  0.40905  1.0000
  C   C703      1.0  0.77078  0.39683  0.14160  1.0000
  C   C704      1.0  0.74306  0.39933  0.14939  1.0000
  C   C705      1.0  0.72721  0.37411  0.15402  1.0000
  C   C706      1.0  0.74186  0.01511  0.40140  1.0000
  C   C707      1.0  0.99644  0.17316  0.21195  1.0000
  H   H553      1.0  0.93576  0.41034  0.98483  1.0000
  C   C708      1.0  0.87884  0.06785  0.39095  1.0000
  C   C709      1.0  0.76372  0.48863  0.41779  1.0000
  H   H554      1.0  0.75200  0.21182  0.18706  1.0000
  H   H555      1.0  0.72217  0.24794  0.15614  1.0000
  H   H556      1.0  0.94840  0.02147  0.21985  1.0000
  C   C710      1.0  0.70290  0.07392  0.39584  1.0000
  H   H557      1.0  0.79725  0.03967  0.44913  1.0000
  C   C711      1.0  0.69511  0.18210  0.36295  1.0000
  C   C712      1.0  0.73903  0.34609  0.15072  1.0000
  C   C713      1.0  0.68207  0.22254  0.22271  1.0000
  H   H558      1.0  0.76404  0.31780  0.21539  1.0000
  H   H559      1.0  0.78335  0.41632  0.14015  1.0000
  H   H560      1.0  0.73401  0.42083  0.15356  1.0000
  H   H561      1.0  0.70604  0.37679  0.16159  1.0000
  H   H562      1.0  0.94727  0.01774  0.01407  1.0000
  C   C714      1.0  0.79510  0.12517  0.41575  1.0000
  C   C715      1.0  0.86839  0.45601  0.04942  1.0000
  C   C716      1.0  0.89319  0.21523  0.05471  1.0000
  C   C717      1.0  0.91116  0.19535  0.03784  1.0000
  C   C718      1.0  0.93288  0.18398  0.05889  1.0000
  C   C719      1.0  0.93686  0.19259  0.09675  1.0000
  C   C720      1.0  0.91892  0.21266  0.11384  1.0000
  C   C721      1.0  0.89697  0.22377  0.09263  1.0000
  P   P24       1.0  0.92281  0.22345  0.16303  1.0000
  C   C722      1.0  0.89145  0.21317  0.18660  1.0000
  C   C723      1.0  0.95131  0.20407  0.18368  1.0000
  C   C724      1.0  0.94771  0.17794  0.20444  1.0000
  C   C725      1.0  0.97023  0.16260  0.21849  1.0000
  C   C726      1.0  0.97775  0.21442  0.17705  1.0000
  C   C727      1.0  0.87816  0.23225  0.21200  1.0000
  C   C728      1.0  0.85420  0.22346  0.23020  1.0000
  C   C729      1.0  0.84304  0.19586  0.22268  1.0000
  C   C730      1.0  0.85559  0.17718  0.19655  1.0000
  C   C731      1.0  0.87970  0.18568  0.17868  1.0000
  C   C732      1.0  0.93073  0.26221  0.16669  1.0000
  C   C733      1.0  0.93532  0.27478  0.20270  1.0000
  C   C734      1.0  0.94202  0.30454  0.20595  1.0000
  C   C735      1.0  0.94497  0.32180  0.17327  1.0000
  C   C736      1.0  0.94158  0.30923  0.13731  1.0000
  C   C737      1.0  0.93461  0.27954  0.13391  1.0000
  H   H563      1.0  0.87627  0.22393  0.03845  1.0000
  H   H564      1.0  0.90826  0.18866  0.00849  1.0000
  H   H565      1.0  0.94680  0.16853  0.04583  1.0000
  H   H566      1.0  0.95392  0.18343  0.11231  1.0000
  H   H567      1.0  0.88277  0.23900  0.10552  1.0000
  H   H568      1.0  0.92776  0.16873  0.20899  1.0000
  C   C738      1.0  0.78253  0.36909  0.13718  1.0000
  S   S106      1.0  0.98656  0.31446  0.05346  1.0000
  H   H569      1.0  0.88594  0.25392  0.21783  1.0000
  H   H570      1.0  0.84417  0.23802  0.25021  1.0000
  H   H571      1.0  0.82461  0.18892  0.23702  1.0000
  H   H572      1.0  0.84661  0.15601  0.19022  1.0000
  H   H573      1.0  0.88928  0.17059  0.15890  1.0000
  H   H574      1.0  0.93372  0.26152  0.22826  1.0000
  H   H575      1.0  0.94501  0.31436  0.23376  1.0000
  H   H576      1.0  0.95021  0.34486  0.17580  1.0000
  H   H577      1.0  0.94479  0.32246  0.11201  1.0000
  H   H578      1.0  0.93294  0.27025  0.10564  1.0000
  C   C739      1.0  0.75974  0.26383  0.42757  1.0000
  C   C740      1.0  0.89765  0.39382  0.06308  1.0000
  H   H579      1.0  0.73049  0.01866  0.37540  1.0000
  H   H580      1.0  0.98110  0.23380  0.15971  1.0000
  C   C741      1.0  0.85860  0.08805  0.33376  1.0000
  C   C742      1.0  0.93378  0.02170  0.24297  1.0000
  C   C743      1.0  0.72788  0.22308  0.42607  1.0000
  C   C744      1.0  0.93317  0.04542  0.26813  1.0000
  H   H581      1.0  0.74498  0.30497  0.40497  1.0000
  P   P25       1.0  0.86614  0.02754  0.33341  1.0000
  C   C745      1.0  0.86621  0.00010  0.37083  1.0000
  H   H582      1.0  0.92490  0.32734  0.04002  1.0000
  H   H583      1.0  0.71486  0.31547  0.24376  1.0000
  C   C746      1.0  0.90431  0.01134  0.02299  1.0000
  C   C747      1.0  0.90912  0.41118  0.03410  1.0000
  C   C748      1.0  0.69182  0.32275  0.19187  1.0000
  H   H584      1.0  0.70105  0.22046  0.23826  1.0000
  C   C749      1.0  0.87996  0.00136  0.00706  1.0000
  H   H585      1.0  0.77626  0.32250  0.13824  1.0000
  C   C750      1.0  0.86239  0.47714  0.07733  1.0000
  H   H586      1.0  0.68504  0.17953  0.19743  1.0000
  H   H587      1.0  0.73076  0.32487  0.07902  1.0000
  C   C751      1.0  0.68488  0.27741  0.11783  1.0000
  H   H588      1.0  0.81198  0.11047  0.41010  1.0000
  C   C752      1.0  0.67439  0.26551  0.08415  1.0000
  C   C753      1.0  0.83592  0.47996  0.09130  1.0000
  H   H589      1.0  0.67842  0.33181  0.28645  1.0000
  C   C754      1.0  0.70202  0.07110  0.43549  1.0000
  H   H590      1.0  0.68291  0.08927  0.18490  1.0000
  H   H591      1.0  0.67721  0.26974  0.14499  1.0000
  C   C755      1.0  0.92609  0.39773  0.00704  1.0000
  H   H592      1.0  0.68765  0.23420  0.40523  1.0000
  C   C756      1.0  0.89449  0.02389  0.30093  1.0000
  H   H593      1.0  0.79448  0.28122  0.24434  1.0000
  C   C757      1.0  0.76137  0.29482  0.20830  1.0000
  C   C758      1.0  0.70547  0.29871  0.11650  1.0000
  H   H594      1.0  0.70890  0.19931  0.35420  1.0000
  C   C759      1.0  0.90302  0.36365  0.06495  1.0000
  C   C760      1.0  0.83549  0.02359  0.30510  1.0000
  C   C761      1.0  0.78940  0.01429  0.25923  1.0000
  C   C762      1.0  0.75471  0.23506  0.19267  1.0000
  C   C763      1.0  0.76668  0.34380  0.14122  1.0000
  H   H595      1.0  0.85424  0.13517  0.33225  1.0000
  C   C764      1.0  0.77944  0.02669  0.44279  1.0000
  C   C765      1.0  0.93358  0.46786  0.97038  1.0000
  H   H596      1.0  0.81311  0.03270  0.21364  1.0000
  C   C766      1.0  0.69581  0.17099  0.40029  1.0000
  C   C767      1.0  0.71503  0.30836  0.08094  1.0000
  P   P26       1.0  0.71939  0.31332  0.16024  1.0000
  C   C768      1.0  0.70420  0.29674  0.04728  1.0000
  H   H597      1.0  0.79481  0.46398  0.08854  1.0000
  P   P27       1.0  0.90287  0.45045  0.03325  1.0000
  H   H598      1.0  0.78825  0.22814  0.23109  1.0000
  H   H599      1.0  0.67710  0.17851  0.30705  1.0000
  C   C769      1.0  0.77525  0.24422  0.21736  1.0000
  H   H600      1.0  0.82218  0.49007  0.44898  1.0000
  H   H601      1.0  0.89451  0.35056  0.08782  1.0000
  H   H602      1.0  0.82711  0.44946  0.40328  1.0000
  C   C770      1.0  0.73768  0.25579  0.17528  1.0000
  C   C771      1.0  0.86703  0.06357  0.35488  1.0000
  H   H603      1.0  0.68591  0.46799  0.30717  1.0000
  H   H604      1.0  0.87345  0.14235  0.39697  1.0000
  C   C772      1.0  0.75363  0.23438  0.43509  1.0000
  C   C773      1.0  0.68201  0.06250  0.37339  1.0000
  C   C774      1.0  0.83560  0.03160  0.26634  1.0000
  H   H605      1.0  0.67306  0.26549  0.24486  1.0000
  C   C775      1.0  0.93163  0.45689  0.10151  1.0000
  C   C776      1.0  0.68395  0.27528  0.04888  1.0000
  C   C777      1.0  0.89546  0.99994  0.27572  1.0000
  C   C778      1.0  0.82100  0.44099  0.04940  1.0000
  H   H606      1.0  0.85171  0.42148  0.01408  1.0000
  C   C779      1.0  0.67717  0.17033  0.33611  1.0000
  H   H607      1.0  0.80497  0.42690  0.03877  1.0000
  H   H608      1.0  0.67566  0.26622  0.02278  1.0000
  H   H609      1.0  0.68301  0.06442  0.34257  1.0000
  H   H610      1.0  0.88970  0.09928  0.43426  1.0000
  C   C780      1.0  0.98580  0.25377  0.05114  1.0000
  H   H611      1.0  0.76920  0.22040  0.44726  1.0000
  H   H612      1.0  0.77992  0.27223  0.43322  1.0000
  C   C781      1.0  0.81167  0.01161  0.32072  1.0000
  H   H613      1.0  0.98649  0.20629  0.04657  1.0000
  C   C782      1.0  0.99471  0.22523  0.06104  1.0000
  C   C783      1.0  0.91510  0.99882  0.24698  1.0000
  C   C784      1.0  0.67927  0.14694  0.40981  1.0000
  C   C785      1.0  0.66688  0.45835  0.38839  1.0000
  C   C786      1.0  0.92591  0.46896  0.06551  1.0000
  C   C787      1.0  0.69528  0.48931  0.31110  1.0000
  H   H614      1.0  0.87811  0.49119  0.08882  1.0000
  H   H615      1.0  0.68058  0.13683  0.43770  1.0000
  H   H616      1.0  0.95121  0.46142  0.98700  1.0000
  C   C788      1.0  0.90730  0.46471  0.98542  1.0000
  C   C789      1.0  0.78873  0.00715  0.29792  1.0000
  H   H617      1.0  0.86444  0.47202  0.97422  1.0000
  C   C790      1.0  0.77486  0.11685  0.44146  1.0000
  C   C791      1.0  0.84874  0.00333  0.40222  1.0000
  C   C792      1.0  0.66629  0.24792  0.22637  1.0000
  H   H618      1.0  0.77032  0.99847  0.31050  1.0000
  C   C793      1.0  0.92772  0.99987  0.96427  1.0000
  H   H619      1.0  0.81027  0.00591  0.35048  1.0000
  H   H620      1.0  0.66414  0.33534  0.14654  1.0000
  C   C794      1.0  0.88491  0.47376  0.96339  1.0000
  C   C795      1.0  0.67986  0.05735  0.45318  1.0000
  H   H621      1.0  0.71898  0.07914  0.45192  1.0000
  H   H622      1.0  0.92441  0.03797  0.90344  1.0000
  C   C796      1.0  0.94675  0.04495  0.85195  1.0000
  H   H623      1.0  0.76483  0.46728  0.47259  1.0000
  H   H624      1.0  0.72921  0.17210  0.57361  1.0000
  H   H625      1.0  0.78279  0.00063  0.49455  1.0000
  H   H626      1.0  0.95178  0.06745  0.85910  1.0000
  H   H627      1.0  0.75590  0.11448  0.54831  1.0000
  C   C797      1.0  0.93152  0.02796  0.87733  1.0000
  C   C798      1.0  0.77126  0.00451  0.46877  1.0000
  H   H628      1.0  0.96662  0.04636  0.79732  1.0000
  C   C799      1.0  0.71087  0.06028  0.52555  1.0000
  C   C800      1.0  0.72643  0.03595  0.53708  1.0000
  H   H629      1.0  0.70992  0.10773  0.52123  1.0000
  H   H630      1.0  0.71886  0.01378  0.53397  1.0000
  C   C801      1.0  0.67971  0.18585  0.48920  1.0000
  H   H631      1.0  0.85749  0.01902  0.90500  1.0000
  C   C802      1.0  0.85526  0.47563  0.48547  1.0000
  H   H632      1.0  0.76417  0.02090  0.56117  1.0000
  C   C803      1.0  0.70756  0.18226  0.48205  1.0000
  H   H633      1.0  0.80568  0.46241  0.51414  1.0000
  C   C804      1.0  0.75232  0.03994  0.55260  1.0000
  C   C805      1.0  0.71537  0.17563  0.54997  1.0000
  C   C806      1.0  0.76296  0.06820  0.55656  1.0000
  H   H634      1.0  0.88889  0.45495  0.51511  1.0000
  H   H635      1.0  0.67106  0.08254  0.57942  1.0000
  H   H636      1.0  0.78313  0.07111  0.56837  1.0000
  H   H637      1.0  0.76212  0.47875  0.61750  1.0000
  C   C807      1.0  0.66418  0.01995  0.51851  1.0000
  C   C808      1.0  0.72542  0.17784  0.51280  1.0000
  C   C809      1.0  0.87540  0.45413  0.49079  1.0000
  H   H638      1.0  0.74711  0.17624  0.50810  1.0000
  H   H639      1.0  0.90816  0.48172  0.63096  1.0000
  C   C810      1.0  0.72159  0.08867  0.52995  1.0000
  H   H640      1.0  0.81444  0.02364  0.86937  1.0000
  C   C811      1.0  0.74759  0.09259  0.54527  1.0000
  C   C812      1.0  0.77902  0.48354  0.59877  1.0000
  C   C813      1.0  0.95519  0.03306  0.81725  1.0000
  C   C814      1.0  0.78212  0.46820  0.56461  1.0000
  H   H641      1.0  0.98586  0.04304  0.91786  1.0000
  C   C815      1.0  0.80378  0.47472  0.54028  1.0000
  H   H642      1.0  0.76759  0.45141  0.55676  1.0000
  C   C816      1.0  0.67220  0.99464  0.49866  1.0000
  C   C817      1.0  0.76368  0.48820  0.45802  1.0000
  C   C818      1.0  0.66973  0.18374  0.52640  1.0000
  H   H643      1.0  0.89370  0.41457  0.46869  1.0000
  H   H644      1.0  0.73642  0.12783  0.46618  1.0000
  C   C819      1.0  0.68751  0.17841  0.55675  1.0000
  C   C820      1.0  0.87818  0.43117  0.46454  1.0000
  H   H645      1.0  0.99196  0.99873  0.87697  1.0000
  P   P28       1.0  0.67763  0.05536  0.50460  1.0000
  H   H646      1.0  0.86984  0.47363  0.58677  1.0000
  C   C821      1.0  0.99537  0.02361  0.92964  1.0000
  H   H647      1.0  0.98448  0.48075  0.55729  1.0000
  H   H648      1.0  0.67976  0.17687  0.58558  1.0000
  C   C822      1.0  0.88412  0.49117  0.58100  1.0000
  H   H649      1.0  0.68553  0.99626  0.47427  1.0000
  C   C823      1.0  0.83802  0.47384  0.45357  1.0000
  H   H650      1.0  0.95439  0.99512  0.78067  1.0000
  C   C824      1.0  0.94853  0.00410  0.80802  1.0000
  C   C825      1.0  0.93740  0.47986  0.93408  1.0000
  C   C826      1.0  0.85268  0.00302  0.88321  1.0000
  C   C827      1.0  0.82841  0.00596  0.86272  1.0000
  C   C828      1.0  0.92532  0.99859  0.86865  1.0000
  H   H651      1.0  0.94655  0.99860  0.94853  1.0000
  H   H652      1.0  0.77616  0.09568  0.45560  1.0000
  H   H653      1.0  0.66570  0.19043  0.46608  1.0000
  C   C829      1.0  0.91506  0.48880  0.91240  1.0000
  C   C830      1.0  0.88882  0.48569  0.92701  1.0000
  H   H654      1.0  0.95777  0.48252  0.92292  1.0000
  H   H655      1.0  0.87152  0.49281  0.91021  1.0000
  C   C831      1.0  0.66489  0.93583  0.96246  1.0000
  H   H656      1.0  0.86055  0.98262  0.95798  1.0000
  C   C832      1.0  0.85551  0.56885  0.43673  1.0000
  H   H657      1.0  0.91537  0.98067  0.22705  1.0000
  H   H658      1.0  0.74195  0.53334  0.26833  1.0000
  H   H659      1.0  0.76174  0.51698  0.36883  1.0000
  H   H660      1.0  0.87283  0.52629  0.44669  1.0000
  C   C833      1.0  0.75999  0.54228  0.42131  1.0000
  C   C834      1.0  0.96028  0.49852  0.11667  1.0000
  H   H661      1.0  0.83497  0.61069  0.43406  1.0000
  C   C835      1.0  0.68798  0.50736  0.34186  1.0000
  C   C836      1.0  0.71438  0.49889  0.28447  1.0000
  C   C837      1.0  0.71961  0.54441  0.31917  1.0000
  C   C838      1.0  0.93697  0.49648  0.05592  1.0000
  H   H662      1.0  0.75851  0.56317  0.40670  1.0000
  H   H663      1.0  0.89610  0.93533  0.39667  1.0000
  H   H664      1.0  0.97379  0.50964  0.13626  1.0000
  H   H665      1.0  0.88037  0.98269  0.27740  1.0000
  C   C839      1.0  0.76170  0.51601  0.39962  1.0000
  H   H666      1.0  0.68596  0.89542  0.97510  1.0000
  C   C840      1.0  0.86505  0.95749  0.42890  1.0000
  H   H667      1.0  0.69406  0.55010  0.36788  1.0000
  H   H668      1.0  0.93240  0.50689  0.02893  1.0000
  H   H669      1.0  0.70422  0.51693  0.42414  1.0000
  H   H670      1.0  0.96337  0.53173  0.07313  1.0000
  C   C841      1.0  0.88286  0.95433  0.39816  1.0000
  H   H671      1.0  0.86589  0.57185  0.40981  1.0000
  H   H672      1.0  0.89744  0.97262  0.34578  1.0000
  C   C842      1.0  0.83821  0.59076  0.45039  1.0000
  C   C843      1.0  0.88349  0.97554  0.36921  1.0000
  H   H673      1.0  0.71571  0.98017  0.42115  1.0000
  C   C844      1.0  0.69993  0.53525  0.34532  1.0000
  C   C845      1.0  0.72685  0.52622  0.28876  1.0000
  C   C846      1.0  0.84801  0.98201  0.43093  1.0000
  C   C847      1.0  0.66706  0.90530  0.96565  1.0000
  H   H674      1.0  0.72917  0.56569  0.32239  1.0000
  C   C848      1.0  0.95433  0.51097  0.08122  1.0000
  C   C849      1.0  0.68484  0.52331  0.43617  1.0000
  H   H675      1.0  0.68212  0.94964  0.96936  1.0000
  H   H676      1.0  0.83150  0.49597  0.11328  1.0000
  H   H677      1.0  0.86438  0.94093  0.45112  1.0000
  C   C850      1.0  0.87941  0.99095  0.96951  1.0000
  H   H678      1.0  0.99421  0.52643  0.00405  1.0000
  C   C851      1.0  0.73351  0.99316  0.42755  1.0000
  Fe  Fe55      1.0  0.74455  0.93304  0.54924  1.0000
  S   S107      1.0  0.75251  0.94816  0.60988  1.0000
  S   S108      1.0  0.73554  0.96018  0.49422  1.0000
  Fe  Fe56      1.0  0.74718  0.86712  0.57388  1.0000
  S   S109      1.0  0.75579  0.87810  0.63497  1.0000
  S   S110      1.0  0.74202  0.82101  0.54880  1.0000
  Fe  Fe57      1.0  0.72267  0.91263  0.62839  1.0000
  S   S111      1.0  0.69161  0.91308  0.67810  1.0000
  Fe  Fe58      1.0  0.78468  0.91231  0.61236  1.0000
  S   S112      1.0  0.83048  0.91703  0.62550  1.0000
  S   S113      1.0  0.71287  0.89976  0.56804  1.0000
  S   S114      1.0  0.77776  0.89917  0.55098  1.0000
  Fe  Fe59      1.0  0.75970  0.59247  0.55041  1.0000
  S   S115      1.0  0.75376  0.56401  0.60207  1.0000
  S   S116      1.0  0.75742  0.57595  0.48753  1.0000
  Fe  Fe60      1.0  0.76481  0.64851  0.60180  1.0000
  S   S117      1.0  0.75818  0.62223  0.65563  1.0000
  S   S118      1.0  0.77631  0.69596  0.61673  1.0000
  Fe  Fe61      1.0  0.78783  0.59025  0.62967  1.0000
  S   S119      1.0  0.82357  0.56842  0.66190  1.0000
  Fe  Fe62      1.0  0.72479  0.59915  0.62333  1.0000
  S   S120      1.0  0.68093  0.58571  0.63946  1.0000
  S   S121      1.0  0.79535  0.61688  0.57679  1.0000
  S   S122      1.0  0.72986  0.62722  0.57073  1.0000
  Fe  Fe63      1.0  0.97300  0.60753  0.76875  1.0000
  S   S123      1.0  0.97633  0.61009  0.83307  1.0000
  S   S124      1.0  0.93436  0.61939  0.73413  1.0000
  H   H679      1.0  0.73405  0.76221  0.52186  1.0000
  H   H680      1.0  0.76180  0.51353  0.51049  1.0000
  H   H681      1.0  0.74609  0.71303  0.54790  1.0000
  C   C852      1.0  0.89894  0.53267  0.54304  1.0000
  C   C853      1.0  0.76516  0.73029  0.59828  1.0000
  C   C854      1.0  0.77183  0.75611  0.61823  1.0000
  Fe  Fe64      1.0  0.96120  0.91056  0.77156  1.0000
  C   C855      1.0  0.67311  0.69658  0.71799  1.0000
  S   S125      1.0  0.91475  0.91509  0.76553  1.0000
  H   H682      1.0  0.83665  0.94980  0.79987  1.0000
  C   C856      1.0  0.76522  0.78407  0.60343  1.0000
  H   H683      1.0  0.78261  0.75449  0.64502  1.0000
  H   H684      1.0  0.81884  0.69905  0.75519  1.0000
  H   H685      1.0  0.81097  0.76530  0.72509  1.0000
  C   C857      1.0  0.75138  0.78647  0.56870  1.0000
  C   C858      1.0  0.95106  0.90498  0.91202  1.0000
  H   H686      1.0  0.92488  0.85340  0.70898  1.0000
  H   H687      1.0  0.77086  0.80372  0.61883  1.0000
  C   C859      1.0  0.74450  0.76061  0.54893  1.0000
  H   H688      1.0  0.70562  0.85017  0.67014  1.0000
  H   H689      1.0  0.91648  0.71666  0.58000  1.0000
  C   C860      1.0  0.75120  0.73266  0.56369  1.0000
  H   H690      1.0  0.87563  0.68711  0.56427  1.0000
  C   C861      1.0  0.86502  0.96116  0.84426  1.0000
  C   C862      1.0  0.84519  0.53852  0.49205  1.0000
  C   C863      1.0  0.66419  0.96681  0.51120  1.0000
  C   C864      1.0  0.85432  0.58313  0.68167  1.0000
  C   C865      1.0  0.86107  0.61296  0.67913  1.0000
  C   C866      1.0  0.88557  0.62345  0.69532  1.0000
  C   C867      1.0  0.90372  0.60446  0.71443  1.0000
  C   C868      1.0  0.89705  0.57460  0.71683  1.0000
  C   C869      1.0  0.87260  0.56408  0.70051  1.0000
  H   H691      1.0  0.84737  0.62796  0.66482  1.0000
  H   H692      1.0  0.89047  0.64652  0.69318  1.0000
  H   H693      1.0  0.91063  0.55964  0.73144  1.0000
  H   H694      1.0  0.86768  0.54099  0.70278  1.0000
  H   H695      1.0  0.96721  0.62078  0.66462  1.0000
  C   C870      1.0  0.84468  0.74992  0.59374  1.0000
  H   H696      1.0  0.97262  0.90041  0.91434  1.0000
  C   C871      1.0  0.69400  0.83047  0.67604  1.0000
  C   C872      1.0  0.93226  0.88217  0.91518  1.0000
  C   C873      1.0  0.85349  0.91432  0.66490  1.0000
  C   C874      1.0  0.88161  0.91639  0.65793  1.0000
  C   C875      1.0  0.90069  0.91585  0.68810  1.0000
  C   C876      1.0  0.89190  0.91339  0.72588  1.0000
  C   C877      1.0  0.86382  0.91058  0.73281  1.0000
  C   C878      1.0  0.84474  0.91093  0.70260  1.0000
  H   H697      1.0  0.88870  0.91897  0.62895  1.0000
  H   H698      1.0  0.92213  0.91807  0.68215  1.0000
  H   H699      1.0  0.85675  0.90844  0.76183  1.0000
  H   H700      1.0  0.82325  0.90926  0.70853  1.0000
  H   H701      1.0  0.67868  0.62909  0.70203  1.0000
  H   H702      1.0  0.66990  0.81934  0.78001  1.0000
  H   H703      1.0  0.82823  0.85277  0.64403  1.0000
  H   H704      1.0  0.66387  0.85361  0.70804  1.0000
  H   H705      1.0  0.86042  0.82617  0.77284  1.0000
  S   S126      1.0  0.97324  0.88565  0.82467  1.0000
  H   H706      1.0  0.78609  0.81197  0.73681  1.0000
  S   S127      1.0  0.98946  0.88485  0.73428  1.0000
  C   C879      1.0  0.70053  0.69081  0.71092  1.0000
  H   H707      1.0  0.97071  0.77231  0.64189  1.0000
  H   H708      1.0  0.98512  0.52881  0.67350  1.0000
  C   C880      1.0  0.82229  0.49707  0.54966  1.0000
  C   C881      1.0  0.82209  0.83345  0.52073  1.0000
  C   C882      1.0  0.96728  0.75443  0.66173  1.0000
  H   H709      1.0  0.85437  0.89729  0.54213  1.0000
  H   H710      1.0  0.83307  0.52953  0.59233  1.0000
  C   C883      1.0  0.98099  0.70776  0.68894  1.0000
  H   H711      1.0  0.93454  0.55520  0.56360  1.0000
  H   H712      1.0  0.92875  0.96443  0.82590  1.0000
  H   H713      1.0  0.82269  0.87618  0.49438  1.0000
  C   C884      1.0  0.74799  0.98765  0.46159  1.0000
  C   C885      1.0  0.76202  0.51445  0.47970  1.0000
  C   C886      1.0  0.91438  0.93998  0.90254  1.0000
  H   H714      1.0  0.67139  0.94739  0.49641  1.0000
  C   C887      1.0  0.90584  0.49567  0.60609  1.0000
  H   H715      1.0  0.93927  0.85985  0.91968  1.0000
  C   C888      1.0  0.84758  0.72130  0.57997  1.0000
  C   C889      1.0  0.85919  0.54294  0.45761  1.0000
  C   C890      1.0  0.94505  0.75541  0.68646  1.0000
  C   C891      1.0  0.94101  0.73288  0.71328  1.0000
  C   C892      1.0  0.95882  0.70871  0.71378  1.0000
  P   P29       1.0  0.91323  0.73523  0.74674  1.0000
  C   C893      1.0  0.88232  0.72006  0.72709  1.0000
  C   C894      1.0  0.92211  0.71361  0.78827  1.0000
  C   C895      1.0  0.91578  0.68350  0.78919  1.0000
  C   C896      1.0  0.92388  0.66606  0.82000  1.0000
  C   C897      1.0  0.93839  0.67847  0.85016  1.0000
  C   C898      1.0  0.94468  0.70836  0.84960  1.0000
  C   C899      1.0  0.93675  0.72589  0.81874  1.0000
  C   C900      1.0  0.85981  0.71550  0.75096  1.0000
  C   C901      1.0  0.83607  0.70275  0.73663  1.0000
  C   C902      1.0  0.83477  0.69396  0.69856  1.0000
  C   C903      1.0  0.85726  0.69781  0.67492  1.0000
  C   C904      1.0  0.88093  0.71100  0.68891  1.0000
  C   C905      1.0  0.90901  0.77345  0.75987  1.0000
  C   C906      1.0  0.93199  0.79074  0.76753  1.0000
  C   C907      1.0  0.92913  0.82018  0.77800  1.0000
  C   C908      1.0  0.90334  0.83286  0.78028  1.0000
  C   C909      1.0  0.88037  0.81610  0.77180  1.0000
  C   C910      1.0  0.88314  0.78651  0.76165  1.0000
  H   H716      1.0  0.87943  0.94438  0.83564  1.0000
  C   C911      1.0  0.66405  0.69727  0.64985  1.0000
  C   C912      1.0  0.92067  0.53707  0.56816  1.0000
  H   H717      1.0  0.93139  0.77408  0.68525  1.0000
  H   H718      1.0  0.95601  0.69074  0.73369  1.0000
  H   H719      1.0  0.90539  0.67309  0.76555  1.0000
  C   C913      1.0  0.88039  0.50976  0.54940  1.0000
  H   H720      1.0  0.94546  0.66479  0.87349  1.0000
  H   H721      1.0  0.95668  0.71769  0.87250  1.0000
  H   H722      1.0  0.94277  0.74867  0.81863  1.0000
  H   H723      1.0  0.86079  0.72146  0.78083  1.0000
  H   H724      1.0  0.81653  0.68362  0.68744  1.0000
  H   H725      1.0  0.85640  0.68975  0.64599  1.0000
  H   H726      1.0  0.89820  0.71335  0.67017  1.0000
  H   H727      1.0  0.95222  0.78144  0.76557  1.0000
  H   H728      1.0  0.94703  0.83323  0.78401  1.0000
  H   H729      1.0  0.79525  0.51724  0.63522  1.0000
  H   H730      1.0  0.95706  0.95117  0.90333  1.0000
  H   H731      1.0  0.86506  0.77416  0.75508  1.0000
  C   C914      1.0  0.85063  0.82735  0.57695  1.0000
  C   C915      1.0  0.85857  0.85691  0.57359  1.0000
  C   C916      1.0  0.84883  0.87427  0.54363  1.0000
  H   H732      1.0  0.82963  0.70822  0.57404  1.0000
  C   C917      1.0  0.67409  0.77933  0.56801  1.0000
  C   C918      1.0  0.70981  0.68852  0.67343  1.0000
  C   C919      1.0  0.89499  0.82106  0.63189  1.0000
  C   C920      1.0  0.91600  0.82543  0.60541  1.0000
  C   C921      1.0  0.89642  0.72609  0.58350  1.0000
  C   C922      1.0  0.94354  0.84860  0.65403  1.0000
  C   C923      1.0  0.92263  0.84478  0.68037  1.0000
  C   C924      1.0  0.89845  0.83101  0.66948  1.0000
  H   H733      1.0  0.91166  0.76715  0.60364  1.0000
  H   H734      1.0  0.87155  0.86704  0.59475  1.0000
  H   H735      1.0  0.80700  0.82475  0.50124  1.0000
  C   C925      1.0  0.81498  0.78443  0.70757  1.0000
  H   H736      1.0  0.95228  0.56993  0.67737  1.0000
  C   C926      1.0  0.68772  0.77805  0.66971  1.0000
  C   C927      1.0  0.94026  0.83889  0.61656  1.0000
  C   C928      1.0  0.86757  0.76731  0.60142  1.0000
  C   C929      1.0  0.99172  0.55084  0.66647  1.0000
  C   C930      1.0  0.87346  0.70942  0.57462  1.0000
  C   C931      1.0  0.83400  0.78272  0.67808  1.0000
  H   H737      1.0  0.91958  0.64270  0.81981  1.0000
  C   C932      1.0  0.84084  0.96429  0.82365  1.0000
  H   H738      1.0  0.95628  0.84247  0.59594  1.0000
  H   H739      1.0  0.88235  0.82899  0.69024  1.0000
  P   P30       1.0  0.86315  0.80521  0.61626  1.0000
  C   C933      1.0  0.83085  0.86246  0.51695  1.0000
  H   H740      1.0  0.90121  0.85579  0.78812  1.0000
  S   S128      1.0  0.99220  0.94645  0.78163  1.0000
  H   H741      1.0  0.89641  0.54760  0.51927  1.0000
  C   C934      1.0  0.82245  0.98653  0.83304  1.0000
  H   H742      1.0  0.91337  0.81885  0.57596  1.0000
  H   H743      1.0  0.82447  0.75844  0.59835  1.0000
  H   H744      1.0  0.66713  0.62365  0.49102  1.0000
  H   H745      1.0  0.71459  0.68790  0.73442  1.0000
  C   C935      1.0  0.89552  0.91713  0.90712  1.0000
  H   H746      1.0  0.72101  0.80211  0.64503  1.0000
  H   H747      1.0  0.70344  0.54345  0.48529  1.0000
  C   C936      1.0  0.69171  0.69182  0.64297  1.0000
  H   H748      1.0  0.84477  0.76229  0.67363  1.0000
  H   H749      1.0  0.67780  0.85240  0.83456  1.0000
  C   C937      1.0  0.79764  0.50533  0.60868  1.0000
  H   H750      1.0  0.69462  0.75705  0.65882  1.0000
  C   C938      1.0  0.92405  0.51868  0.59976  1.0000
  C   C939      1.0  0.83870  0.80714  0.65446  1.0000
  C   C940      1.0  0.83191  0.81595  0.55053  1.0000
  C   C941      1.0  0.87081  0.98009  0.87483  1.0000
  H   H751      1.0  0.69943  0.69019  0.61413  1.0000
  C   C942      1.0  0.80600  0.83522  0.69130  1.0000
  C   C943      1.0  0.80095  0.81066  0.71414  1.0000
  C   C944      1.0  0.82472  0.83348  0.66149  1.0000
  H   H752      1.0  0.82415  0.79391  0.55297  1.0000
  H   H753      1.0  0.79529  0.85567  0.69641  1.0000
  H   H754      1.0  0.96203  0.85973  0.66251  1.0000
  C   C945      1.0  0.89354  0.75491  0.59685  1.0000
  C   C946      1.0  0.90317  0.99106  0.94742  1.0000
  H   H755      1.0  0.81697  0.55813  0.53212  1.0000
  C   C947      1.0  0.98151  0.60278  0.66163  1.0000
  C   C948      1.0  0.70273  0.80338  0.66204  1.0000
  C   C949      1.0  0.94219  0.93376  0.90555  1.0000
  H   H756      1.0  0.73109  0.68414  0.66791  1.0000
  C   C950      1.0  0.82812  0.56081  0.50580  1.0000
  H   H757      1.0  0.87393  0.92160  0.90656  1.0000
  H   H758      1.0  0.81103  0.60368  0.49525  1.0000
  H   H759      1.0  0.99496  0.68935  0.69025  1.0000
  C   C951      1.0  0.66926  0.74971  0.57628  1.0000
  C   C952      1.0  0.97308  0.57400  0.66871  1.0000
  H   H760      1.0  0.66773  0.60709  0.55856  1.0000
  C   C953      1.0  0.81906  0.51226  0.58418  1.0000
  H   H761      1.0  0.68366  0.73335  0.56645  1.0000
  C   C954      1.0  0.98536  0.73071  0.66315  1.0000
  P   P31       1.0  0.85090  0.50526  0.51915  1.0000
  C   C955      1.0  0.93390  0.98679  0.83373  1.0000
  H   H762      1.0  0.69170  0.78568  0.55150  1.0000
  H   H763      1.0  0.94048  0.52256  0.61971  1.0000
  H   H764      1.0  0.91815  0.49833  0.88439  1.0000
  H   H765      1.0  0.88989  0.87061  0.91572  1.0000
  C   C956      1.0  0.76028  0.54185  0.46159  1.0000
  C   C957      1.0  0.82476  0.58683  0.48501  1.0000
  C   C958      1.0  0.67012  0.83236  0.69733  1.0000
  H   H766      1.0  0.66584  0.69820  0.74705  1.0000
  P   P32       1.0  0.90311  0.97755  0.89903  1.0000
  C   C959      1.0  0.68449  0.53804  0.47112  1.0000
  H   H767      1.0  0.80384  0.98904  0.81679  1.0000
  C   C960      1.0  0.90447  0.88825  0.91280  1.0000
  H   H768      1.0  0.83400  0.98438  0.45457  1.0000
