data_image0
_chemical_formula_structural       H2C2S2FeS2HCFeCHSC4FeCHC2H4C5H4C2HC5HCHCH2CH3C6HC3H2CHCHFeSHPC3H5CHC3H2CH3C2SCFeSCHCFeSHSFeS2FeS2FeSFeS3C2H3CHC2HC2HCH2C2H2C9H4C3H7CH2CHCHCH3FeC3HCH2C2FeH2C2H2SHC2HC3HC2HC2H4CHC4H8CHCHC3HC2SCHC5HCHC2HC3HCHCHCH5C2PCPH2C3PC8HC5H2C4H2CHCPH3C2HC2HCH2SCHC2HCHCFeS2FeS2FeSFeS3HC8H3CH2C2HCH3CHCHC4H4C3SCPC3HCH5C7H2C3H2CH11C2H3C2HC4H3PSCHC5HC2HCSC2HCH3CH2C2HC4PC6HC4H2CHC2H3C3HSC2HC2SC2HCFeSC2SCH3SHSFeS2FeSFeCSC3H2CH7C7H9CHC2HC4HPCH4CHCH3CSHC6HCHCFeCHC3SC2HC5HC3HCHCHCHC2PC2H3C2H2SCH2C4H3C2FeC4SH2C3HC2H3CH2CHSC2SH2CFeSCSFeSCFeS2FeHFeS3HC2HCHC4HC6H4SC4H2CHCH2CHCSCH2C6PSH2C3HC3H3CHCH2C3H4C2HCHC2H3CHC2HCHC3H3C2H2C3HC2HC2SC3H2CHFeC4HC2H2C2HPH2C2HCHSHC2H2CHSCHCPCH3C2SHCPH2C3H2C2HFeH4CHPHCH2C3HCHCH3C3HC3HC2HCHCH2C3HCH2CFeCFeHC4FeC2HCH2C2H2CHC3PCFeS2FeS2FeSFeS3Fe3S2FeHS2CHSPC7H4C3H3C2H4C8HC2H4C2HC3H4C6PC4H2C3HCHC6H5CHPH4C2H5CHC6HC2SC2H2C2HC3HPHCH2C3HC3HC2HSC3HCH4CHCH2SC3HSC2H3CH3CHCH5CH2C9HCH3C2H2CHC2H2C3HC2HCH3CH2C2H6C2HC2HC2HCHC2HC2HC3H2C2H3CHCH4C2HC4PHSH2C3H2CHC3HC3PH3C3HCHCHC2HC5HC2H2C2H4CH2C2H3CH2C2HSCFeSHCHFeSHSH2SHCFeHC3SH3CHCH3C3H2C3HCHCH3CHFeC5H2PC2H3C3HC6HC2H2C5SHC3H3CHSCFeSFeSFeHSHFeSFeS2FeS2HPC6H6CSCHC2HCHFeCH2SC4H3C4H4C13H2CHSHCH2CH2C2H2C2H3CHPH2CHC5HC6H7SH2C4HC2H3C4H2C3H4C2HC2HPHCHCH2C2H4CHC2HC2HC2HC3H2C3HC2H3C3HC3SH2C7HC2HCHCH2C3H2CHSCH2C3HS2C2SFeSFeHSCHCH2C2SCFeH3CH3CHCH2C2HCHCH2C2PHC2H2C8HC2HC2SC3HCHCFeH3CHS2H2C3HCHC5H3CHC4HCHCH2CPCHCHC3FeC2H4CHC
_chemical_formula_sum              "H672 C840 S112 Fe56 P28"
_cell_length_a       37.6728
_cell_length_b       43.314
_cell_length_c       58.4983
_cell_angle_alpha    84.3934
_cell_angle_beta     84.4829
_cell_angle_gamma    116.852

_space_group_name_H-M_alt    "P 1"
_space_group_IT_number       1

loop_
  _space_group_symop_operation_xyz
  'x, y, z'

loop_
  _atom_site_type_symbol
  _atom_site_label
  _atom_site_symmetry_multiplicity
  _atom_site_fract_x
  _atom_site_fract_y
  _atom_site_fract_z
  _atom_site_occupancy
  H   H1        1.0  0.30748  0.44811  0.00913  1.0000
  H   H2        1.0  0.34126  0.39406  0.07684  1.0000
  C   C1        1.0  0.20518  0.43354  0.24388  1.0000
  C   C2        1.0  0.35736  0.10956  0.29931  1.0000
  S   S1        1.0  0.28370  0.36826  0.27236  1.0000
  S   S2        1.0  0.36469  0.36695  0.28684  1.0000
  Fe  Fe1       1.0  0.36915  0.40792  0.30903  1.0000
  S   S3        1.0  0.38095  0.41488  0.22316  1.0000
  S   S4        1.0  0.24327  0.42349  0.29932  1.0000
  H   H3        1.0  0.38461  0.10999  0.30416  1.0000
  C   C3        1.0  0.22847  0.47527  0.31378  1.0000
  Fe  Fe2       1.0  0.35015  0.39907  0.26047  1.0000
  C   C4        1.0  0.33444  0.11979  0.31400  1.0000
  H   H4        1.0  0.33617  0.27935  0.29118  1.0000
  S   S5        1.0  0.35820  0.44139  0.28181  1.0000
  C   C5        1.0  0.38866  0.46360  0.18676  1.0000
  C   C6        1.0  0.34542  0.09920  0.27825  1.0000
  C   C7        1.0  0.32177  0.45230  0.04382  1.0000
  C   C8        1.0  0.27417  0.19153  0.29805  1.0000
  Fe  Fe3       1.0  0.29254  0.40752  0.29626  1.0000
  C   C9        1.0  0.29082  0.22720  0.28924  1.0000
  H   H5        1.0  0.35214  0.38328  0.17046  1.0000
  C   C10       1.0  0.25074  0.45682  0.31596  1.0000
  C   C11       1.0  0.12098  0.47167  0.28587  1.0000
  H   H6        1.0  0.30728  0.42045  0.22947  1.0000
  H   H7        1.0  0.19304  0.37380  0.20773  1.0000
  H   H8        1.0  0.21792  0.06240  0.31787  1.0000
  H   H9        1.0  0.25835  0.43305  0.08017  1.0000
  C   C12       1.0  0.37246  0.42125  0.11369  1.0000
  C   C13       1.0  0.31836  0.40567  0.02304  1.0000
  C   C14       1.0  0.31942  0.40721  0.15470  1.0000
  C   C15       1.0  0.31637  0.42541  0.13451  1.0000
  C   C16       1.0  0.20752  0.45775  0.20433  1.0000
  H   H10       1.0  0.31826  0.47571  0.04414  1.0000
  H   H11       1.0  0.09888  0.44754  0.29676  1.0000
  H   H12       1.0  0.20784  0.43641  0.26190  1.0000
  H   H13       1.0  0.20067  0.42342  0.17897  1.0000
  C   C17       1.0  0.37543  0.40310  0.13396  1.0000
  C   C18       1.0  0.29083  0.18007  0.31534  1.0000
  H   H14       1.0  0.27708  0.23627  0.27653  1.0000
  C   C19       1.0  0.32427  0.25160  0.29751  1.0000
  C   C20       1.0  0.34294  0.43269  0.11376  1.0000
  C   C21       1.0  0.29883  0.11887  0.30797  1.0000
  C   C22       1.0  0.33195  0.43778  0.06313  1.0000
  C   C23       1.0  0.32779  0.39063  0.04224  1.0000
  H   H15       1.0  0.31316  0.39336  0.00757  1.0000
  C   C24       1.0  0.31341  0.45904  0.20113  1.0000
  H   H16       1.0  0.24817  0.17309  0.29147  1.0000
  C   C25       1.0  0.31084  0.09950  0.27172  1.0000
  H   H17       1.0  0.29976  0.40277  0.17081  1.0000
  H   H18       1.0  0.29407  0.43468  0.13560  1.0000
  C   C26       1.0  0.20116  0.42598  0.19718  1.0000
  H   H19       1.0  0.39411  0.42751  0.09818  1.0000
  H   H20       1.0  0.32979  0.36652  0.04165  1.0000
  H   H21       1.0  0.20052  0.34268  0.31068  1.0000
  C   C27       1.0  0.34906  0.39626  0.15449  1.0000
  C   C28       1.0  0.32653  0.43835  0.21409  1.0000
  C   C29       1.0  0.20959  0.46177  0.22779  1.0000
  C   C30       1.0  0.19964  0.07534  0.32122  1.0000
  C   C31       1.0  0.31521  0.43645  0.02388  1.0000
  C   C32       1.0  0.19906  0.40191  0.23670  1.0000
  H   H22       1.0  0.26172  0.11067  0.28083  1.0000
  C   C33       1.0  0.36413  0.44049  0.20689  1.0000
  C   C34       1.0  0.34144  0.24033  0.31442  1.0000
  C   C35       1.0  0.47184  0.47263  0.25283  1.0000
  H   H23       1.0  0.20584  0.46805  0.30250  1.0000
  H   H24       1.0  0.19691  0.38073  0.24923  1.0000
  C   C36       1.0  0.19703  0.39810  0.21334  1.0000
  H   H25       1.0  0.39878  0.39504  0.13398  1.0000
  C   C37       1.0  0.23574  0.46459  0.09586  1.0000
  H   H26       1.0  0.15108  0.44675  0.26860  1.0000
  Fe  Fe4       1.0  0.29849  0.33981  0.30097  1.0000
  S   S6        1.0  0.25670  0.28139  0.30832  1.0000
  H   H27       1.0  0.28397  0.45672  0.20642  1.0000
  P   P1        1.0  0.34257  0.46005  0.08829  1.0000
  C   C38       1.0  0.26568  0.45501  0.08948  1.0000
  C   C39       1.0  0.33453  0.40654  0.06221  1.0000
  C   C40       1.0  0.30436  0.47340  0.09536  1.0000
  H   H28       1.0  0.36330  0.09142  0.26684  1.0000
  H   H29       1.0  0.30204  0.09218  0.25517  1.0000
  H   H30       1.0  0.14439  0.02962  0.31888  1.0000
  H   H31       1.0  0.44064  0.42566  0.27801  1.0000
  H   H32       1.0  0.41771  0.46520  0.18115  1.0000
  C   C41       1.0  0.15793  0.05653  0.32199  1.0000
  H   H33       1.0  0.20614  0.45060  0.09105  1.0000
  C   C42       1.0  0.15075  0.47133  0.26977  1.0000
  C   C43       1.0  0.28786  0.10970  0.28639  1.0000
  C   C44       1.0  0.46950  0.44512  0.26858  1.0000
  H   H34       1.0  0.44428  0.47332  0.24992  1.0000
  H   H35       1.0  0.17043  0.27786  0.31892  1.0000
  C   C45       1.0  0.46461  0.46953  0.32263  1.0000
  H   H36       1.0  0.21209  0.47934  0.19135  1.0000
  H   H37       1.0  0.28442  0.48095  0.24029  1.0000
  H   H38       1.0  0.36710  0.25938  0.32095  1.0000
  C   C46       1.0  0.32510  0.20464  0.32314  1.0000
  C   C47       1.0  0.31402  0.04303  0.47444  1.0000
  S   S7        1.0  0.06851  0.09079  0.62063  1.0000
  C   C48       1.0  0.16976  0.27602  0.35590  1.0000
  Fe  Fe5       1.0  0.05497  0.12574  0.64165  1.0000
  S   S8        1.0  0.10935  0.17505  0.62410  1.0000
  C   C49       1.0  0.29976  0.98575  0.49407  1.0000
  H   H39       1.0  0.20659  0.02316  0.63243  1.0000
  C   C50       1.0  0.24646  0.25736  0.33641  1.0000
  Fe  Fe6       1.0  0.12580  0.13940  0.60545  1.0000
  S   S9        1.0  0.15471  0.15882  0.56770  1.0000
  H   H40       1.0  0.01839  0.11036  0.58982  1.0000
  S   S10       1.0  0.16115  0.13201  0.63245  1.0000
  Fe  Fe7       1.0  0.11104  0.08166  0.45535  1.0000
  S   S11       1.0  0.17798  0.10263  0.44768  1.0000
  S   S12       1.0  0.07438  0.06715  0.49109  1.0000
  Fe  Fe8       1.0  0.10075  0.07344  0.40493  1.0000
  S   S13       1.0  0.16722  0.09455  0.39317  1.0000
  S   S14       1.0  0.05919  0.05706  0.37813  1.0000
  Fe  Fe9       1.0  0.16469  0.06049  0.42543  1.0000
  S   S15       1.0  0.19925  0.02897  0.42535  1.0000
  Fe  Fe10      1.0  0.17432  0.13490  0.41619  1.0000
  S   S16       1.0  0.21995  0.19255  0.40853  1.0000
  S   S17       1.0  0.09758  0.03690  0.43565  1.0000
  S   S18       1.0  0.10781  0.11660  0.42549  1.0000
  C   C51       1.0  0.23073  0.45635  0.39907  1.0000
  C   C52       1.0  0.98789  0.04109  0.42842  1.0000
  H   H41       1.0  0.23875  0.14884  0.52480  1.0000
  H   H42       1.0  0.39467  0.41057  0.42700  1.0000
  H   H43       1.0  0.16175  0.43724  0.36230  1.0000
  C   C53       1.0  0.11640  0.00951  0.52318  1.0000
  H   H44       1.0  0.20780  0.23553  0.57281  1.0000
  C   C54       1.0  0.05141  0.98324  0.61254  1.0000
  C   C55       1.0  0.98914  0.02456  0.44984  1.0000
  H   H45       1.0  0.15353  0.37641  0.63894  1.0000
  C   C56       1.0  0.22917  0.21710  0.38075  1.0000
  C   C57       1.0  0.25893  0.25228  0.37622  1.0000
  H   H46       1.0  0.27555  0.26380  0.38983  1.0000
  C   C58       1.0  0.19372  0.06875  0.55922  1.0000
  H   H47       1.0  0.27209  0.04353  0.45189  1.0000
  H   H48       1.0  0.15823  0.24785  0.35933  1.0000
  C   C59       1.0  0.02786  0.01192  0.37863  1.0000
  C   C60       1.0  0.08543  0.35683  0.57939  1.0000
  H   H49       1.0  0.21410  0.02442  0.51559  1.0000
  H   H50       1.0  0.13304  0.00402  0.46585  1.0000
  C   C61       1.0  0.16972  0.28925  0.60835  1.0000
  C   C62       1.0  0.06260  0.32540  0.59474  1.0000
  C   C63       1.0  0.20772  0.20217  0.36314  1.0000
  C   C64       1.0  0.13195  0.13314  0.54657  1.0000
  C   C65       1.0  0.15135  0.14340  0.52338  1.0000
  C   C66       1.0  0.13419  0.12316  0.50624  1.0000
  C   C67       1.0  0.09740  0.09260  0.51221  1.0000
  C   C68       1.0  0.07800  0.08234  0.53536  1.0000
  C   C69       1.0  0.09502  0.10272  0.55246  1.0000
  H   H51       1.0  0.17977  0.16706  0.51867  1.0000
  H   H52       1.0  0.14924  0.13139  0.48839  1.0000
  H   H53       1.0  0.04991  0.05843  0.54010  1.0000
  H   H54       1.0  0.07981  0.09466  0.57022  1.0000
  C   C70       1.0  0.17662  0.29292  0.33311  1.0000
  C   C71       1.0  0.20979  0.40268  0.65123  1.0000
  C   C72       1.0  0.19824  0.24899  0.60651  1.0000
  H   H55       1.0  0.01526  0.06248  0.41855  1.0000
  H   H56       1.0  0.16449  0.38128  0.36714  1.0000
  H   H57       1.0  0.25213  0.31300  0.40248  1.0000
  H   H58       1.0  0.24843  0.16814  0.56325  1.0000
  H   H59       1.0  0.09315  0.00201  0.37129  1.0000
  H   H60       1.0  0.02718  0.01904  0.34176  1.0000
  H   H61       1.0  0.16573  0.02705  0.37355  1.0000
  C   C73       1.0  0.10887  0.00516  0.50045  1.0000
  H   H62       1.0  0.36143  0.43017  0.36609  1.0000
  H   H63       1.0  0.20826  0.23181  0.61529  1.0000
  C   C74       1.0  0.27969  0.46595  0.33071  1.0000
  H   H64       1.0  0.21913  0.37735  0.34248  1.0000
  C   C75       1.0  0.25582  0.99118  0.46815  1.0000
  H   H65       1.0  0.08005  0.00080  0.49579  1.0000
  C   C76       1.0  0.21660  0.22218  0.34097  1.0000
  H   H66       1.0  0.06321  0.28703  0.62049  1.0000
  H   H67       1.0  0.17626  0.28207  0.39136  1.0000
  H   H68       1.0  0.33262  0.07122  0.47105  1.0000
  Fe  Fe11      1.0  0.14093  0.16499  0.65226  1.0000
  C   C77       1.0  0.14635  0.36049  0.59212  1.0000
  C   C78       1.0  0.22803  0.01508  0.57595  1.0000
  C   C79       1.0  0.12358  0.32905  0.60771  1.0000
  H   H69       1.0  0.10091  0.05687  0.32939  1.0000
  C   C80       1.0  0.42382  0.44835  0.39575  1.0000
  H   H70       1.0  0.01731  0.03328  0.45665  1.0000
  H   H71       1.0  0.26857  0.17188  0.36500  1.0000
  C   C81       1.0  0.32381  0.02217  0.48969  1.0000
  C   C82       1.0  0.01695  0.00036  0.35764  1.0000
  Fe  Fe12      1.0  0.10230  0.08613  0.64932  1.0000
  H   H72       1.0  0.35003  0.03424  0.49817  1.0000
  H   H73       1.0  0.13123  0.11758  0.33780  1.0000
  C   C83       1.0  0.99475  0.09049  0.48139  1.0000
  C   C84       1.0  0.01421  0.98741  0.39913  1.0000
  H   H74       1.0  0.32239  0.32304  0.39511  1.0000
  H   H75       1.0  0.25326  0.42195  0.41257  1.0000
  S   S19       1.0  0.99510  0.12584  0.64765  1.0000
  H   H76       1.0  0.22287  0.12417  0.59913  1.0000
  C   C85       1.0  0.27477  0.12668  0.35641  1.0000
  C   C86       1.0  0.13893  0.00757  0.48341  1.0000
  H   H77       1.0  0.20011  0.21047  0.32733  1.0000
  C   C87       1.0  0.27786  0.11353  0.40390  1.0000
  C   C88       1.0  0.27926  0.09039  0.38921  1.0000
  C   C89       1.0  0.27711  0.09662  0.36562  1.0000
  H   H78       1.0  0.12587  0.27677  0.47984  1.0000
  C   C90       1.0  0.15409  0.02770  0.64631  1.0000
  C   C91       1.0  0.18092  0.37540  0.64193  1.0000
  H   H79       1.0  0.37042  0.44769  0.44622  1.0000
  C   C92       1.0  0.27461  0.14307  0.39496  1.0000
  C   C93       1.0  0.34645  0.37747  0.38073  1.0000
  H   H80       1.0  0.12907  0.31466  0.40864  1.0000
  H   H81       1.0  0.27782  0.10787  0.42236  1.0000
  H   H82       1.0  0.28024  0.06681  0.39638  1.0000
  H   H83       1.0  0.27647  0.07760  0.35474  1.0000
  C   C94       1.0  0.17680  0.01481  0.48893  1.0000
  H   H84       1.0  0.09290  0.23643  0.62980  1.0000
  C   C95       1.0  0.38790  0.45716  0.42892  1.0000
  C   C96       1.0  0.20498  0.46072  0.38495  1.0000
  C   C97       1.0  0.06312  0.01295  0.59600  1.0000
  C   C98       1.0  0.09752  0.02452  0.57935  1.0000
  H   H85       1.0  0.22723  0.32362  0.63953  1.0000
  H   H86       1.0  0.00046  0.06213  0.56694  1.0000
  H   H87       1.0  0.04574  0.02718  0.59624  1.0000
  H   H88       1.0  0.10689  0.04794  0.56692  1.0000
  H   H89       1.0  0.37689  0.38126  0.37631  1.0000
  H   H90       1.0  0.20323  0.08619  0.52201  1.0000
  H   H91       1.0  0.27735  0.37152  0.65621  1.0000
  H   H92       1.0  0.20504  0.15157  0.33542  1.0000
  C   C99       1.0  0.19225  0.12529  0.33126  1.0000
  H   H93       1.0  0.24068  0.04227  0.57819  1.0000
  C   C100      1.0  0.23417  0.14045  0.56208  1.0000
  H   H94       1.0  0.00796  0.07486  0.51409  1.0000
  C   C101      1.0  0.21716  0.11015  0.32544  1.0000
  C   C102      1.0  0.27269  0.14952  0.37135  1.0000
  C   C103      1.0  0.08154  0.31149  0.60884  1.0000
  H   H95       1.0  0.18430  0.17524  0.36668  1.0000
  C   C104      1.0  0.12730  0.37434  0.57807  1.0000
  C   C105      1.0  0.17029  0.29178  0.58414  1.0000
  S   S20       1.0  0.42012  0.42882  0.33037  1.0000
  C   C106      1.0  0.17128  0.98367  0.36164  1.0000
  H   H96       1.0  0.20001  0.01726  0.47546  1.0000
  C   C107      1.0  0.22208  0.34565  0.64231  1.0000
  C   C108      1.0  0.15036  0.00209  0.36751  1.0000
  C   C109      1.0  0.19912  0.07994  0.58093  1.0000
  C   C110      1.0  0.18425  0.27265  0.57137  1.0000
  C   C111      1.0  0.21949  0.11565  0.58232  1.0000
  H   H97       1.0  0.29188  0.42101  0.37329  1.0000
  C   C112      1.0  0.15426  0.01607  0.52898  1.0000
  H   H98       1.0  0.09040  0.27888  0.44656  1.0000
  C   C113      1.0  0.11232  0.27969  0.64939  1.0000
  C   C114      1.0  0.20836  0.09384  0.53893  1.0000
  H   H99       1.0  0.27239  0.16049  0.40648  1.0000
  C   C115      1.0  0.12024  0.00631  0.57900  1.0000
  C   C116      1.0  0.98435  0.07205  0.50400  1.0000
  C   C117      1.0  0.33772  0.40510  0.37501  1.0000
  H   H100      1.0  0.03014  0.31170  0.59569  1.0000
  C   C118      1.0  0.17599  0.00926  0.64158  1.0000
  H   H101      1.0  0.17887  0.37420  0.59078  1.0000
  C   C119      1.0  0.31565  0.34460  0.39116  1.0000
  H   H102      1.0  0.11654  0.99071  0.41946  1.0000
  C   C120      1.0  0.19808  0.25116  0.58257  1.0000
  H   H103      1.0  0.29041  0.29958  0.35080  1.0000
  H   H104      1.0  0.20025  0.31132  0.47526  1.0000
  H   H105      1.0  0.15911  0.30767  0.57507  1.0000
  H   H106      1.0  0.27218  0.00712  0.59295  1.0000
  H   H107      1.0  0.02629  0.10666  0.47408  1.0000
  C   C121      1.0  0.18449  0.01882  0.51163  1.0000
  C   C122      1.0  0.26745  0.27247  0.35415  1.0000
  P   P2        1.0  0.16545  0.02262  0.55796  1.0000
  C   C123      1.0  0.29810  0.39980  0.37929  1.0000
  P   P3        1.0  0.14875  0.31137  0.62559  1.0000
  H   H108      1.0  0.14503  0.39864  0.56611  1.0000
  H   H109      1.0  0.18241  0.26442  0.63806  1.0000
  C   C124      1.0  0.20391  0.34903  0.34658  1.0000
  C   C125      1.0  0.19626  0.33229  0.36958  1.0000
  C   C126      1.0  0.17989  0.29561  0.37406  1.0000
  P   P4        1.0  0.21504  0.35798  0.39226  1.0000
  C   C127      1.0  0.21015  0.39778  0.38964  1.0000
  C   C128      1.0  0.18705  0.33302  0.42022  1.0000
  C   C129      1.0  0.20685  0.33250  0.43928  1.0000
  C   C130      1.0  0.18480  0.31222  0.46070  1.0000
  C   C131      1.0  0.14287  0.29278  0.46330  1.0000
  C   C132      1.0  0.12290  0.29391  0.44454  1.0000
  C   C133      1.0  0.14488  0.31411  0.42309  1.0000
  C   C134      1.0  0.23299  0.42486  0.40165  1.0000
  H   H110      1.0  0.16778  0.05574  0.64092  1.0000
  C   C135      1.0  0.22864  0.12955  0.54041  1.0000
  C   C136      1.0  0.18115  0.43350  0.37356  1.0000
  C   C137      1.0  0.18334  0.40197  0.37608  1.0000
  C   C138      1.0  0.26691  0.36676  0.38966  1.0000
  C   C139      1.0  0.27593  0.33912  0.39543  1.0000
  H   H111      1.0  0.43417  0.43219  0.38710  1.0000
  H   H112      1.0  0.18695  0.06102  0.59680  1.0000
  C   C140      1.0  0.28005  0.02750  0.46364  1.0000
  C   C141      1.0  0.19369  0.32941  0.32846  1.0000
  C   C142      1.0  0.10924  0.98777  0.36640  1.0000
  C   C143      1.0  0.24623  0.99525  0.58425  1.0000
  H   H113      1.0  0.02252  0.99597  0.41542  1.0000
  H   H114      1.0  0.23928  0.34749  0.43763  1.0000
  C   C144      1.0  0.18703  0.34683  0.63709  1.0000
  H   H115      1.0  0.07068  0.36753  0.56847  1.0000
  C   C145      1.0  0.18371  0.26761  0.61938  1.0000
  P   P5        1.0  0.27048  0.13400  0.32616  1.0000
  H   H116      1.0  0.09278  0.00818  0.53591  1.0000
  H   H117      1.0  0.18361  0.27381  0.55284  1.0000
  H   H118      1.0  0.20294  0.99443  0.36309  1.0000
  C   C146      1.0  0.16957  0.98495  0.42234  1.0000
  C   C147      1.0  0.19309  0.99931  0.56576  1.0000
  H   H119      1.0  0.33901  0.19633  0.33609  1.0000
  C   C148      1.0  0.08884  0.24485  0.64625  1.0000
  C   C149      1.0  0.99043  0.10055  0.58275  1.0000
  H   H120      1.0  0.29585  0.45095  0.33296  1.0000
  C   C150      1.0  0.15050  0.10618  0.33252  1.0000
  H   H121      1.0  0.34475  0.12867  0.32994  1.0000
  H   H122      1.0  0.98159  0.00725  0.51102  1.0000
  S   S21       1.0  0.30371  0.37751  0.32563  1.0000
  C   C151      1.0  0.40159  0.43625  0.41814  1.0000
  H   H123      1.0  0.11461  0.46699  0.64415  1.0000
  C   C152      1.0  0.25078  0.37291  0.65178  1.0000
  C   C153      1.0  0.13336  0.07184  0.32784  1.0000
  H   H124      1.0  0.24957  0.47778  0.40756  1.0000
  C   C154      1.0  0.43201  0.48110  0.38409  1.0000
  H   H125      1.0  0.20480  0.42449  0.65517  1.0000
  C   C155      1.0  0.24477  0.40153  0.65605  1.0000
  Fe  Fe13      1.0  0.20379  0.35543  0.74268  1.0000
  S   S22       1.0  0.25363  0.39390  0.71474  1.0000
  S   S23       1.0  0.15776  0.30030  0.73864  1.0000
  Fe  Fe14      1.0  0.22150  0.40970  0.77615  1.0000
  S   S24       1.0  0.27162  0.45226  0.75048  1.0000
  S   S25       1.0  0.20418  0.42535  0.80976  1.0000
  Fe  Fe15      1.0  0.23218  0.43264  0.72355  1.0000
  S   S26       1.0  0.22548  0.46528  0.69337  1.0000
  Fe  Fe16      1.0  0.28928  0.41056  0.74378  1.0000
  S   S27       1.0  0.35500  0.42486  0.74004  1.0000
  S   S28       1.0  0.17954  0.39318  0.74956  1.0000
  S   S29       1.0  0.24152  0.36876  0.77152  1.0000
  H   H126      1.0  0.22939  0.31320  0.70644  1.0000
  C   C156      1.0  0.17931  0.23606  0.68561  1.0000
  C   C157      1.0  0.10584  0.45420  0.84512  1.0000
  C   C158      1.0  0.23283  0.43333  0.83271  1.0000
  C   C159      1.0  0.23096  0.40514  0.84755  1.0000
  C   C160      1.0  0.24597  0.41032  0.86871  1.0000
  C   C161      1.0  0.26330  0.44375  0.87518  1.0000
  C   C162      1.0  0.99629  0.44936  0.75699  1.0000
  C   C163      1.0  0.38214  0.47079  0.73466  1.0000
  H   H127      1.0  0.21614  0.37900  0.84323  1.0000
  H   H128      1.0  0.24302  0.38812  0.88046  1.0000
  H   H129      1.0  0.39386  0.44059  0.68955  1.0000
  C   C164      1.0  0.00869  0.36588  0.85877  1.0000
  H   H130      1.0  0.11335  0.33552  0.78699  1.0000
  H   H131      1.0  0.16302  0.24642  0.77334  1.0000
  C   C165      1.0  0.14124  0.22445  0.69855  1.0000
  C   C166      1.0  0.12864  0.37844  0.91503  1.0000
  H   H132      1.0  0.11670  0.19999  0.69618  1.0000
  C   C167      1.0  0.10785  0.20045  0.77147  1.0000
  H   H133      1.0  0.03096  0.21184  0.69970  1.0000
  H   H134      1.0  0.20102  0.14886  0.67868  1.0000
  H   H135      1.0  0.10585  0.23468  0.72510  1.0000
  C   C168      1.0  0.14212  0.47312  0.82963  1.0000
  H   H136      1.0  0.11835  0.35492  0.92763  1.0000
  C   C169      1.0  0.99064  0.06102  0.71754  1.0000
  H   H137      1.0  0.12064  0.04426  0.80874  1.0000
  C   C170      1.0  0.21101  0.26820  0.68856  1.0000
  C   C171      1.0  0.20474  0.28854  0.70434  1.0000
  C   C172      1.0  0.16681  0.27653  0.71770  1.0000
  C   C173      1.0  0.13521  0.24430  0.71478  1.0000
  H   H138      1.0  0.24063  0.27738  0.67862  1.0000
  H   H139      1.0  0.12014  0.35659  0.85687  1.0000
  H   H140      1.0  0.12002  0.45165  0.75456  1.0000
  H   H141      1.0  0.15691  0.15851  0.70773  1.0000
  C   C174      1.0  0.44378  0.47915  0.85628  1.0000
  C   C175      1.0  0.11238  0.36143  0.84006  1.0000
  C   C176      1.0  0.16473  0.40794  0.91618  1.0000
  S   S30       1.0  0.27728  0.44788  0.90320  1.0000
  C   C177      1.0  0.03016  0.46588  0.79029  1.0000
  P   P6        1.0  0.39821  0.46840  0.81997  1.0000
  C   C178      1.0  0.15657  0.43873  0.88187  1.0000
  C   C179      1.0  0.17837  0.43810  0.89977  1.0000
  C   C180      1.0  0.09575  0.37449  0.79559  1.0000
  H   H142      1.0  0.08118  0.41263  0.80870  1.0000
  C   C181      1.0  0.35798  0.42480  0.82007  1.0000
  H   H143      1.0  0.16102  0.46111  0.82504  1.0000
  H   H144      1.0  0.20680  0.46065  0.90049  1.0000
  H   H145      1.0  0.00601  0.14410  0.70145  1.0000
  H   H146      1.0  0.05817  0.15229  0.76691  1.0000
  H   H147      1.0  0.05084  0.01619  0.83033  1.0000
  C   C182      1.0  0.05962  0.22049  0.66435  1.0000
  C   C183      1.0  0.35489  0.40970  0.79974  1.0000
  C   C184      1.0  0.32384  0.37626  0.79927  1.0000
  C   C185      1.0  0.29546  0.35751  0.81917  1.0000
  C   C186      1.0  0.29840  0.37216  0.83959  1.0000
  C   C187      1.0  0.32945  0.40570  0.84007  1.0000
  C   C188      1.0  0.98430  0.08841  0.70762  1.0000
  H   H148      1.0  0.20687  0.22237  0.75739  1.0000
  H   H149      1.0  0.14886  0.46903  0.71179  1.0000
  C   C189      1.0  0.10626  0.37913  0.89741  1.0000
  C   C190      1.0  0.12001  0.40934  0.88069  1.0000
  C   C191      1.0  0.40528  0.46606  0.67887  1.0000
  H   H150      1.0  0.02915  0.46471  0.80894  1.0000
  H   H151      1.0  0.17710  0.16350  0.74633  1.0000
  C   C192      1.0  0.12196  0.07083  0.72432  1.0000
  H   H152      1.0  0.42970  0.41955  0.80940  1.0000
  H   H153      1.0  0.99432  0.99218  0.66389  1.0000
  H   H154      1.0  0.12413  0.31624  0.67402  1.0000
  H   H155      1.0  0.09017  0.37997  0.77821  1.0000
  H   H156      1.0  0.03338  0.47009  0.72351  1.0000
  H   H157      1.0  0.04194  0.19356  0.66183  1.0000
  H   H158      1.0  0.37640  0.42403  0.78412  1.0000
  H   H159      1.0  0.32150  0.36532  0.78325  1.0000
  H   H160      1.0  0.27098  0.33185  0.81865  1.0000
  H   H161      1.0  0.27621  0.35782  0.85498  1.0000
  H   H162      1.0  0.33058  0.41650  0.85602  1.0000
  C   C193      1.0  0.09802  0.04996  0.80208  1.0000
  C   C194      1.0  0.04910  0.10260  0.73218  1.0000
  H   H163      1.0  0.16980  0.44444  0.77558  1.0000
  H   H164      1.0  0.01663  0.36080  0.84178  1.0000
  H   H165      1.0  0.13896  0.08564  0.77223  1.0000
  C   C195      1.0  0.02967  0.04187  0.80577  1.0000
  C   C196      1.0  0.45169  0.44571  0.80116  1.0000
  H   H166      1.0  0.14742  0.44937  0.67403  1.0000
  C   C197      1.0  0.17943  0.12713  0.69168  1.0000
  C   C198      1.0  0.14649  0.06537  0.70741  1.0000
  C   C199      1.0  0.38197  0.47215  0.66363  1.0000
  C   C200      1.0  0.14687  0.47467  0.75674  1.0000
  H   H167      1.0  0.43162  0.47379  0.75169  1.0000
  H   H168      1.0  0.06314  0.15703  0.72291  1.0000
  H   H169      1.0  0.18276  0.40736  0.92945  1.0000
  P   P7        1.0  0.09100  0.40955  0.85781  1.0000
  S   S31       1.0  0.18894  0.21068  0.66626  1.0000
  C   C201      1.0  0.05871  0.03418  0.81425  1.0000
  H   H170      1.0  0.09891  0.04845  0.73623  1.0000
  C   C202      1.0  0.14970  0.22030  0.76875  1.0000
  C   C203      1.0  0.13332  0.47640  0.69949  1.0000
  C   C204      1.0  0.10881  0.34942  0.80052  1.0000
  C   C205      1.0  0.02306  0.06805  0.72958  1.0000
  C   C206      1.0  0.13269  0.46518  0.67785  1.0000
  H   H171      1.0  0.04935  0.41140  0.90206  1.0000
  C   C207      1.0  0.11725  0.34301  0.82270  1.0000
  C   C208      1.0  0.02690  0.39411  0.89267  1.0000
  H   H172      1.0  0.01714  0.07125  0.77890  1.0000
  C   C209      1.0  0.17526  0.09351  0.69112  1.0000
  S   S32       1.0  0.08496  0.11834  0.67145  1.0000
  C   C210      1.0  0.03984  0.06519  0.78505  1.0000
  C   C211      1.0  0.10608  0.28978  0.67089  1.0000
  H   H173      1.0  0.07249  0.27330  0.70556  1.0000
  C   C212      1.0  0.03841  0.38829  0.87059  1.0000
  H   H174      1.0  0.07853  0.35594  0.89662  1.0000
  H   H175      1.0  0.46649  0.47724  0.84459  1.0000
  H   H176      1.0  0.02837  0.04657  0.73631  1.0000
  C   C213      1.0  0.04257  0.13006  0.72216  1.0000
  H   H177      1.0  0.08887  0.21116  0.77843  1.0000
  H   H178      1.0  0.14208  0.03908  0.70623  1.0000
  C   C214      1.0  0.09095  0.39306  0.81288  1.0000
  C   C215      1.0  0.17441  0.20682  0.75960  1.0000
  H   H179      1.0  0.34682  0.46762  0.78440  1.0000
  C   C216      1.0  0.03298  0.46919  0.74207  1.0000
  C   C217      1.0  0.09066  0.16739  0.76458  1.0000
  C   C218      1.0  0.11530  0.15427  0.75442  1.0000
  C   C219      1.0  0.15732  0.17365  0.75289  1.0000
  P   P8        1.0  0.09273  0.11119  0.74606  1.0000
  C   C220      1.0  0.12629  0.10465  0.72518  1.0000
  C   C221      1.0  0.07908  0.08063  0.77254  1.0000
  C   C222      1.0  0.10827  0.07329  0.78137  1.0000
  C   C223      1.0  0.25059  0.46695  0.83902  1.0000
  C   C224      1.0  0.09902  0.38653  0.83531  1.0000
  C   C225      1.0  0.01021  0.12290  0.70996  1.0000
  H   H180      1.0  0.12872  0.32446  0.82623  1.0000
  C   C226      1.0  0.15461  0.13261  0.70838  1.0000
  C   C227      1.0  0.07651  0.26545  0.68886  1.0000
  C   C228      1.0  0.05335  0.23080  0.68563  1.0000
  C   C229      1.0  0.26634  0.47227  0.86004  1.0000
  H   H181      1.0  0.26669  0.42252  0.66364  1.0000
  H   H182      1.0  0.35255  0.45125  0.66243  1.0000
  C   C230      1.0  0.08230  0.47075  0.85092  1.0000
  H   H183      1.0  0.19340  0.08903  0.67762  1.0000
  C   C231      1.0  0.11445  0.47528  0.66102  1.0000
  C   C232      1.0  0.17506  0.47044  0.76868  1.0000
  H   H184      1.0  0.16889  0.46204  0.86895  1.0000
  H   H185      1.0  0.33867  0.47652  0.71572  1.0000
  H   H186      1.0  0.05422  0.45696  0.86282  1.0000
  C   C233      1.0  0.40790  0.47597  0.84907  1.0000
  C   C234      1.0  0.44397  0.47436  0.80278  1.0000
  C   C235      1.0  0.11472  0.00975  0.65849  1.0000
  H   H187      1.0  0.99930  0.02991  0.81530  1.0000
  S   S33       1.0  0.08673  0.03150  0.66650  1.0000
  C   C236      1.0  0.37995  0.47992  0.86453  1.0000
  C   C237      1.0  0.98629  0.37768  0.90277  1.0000
  H   H188      1.0  0.35245  0.47831  0.85923  1.0000
  C   C238      1.0  0.99488  0.44766  0.78107  1.0000
  C   C239      1.0  0.01967  0.91754  0.29598  1.0000
  S   S34       1.0  0.27020  0.68097  0.30548  1.0000
  C   C240      1.0  0.45872  0.53512  0.08917  1.0000
  C   C241      1.0  0.47037  0.67862  0.27246  1.0000
  H   H189      1.0  0.36339  0.61006  0.26559  1.0000
  C   C242      1.0  0.24382  0.49190  0.10872  1.0000
  Fe  Fe17      1.0  0.26232  0.63352  0.28966  1.0000
  S   S35       1.0  0.24529  0.62875  0.25375  1.0000
  C   C243      1.0  0.08806  0.94081  0.27604  1.0000
  C   C244      1.0  0.28878  0.58037  0.18162  1.0000
  S   S36       1.0  0.31704  0.63265  0.30082  1.0000
  C   C245      1.0  0.26333  0.51607  0.25306  1.0000
  H   H190      1.0  0.41389  0.49021  0.00482  1.0000
  H   H191      1.0  0.34119  0.51431  0.11392  1.0000
  H   H192      1.0  0.14945  0.55908  0.27658  1.0000
  S   S37       1.0  0.42452  0.57411  0.12422  1.0000
  H   H193      1.0  0.41861  0.62946  0.01484  1.0000
  S   S38       1.0  0.40470  0.60250  0.17194  1.0000
  Fe  Fe18      1.0  0.40956  0.61220  0.10372  1.0000
  S   S39       1.0  0.35292  0.59804  0.12805  1.0000
  S   S40       1.0  0.41770  0.62185  0.06398  1.0000
  Fe  Fe19      1.0  0.39154  0.63869  0.14833  1.0000
  S   S41       1.0  0.37285  0.67721  0.16158  1.0000
  Fe  Fe20      1.0  0.37035  0.56290  0.14984  1.0000
  C   C246      1.0  0.22005  0.57023  0.18274  1.0000
  S   S42       1.0  0.44715  0.65669  0.12190  1.0000
  C   C247      1.0  0.38295  0.59588  0.04665  1.0000
  C   C248      1.0  0.32234  0.54435  0.04165  1.0000
  C   C249      1.0  0.34747  0.56555  0.05627  1.0000
  H   H194      1.0  0.29520  0.52073  0.04928  1.0000
  H   H195      1.0  0.33980  0.55834  0.07492  1.0000
  C   C250      1.0  0.43457  0.52620  0.22485  1.0000
  H   H196      1.0  0.29956  0.54876  0.20767  1.0000
  H   H197      1.0  0.39479  0.59931  0.29897  1.0000
  H   H198      1.0  0.18846  0.55810  0.01747  1.0000
  H   H199      1.0  0.27042  0.60950  0.15797  1.0000
  H   H200      1.0  0.34657  0.72732  0.26588  1.0000
  H   H201      1.0  0.41351  0.49085  0.11278  1.0000
  H   H202      1.0  0.45721  0.60996  0.25183  1.0000
  C   C251      1.0  0.38635  0.74452  0.20852  1.0000
  C   C252      1.0  0.28345  0.64376  0.22930  1.0000
  C   C253      1.0  0.28059  0.66348  0.20982  1.0000
  C   C254      1.0  0.30871  0.67411  0.18945  1.0000
  C   C255      1.0  0.33912  0.66397  0.18797  1.0000
  C   C256      1.0  0.34199  0.64391  0.20737  1.0000
  C   C257      1.0  0.31440  0.63413  0.22814  1.0000
  H   H203      1.0  0.25653  0.67067  0.21050  1.0000
  H   H204      1.0  0.30632  0.68960  0.17459  1.0000
  H   H205      1.0  0.36526  0.63580  0.20629  1.0000
  H   H206      1.0  0.31618  0.61826  0.24296  1.0000
  H   H207      1.0  0.40951  0.72442  0.26970  1.0000
  H   H208      1.0  0.37634  0.52271  0.22218  1.0000
  H   H209      1.0  0.01646  0.58146  0.29855  1.0000
  H   H210      1.0  0.44476  0.67746  0.20384  1.0000
  H   H211      1.0  0.25829  0.56593  0.01361  1.0000
  C   C258      1.0  0.47274  0.54574  0.23090  1.0000
  H   H212      1.0  0.37959  0.51693  0.04796  1.0000
  C   C259      1.0  0.36788  0.73227  0.25040  1.0000
  C   C260      1.0  0.12033  0.50320  0.28834  1.0000
  H   H213      1.0  0.09786  0.50361  0.30116  1.0000
  C   C261      1.0  0.20798  0.54411  0.20212  1.0000
  C   C262      1.0  0.20896  0.57155  0.00132  1.0000
  C   C263      1.0  0.26057  0.58858  0.17260  1.0000
  C   C264      1.0  0.30044  0.54880  0.28164  1.0000
  H   H214      1.0  0.34579  0.53656  0.29253  1.0000
  P   P9        1.0  0.47357  0.72794  0.23613  1.0000
  C   C265      1.0  0.40509  0.53720  0.22792  1.0000
  H   H215      1.0  0.32019  0.59487  0.17407  1.0000
  H   H216      1.0  0.19817  0.57666  0.17580  1.0000
  H   H217      1.0  0.30400  0.56645  0.29406  1.0000
  H   H218      1.0  0.39071  0.57649  0.23940  1.0000
  C   C266      1.0  0.24833  0.57604  0.99923  1.0000
  H   H219      1.0  0.12973  0.93365  0.29584  1.0000
  C   C267      1.0  0.47418  0.69826  0.19608  1.0000
  H   H220      1.0  0.39579  0.50416  0.15936  1.0000
  H   H221      1.0  0.28762  0.53000  0.12579  1.0000
  H   H222      1.0  0.39802  0.66468  0.23829  1.0000
  C   C268      1.0  0.17866  0.53400  0.25829  1.0000
  S   S43       1.0  0.30197  0.52495  0.99929  1.0000
  H   H223      1.0  0.46986  0.75406  0.30627  1.0000
  C   C269      1.0  0.45178  0.68551  0.25434  1.0000
  C   C270      1.0  0.27700  0.55456  0.20104  1.0000
  C   C271      1.0  0.31845  0.50768  0.26562  1.0000
  C   C272      1.0  0.35899  0.73878  0.22837  1.0000
  C   C273      1.0  0.23667  0.53690  0.21180  1.0000
  C   C274      1.0  0.32406  0.53173  0.28084  1.0000
  H   H224      1.0  0.08749  0.59200  0.29414  1.0000
  C   C275      1.0  0.14914  0.53435  0.27449  1.0000
  H   H225      1.0  0.47411  0.78648  0.25870  1.0000
  C   C276      1.0  0.37637  0.48570  0.17450  1.0000
  Fe  Fe21      1.0  0.45777  0.61750  0.14435  1.0000
  C   C277      1.0  0.48017  0.57532  0.24149  1.0000
  H   H226      1.0  0.22059  0.49916  0.11395  1.0000
  C   C278      1.0  0.18012  0.50261  0.25594  1.0000
  C   C279      1.0  0.38832  0.51047  0.32186  1.0000
  C   C280      1.0  0.39336  0.62876  0.26750  1.0000
  S   S44       1.0  0.38328  0.72286  0.31633  1.0000
  C   C281      1.0  0.33248  0.55339  0.01729  1.0000
  C   C282      1.0  0.28179  0.50959  0.11519  1.0000
  H   H227      1.0  0.46402  0.64263  0.30255  1.0000
  C   C283      1.0  0.09871  0.92826  0.29581  1.0000
  C   C284      1.0  0.27060  0.54154  0.26760  1.0000
  C   C285      1.0  0.36685  0.58465  0.00778  1.0000
  C   C286      1.0  0.06958  0.90930  0.31556  1.0000
  C   C287      1.0  0.12155  0.86449  0.31559  1.0000
  H   H228      1.0  0.98927  0.91411  0.29632  1.0000
  C   C288      1.0  0.45004  0.64731  0.28821  1.0000
  C   C289      1.0  0.04851  0.93533  0.27609  1.0000
  C   C290      1.0  0.41117  0.62273  0.28609  1.0000
  H   H229      1.0  0.22111  0.51955  0.32261  1.0000
  C   C291      1.0  0.43119  0.73615  0.23276  1.0000
  H   H230      1.0  0.15060  0.83999  0.29612  1.0000
  C   C292      1.0  0.42240  0.74332  0.21065  1.0000
  H   H231      1.0  0.25272  0.55519  0.26879  1.0000
  C   C293      1.0  0.39198  0.60559  0.02238  1.0000
  H   H232      1.0  0.33051  0.73859  0.22669  1.0000
  C   C294      1.0  0.14628  0.84840  0.31254  1.0000
  C   C295      1.0  0.41342  0.65989  0.25178  1.0000
  P   P10       1.0  0.22166  0.50364  0.23692  1.0000
  C   C296      1.0  0.46848  0.49631  0.30548  1.0000
  C   C297      1.0  0.44629  0.56705  0.30917  1.0000
  H   H233      1.0  0.17649  0.53004  0.20977  1.0000
  H   H234      1.0  0.04035  0.94536  0.26086  1.0000
  H   H235      1.0  0.41071  0.53446  0.28605  1.0000
  C   C298      1.0  0.42046  0.50624  0.09574  1.0000
  C   C299      1.0  0.41318  0.56743  0.23764  1.0000
  H   H236      1.0  0.37897  0.74858  0.19141  1.0000
  H   H237      1.0  0.10648  0.86785  0.30146  1.0000
  S   S45       1.0  0.21975  0.59493  0.32055  1.0000
  C   C300      1.0  0.03017  0.90481  0.31572  1.0000
  H   H238      1.0  0.44239  0.74675  0.19497  1.0000
  H   H239      1.0  0.20120  0.55855  0.24807  1.0000
  C   C301      1.0  0.40374  0.73088  0.25257  1.0000
  C   C302      1.0  0.39155  0.49842  0.08071  1.0000
  C   C303      1.0  0.43297  0.51795  0.99870  1.0000
  C   C304      1.0  0.41449  0.53725  0.30398  1.0000
  H   H240      1.0  0.44535  0.56813  0.03751  1.0000
  H   H241      1.0  0.44419  0.49181  0.29570  1.0000
  H   H242      1.0  0.42819  0.50314  0.21694  1.0000
  C   C305      1.0  0.46790  0.55728  0.06811  1.0000
  C   C306      1.0  0.28843  0.50003  0.25165  1.0000
  Fe  Fe22      1.0  0.32185  0.67693  0.31924  1.0000
  C   C307      1.0  0.47315  0.53399  0.00220  1.0000
  C   C308      1.0  0.43902  0.55035  0.05345  1.0000
  C   C309      1.0  0.45050  0.58616  0.24472  1.0000
  C   C310      1.0  0.03559  0.59485  0.31081  1.0000
  S   S46       1.0  0.32150  0.50956  0.16653  1.0000
  H   H243      1.0  0.13123  0.62248  0.32233  1.0000
  H   H244      1.0  0.36409  0.48717  0.31776  1.0000
  C   C311      1.0  0.40123  0.52104  0.05960  1.0000
  C   C312      1.0  0.31207  0.50053  0.10847  1.0000
  C   C313      1.0  0.45884  0.72846  0.31645  1.0000
  H   H245      1.0  0.33651  0.49415  0.26509  1.0000
  C   C314      1.0  0.33856  0.48327  0.18169  1.0000
  C   C315      1.0  0.07552  0.60070  0.30830  1.0000
  H   H246      1.0  0.47363  0.67574  0.16497  1.0000
  H   H247      1.0  0.11060  0.95522  0.26078  1.0000
  H   H248      1.0  0.46667  0.58739  0.29518  1.0000
  C   C316      1.0  0.41733  0.70767  0.32383  1.0000
  H   H249      1.0  0.48073  0.54127  0.10086  1.0000
  H   H250      1.0  0.47992  0.62987  0.02383  1.0000
  C   C317      1.0  0.10019  0.61790  0.32411  1.0000
  H   H251      1.0  0.32069  0.60911  0.64158  1.0000
  S   S47       1.0  0.09046  0.87543  0.62691  1.0000
  C   C318      1.0  0.25863  0.77273  0.62121  1.0000
  C   C319      1.0  0.11606  0.87545  0.33689  1.0000
  S   S48       1.0  0.17224  0.86677  0.61872  1.0000
  H   H252      1.0  0.25829  0.91717  0.63540  1.0000
  H   H253      1.0  0.36962  0.83876  0.62480  1.0000
  C   C320      1.0  0.40327  0.56435  0.39332  1.0000
  Fe  Fe23      1.0  0.11335  0.84631  0.60547  1.0000
  S   S49       1.0  0.10591  0.85428  0.56802  1.0000
  C   C321      1.0  0.24519  0.90317  0.46521  1.0000
  S   S50       1.0  0.08388  0.79670  0.63120  1.0000
  Fe  Fe24      1.0  0.05727  0.74867  0.43216  1.0000
  S   S51       1.0  0.08710  0.78906  0.40038  1.0000
  C   C322      1.0  0.40306  0.67465  0.33722  1.0000
  Fe  Fe25      1.0  0.12682  0.78459  0.45834  1.0000
  S   S52       1.0  0.16238  0.82847  0.42841  1.0000
  S   S53       1.0  0.15027  0.77865  0.49172  1.0000
  Fe  Fe26      1.0  0.10331  0.82754  0.42515  1.0000
  H   H254      1.0  0.47737  0.59342  0.33591  1.0000
  Fe  Fe27      1.0  0.14313  0.78570  0.40634  1.0000
  S   S54       1.0  0.18600  0.78780  0.37565  1.0000
  S   S55       1.0  0.06889  0.78721  0.45680  1.0000
  S   S56       1.0  0.11196  0.74188  0.43649  1.0000
  H   H255      1.0  0.07407  0.92985  0.41568  1.0000
  C   C323      1.0  0.21362  0.74704  0.35464  1.0000
  C   C324      1.0  0.00608  0.88767  0.58854  1.0000
  H   H256      1.0  0.13343  0.71616  0.39789  1.0000
  C   C325      1.0  0.26791  0.51490  0.33871  1.0000
  H   H257      1.0  0.02892  0.82531  0.33580  1.0000
  C   C326      1.0  0.18504  0.74762  0.37162  1.0000
  C   C327      1.0  0.34550  0.60275  0.64023  1.0000
  C   C328      1.0  0.98994  0.91887  0.48052  1.0000
  C   C329      1.0  0.07402  0.96507  0.61225  1.0000
  H   H258      1.0  0.11898  0.94121  0.51960  1.0000
  C   C330      1.0  0.11539  0.83006  0.54816  1.0000
  C   C331      1.0  0.13215  0.80790  0.55387  1.0000
  C   C332      1.0  0.14281  0.79189  0.53651  1.0000
  C   C333      1.0  0.13590  0.79753  0.51368  1.0000
  C   C334      1.0  0.11811  0.81883  0.50835  1.0000
  C   C335      1.0  0.10804  0.83509  0.52550  1.0000
  H   H259      1.0  0.13770  0.80372  0.57142  1.0000
  H   H260      1.0  0.15649  0.77526  0.54072  1.0000
  H   H261      1.0  0.11262  0.82323  0.49089  1.0000
  H   H262      1.0  0.09445  0.85165  0.52120  1.0000
  S   S57       1.0  0.18598  0.94983  0.64336  1.0000
  C   C336      1.0  0.27781  0.89980  0.51445  1.0000
  C   C337      1.0  0.24276  0.90382  0.51481  1.0000
  C   C338      1.0  0.16171  0.92644  0.41963  1.0000
  C   C339      1.0  0.43021  0.66282  0.34366  1.0000
  H   H263      1.0  0.08346  0.78701  0.34656  1.0000
  H   H264      1.0  0.06630  0.66278  0.44565  1.0000
  C   C340      1.0  0.42636  0.54309  0.35026  1.0000
  H   H265      1.0  0.12644  0.76075  0.33266  1.0000
  C   C341      1.0  0.15594  0.71617  0.38505  1.0000
  H   H266      1.0  0.13354  0.66033  0.39247  1.0000
  H   H267      1.0  0.44804  0.48942  0.36644  1.0000
  C   C342      1.0  0.06542  0.59592  0.41923  1.0000
  H   H268      1.0  0.22915  0.97967  0.46001  1.0000
  C   C343      1.0  0.15577  0.68445  0.38180  1.0000
  S   S58       1.0  0.18100  0.64292  0.36049  1.0000
  C   C344      1.0  0.43525  0.92547  0.61905  1.0000
  H   H269      1.0  0.31091  0.50231  0.35335  1.0000
  H   H270      1.0  0.16635  0.88407  0.46335  1.0000
  C   C345      1.0  0.04418  0.63125  0.39486  1.0000
  C   C346      1.0  0.19525  0.94396  0.57210  1.0000
  C   C347      1.0  0.21450  0.89111  0.53523  1.0000
  C   C348      1.0  0.27221  0.90658  0.42507  1.0000
  C   C349      1.0  0.15827  0.97281  0.64863  1.0000
  C   C350      1.0  0.15883  0.85271  0.35217  1.0000
  P   P11       1.0  0.43376  0.54633  0.38009  1.0000
  S   S59       1.0  0.08798  0.87105  0.41654  1.0000
  H   H271      1.0  0.37088  0.56301  0.36424  1.0000
  H   H272      1.0  0.33353  0.59109  0.38167  1.0000
  C   C351      1.0  0.41644  0.93460  0.63701  1.0000
  C   C352      1.0  0.08284  0.70805  0.34784  1.0000
  C   C353      1.0  0.08892  0.95506  0.35936  1.0000
  H   H273      1.0  0.21993  0.85160  0.48609  1.0000
  C   C354      1.0  0.28807  0.49485  0.34220  1.0000
  C   C355      1.0  0.37547  0.56992  0.38140  1.0000
  C   C356      1.0  0.28361  0.88410  0.64808  1.0000
  H   H274      1.0  0.04787  0.58523  0.38594  1.0000
  H   H275      1.0  0.01554  0.97118  0.51811  1.0000
  H   H276      1.0  0.18128  0.91608  0.57167  1.0000
  C   C357      1.0  0.47159  0.68328  0.33602  1.0000
  H   H277      1.0  0.18810  0.94804  0.51765  1.0000
  C   C358      1.0  0.18420  0.68375  0.36486  1.0000
  H   H278      1.0  0.18659  0.89256  0.53583  1.0000
  H   H279      1.0  0.02921  0.88196  0.44383  1.0000
  C   C359      1.0  0.26355  0.87137  0.42949  1.0000
  C   C360      1.0  0.26561  0.96993  0.48321  1.0000
  C   C361      1.0  0.01522  0.88554  0.45967  1.0000
  H   H280      1.0  0.34319  0.60874  0.42041  1.0000
  H   H281      1.0  0.01527  0.80636  0.55139  1.0000
  H   H282      1.0  0.01898  0.93460  0.44476  1.0000
  H   H283      1.0  0.00869  0.83819  0.47849  1.0000
  C   C362      1.0  0.06229  0.64590  0.43257  1.0000
  C   C363      1.0  0.01814  0.76640  0.53390  1.0000
  H   H284      1.0  0.98400  0.94108  0.48069  1.0000
  C   C364      1.0  0.00275  0.86023  0.47949  1.0000
  H   H285      1.0  0.10247  0.69743  0.34190  1.0000
  C   C365      1.0  0.00921  0.91503  0.46020  1.0000
  C   C366      1.0  0.23540  0.86753  0.46928  1.0000
  H   H286      1.0  0.30785  0.97029  0.50604  1.0000
  H   H287      1.0  0.01406  0.94607  0.55831  1.0000
  H   H288      1.0  0.30453  0.89107  0.63214  1.0000
  C   C367      1.0  0.99366  0.96462  0.35693  1.0000
  H   H289      1.0  0.31128  0.88016  0.53378  1.0000
  C   C368      1.0  0.03521  0.73788  0.36432  1.0000
  C   C369      1.0  0.40938  0.58587  0.63708  1.0000
  H   H290      1.0  0.17427  0.90840  0.41931  1.0000
  C   C370      1.0  0.25744  0.89891  0.64976  1.0000
  H   H291      1.0  0.01505  0.89954  0.60385  1.0000
  C   C371      1.0  0.35396  0.58583  0.39126  1.0000
  C   C372      1.0  0.18234  0.91634  0.49056  1.0000
  C   C373      1.0  0.22966  0.95964  0.58249  1.0000
  H   H292      1.0  0.01689  0.72769  0.51305  1.0000
  H   H293      1.0  0.01488  0.92184  0.65353  1.0000
  H   H294      1.0  0.99398  0.68641  0.38215  1.0000
  C   C374      1.0  0.08505  0.62938  0.34233  1.0000
  C   C375      1.0  0.98221  0.80371  0.36554  1.0000
  H   H295      1.0  0.28563  0.92138  0.40777  1.0000
  H   H296      1.0  0.12568  0.96250  0.59695  1.0000
  C   C376      1.0  0.99857  0.96154  0.55528  1.0000
  C   C377      1.0  0.10507  0.93826  0.41790  1.0000
  C   C378      1.0  0.21325  0.71516  0.35127  1.0000
  H   H297      1.0  0.10467  0.64263  0.35436  1.0000
  C   C379      1.0  0.11810  0.89410  0.47639  1.0000
  C   C380      1.0  0.01790  0.83001  0.35219  1.0000
  H   H298      1.0  0.03778  0.76255  0.54497  1.0000
  C   C381      1.0  0.04513  0.62392  0.34496  1.0000
  C   C382      1.0  0.30447  0.77525  0.65651  1.0000
  S   S60       1.0  0.99575  0.70384  0.43313  1.0000
  C   C383      1.0  0.41820  0.89088  0.61478  1.0000
  C   C384      1.0  0.12090  0.91471  0.41810  1.0000
  C   C385      1.0  0.10476  0.91045  0.49202  1.0000
  H   H299      1.0  0.23626  0.77129  0.34418  1.0000
  H   H300      1.0  0.37312  0.49251  0.35858  1.0000
  C   C386      1.0  0.39395  0.51344  0.34494  1.0000
  H   H301      1.0  0.42956  0.96144  0.64027  1.0000
  Fe  Fe28      1.0  0.14700  0.89223  0.64234  1.0000
  C   C387      1.0  0.35954  0.59591  0.41311  1.0000
  C   C388      1.0  0.40844  0.57434  0.41541  1.0000
  C   C389      1.0  0.15118  0.95105  0.35446  1.0000
  C   C390      1.0  0.18621  0.96179  0.42153  1.0000
  H   H302      1.0  0.06593  0.94242  0.62511  1.0000
  C   C391      1.0  0.46952  0.57678  0.60607  1.0000
  C   C392      1.0  0.38664  0.59003  0.42525  1.0000
  H   H303      1.0  0.43264  0.88387  0.60074  1.0000
  H   H304      1.0  0.18405  0.83000  0.32867  1.0000
  C   C393      1.0  0.24516  0.85189  0.45161  1.0000
  C   C394      1.0  0.03446  0.88607  0.57213  1.0000
  H   H305      1.0  0.25470  0.72200  0.61877  1.0000
  P   P12       1.0  0.02655  0.63974  0.36848  1.0000
  H   H306      1.0  0.07497  0.90835  0.49254  1.0000
  H   H307      1.0  0.04330  0.67500  0.40961  1.0000
  C   C395      1.0  0.10834  0.97658  0.59577  1.0000
  C   C396      1.0  0.07075  0.61770  0.43610  1.0000
  H   H308      1.0  0.98623  0.95591  0.34051  1.0000
  C   C397      1.0  0.46546  0.79237  0.64898  1.0000
  H   H309      1.0  0.39134  0.59831  0.44206  1.0000
  S   S61       1.0  0.28185  0.55273  0.35165  1.0000
  H   H310      1.0  0.21788  0.97110  0.42221  1.0000
  C   C398      1.0  0.27309  0.80177  0.63278  1.0000
  C   C399      1.0  0.45605  0.54590  0.59621  1.0000
  H   H311      1.0  0.20425  0.48558  0.38236  1.0000
  H   H312      1.0  0.43465  0.52086  0.60629  1.0000
  C   C400      1.0  0.04499  0.68652  0.36146  1.0000
  H   H313      1.0  0.08178  0.61298  0.45182  1.0000
  S   S62       1.0  0.28484  0.64242  0.35264  1.0000
  C   C401      1.0  0.26686  0.74488  0.62734  1.0000
  H   H314      1.0  0.37151  0.63147  0.60563  1.0000
  C   C402      1.0  0.41933  0.50272  0.39493  1.0000
  P   P13       1.0  0.23356  0.92302  0.48861  1.0000
  C   C403      1.0  0.38059  0.90917  0.65072  1.0000
  H   H315      1.0  0.26992  0.85881  0.41564  1.0000
  H   H316      1.0  0.46297  0.94524  0.60838  1.0000
  H   H317      1.0  0.12886  0.87543  0.37217  1.0000
  C   C404      1.0  0.12973  0.92914  0.50722  1.0000
  C   C405      1.0  0.37419  0.61535  0.62004  1.0000
  S   S63       1.0  0.17500  0.78734  0.65154  1.0000
  H   H318      1.0  0.14972  0.95071  0.55636  1.0000
  C   C406      1.0  0.07244  0.75896  0.35028  1.0000
  P   P14       1.0  0.45118  0.57596  0.63598  1.0000
  H   H319      1.0  0.38601  0.50598  0.42618  1.0000
  H   H320      1.0  0.23969  0.77129  0.60810  1.0000
  C   C407      1.0  0.22131  0.87505  0.55504  1.0000
  C   C408      1.0  0.13396  0.86848  0.35532  1.0000
  C   C409      1.0  0.04918  0.65275  0.41202  1.0000
  H   H321      1.0  0.17276  0.84771  0.36650  1.0000
  H   H322      1.0  0.23695  0.82421  0.45490  1.0000
  C   C410      1.0  0.02182  0.70192  0.37018  1.0000
  C   C411      1.0  0.47034  0.54704  0.57300  1.0000
  H   H323      1.0  0.24263  0.94391  0.58987  1.0000
  Fe  Fe29      1.0  0.14130  0.81917  0.64661  1.0000
  H   H324      1.0  0.43008  0.57073  0.42477  1.0000
  H   H325      1.0  0.01771  0.74968  0.37169  1.0000
  H   H326      1.0  0.19871  0.86451  0.57050  1.0000
  H   H327      1.0  0.29961  0.90863  0.49868  1.0000
  C   C412      1.0  0.16861  0.93262  0.50623  1.0000
  H   H328      1.0  0.45563  0.83351  0.63170  1.0000
  P   P15       1.0  0.08418  0.89603  0.34172  1.0000
  H   H329      1.0  0.06565  0.89686  0.57474  1.0000
  C   C413      1.0  0.02247  0.86967  0.55274  1.0000
  H   H330      1.0  0.04487  0.86846  0.54030  1.0000
  H   H331      1.0  0.05709  0.94453  0.35841  1.0000
  C   C414      1.0  0.02413  0.86774  0.38112  1.0000
  C   C415      1.0  0.10960  0.93616  0.35358  1.0000
  C   C416      1.0  0.05180  0.60242  0.39877  1.0000
  H   H332      1.0  0.02524  0.97462  0.62577  1.0000
  C   C417      1.0  0.03903  0.86231  0.35986  1.0000
  H   H333      1.0  0.03977  0.89213  0.38761  1.0000
  C   C418      1.0  0.15678  0.89704  0.47559  1.0000
  H   H334      1.0  0.98941  0.60143  0.33064  1.0000
  H   H335      1.0  0.41907  0.63748  0.35425  1.0000
  H   H336      1.0  0.26082  0.85809  0.56990  1.0000
  C   C419      1.0  0.25624  0.87128  0.55461  1.0000
  C   C420      1.0  0.28966  0.74610  0.64505  1.0000
  C   C421      1.0  0.98902  0.95164  0.39860  1.0000
  H   H337      1.0  0.26534  0.82254  0.62819  1.0000
  C   C422      1.0  0.00625  0.74664  0.51599  1.0000
  C   C423      1.0  0.44658  0.81369  0.64691  1.0000
  C   C424      1.0  0.40607  0.60696  0.61843  1.0000
  H   H338      1.0  0.37113  0.65841  0.34296  1.0000
  C   C425      1.0  0.26308  0.92249  0.44285  1.0000
  C   C426      1.0  0.98876  0.84122  0.39458  1.0000
  H   H339      1.0  0.09832  0.87885  0.46499  1.0000
  C   C427      1.0  0.28454  0.88368  0.53430  1.0000
  H   H340      1.0  0.42779  0.61680  0.60264  1.0000
  C   C428      1.0  0.09653  0.74415  0.34238  1.0000
  H   H341      1.0  0.45987  0.52310  0.56551  1.0000
  H   H342      1.0  0.07251  0.57434  0.42182  1.0000
  C   C429      1.0  0.02037  0.60636  0.32907  1.0000
  C   C430      1.0  0.98159  0.79795  0.52238  1.0000
  C   C431      1.0  0.39689  0.49035  0.41744  1.0000
  H   H343      1.0  0.23536  0.71492  0.33816  1.0000
  C   C432      1.0  0.38235  0.86536  0.62847  1.0000
  H   H344      1.0  0.26985  0.94967  0.43902  1.0000
  H   H345      1.0  0.45424  0.68241  0.64336  1.0000
  C   C433      1.0  0.29603  0.80324  0.65057  1.0000
  Fe  Fe30      1.0  0.23245  0.64255  0.33748  1.0000
  C   C434      1.0  0.17736  0.96376  0.56347  1.0000
  Fe  Fe31      1.0  0.27534  0.59786  0.33316  1.0000
  H   H346      1.0  0.99697  0.77189  0.43067  1.0000
  C   C435      1.0  0.00571  0.79181  0.53724  1.0000
  C   C436      1.0  0.98338  0.86390  0.50003  1.0000
  C   C437      1.0  0.99485  0.89423  0.65516  1.0000
  C   C438      1.0  0.43369  0.53285  0.65262  1.0000
  Fe  Fe32      1.0  0.06544  0.82746  0.65402  1.0000
  C   C439      1.0  0.99965  0.97589  0.53264  1.0000
  C   C440      1.0  0.36335  0.87432  0.64660  1.0000
  H   H347      1.0  0.16847  0.93788  0.34954  1.0000
  C   C441      1.0  0.45235  0.57013  0.33223  1.0000
  H   H348      1.0  0.48006  0.61892  0.38939  1.0000
  H   H349      1.0  0.00763  0.89222  0.33122  1.0000
  C   C442      1.0  0.12914  0.97298  0.42031  1.0000
  C   C443      1.0  0.16515  0.84275  0.33079  1.0000
  H   H350      1.0  0.29530  0.72416  0.65017  1.0000
  H   H351      1.0  0.37730  0.50976  0.63908  1.0000
  C   C444      1.0  0.39606  0.50538  0.65054  1.0000
  H   H352      1.0  0.08287  0.50474  0.65273  1.0000
  C   C445      1.0  0.98171  0.85394  0.54999  1.0000
  C   C446      1.0  0.38079  0.57386  0.65736  1.0000
  C   C447      1.0  0.23720  0.50448  0.32506  1.0000
  P   P16       1.0  0.46037  0.71128  0.84797  1.0000
  C   C448      1.0  0.41624  0.80961  0.66452  1.0000
  Fe  Fe33      1.0  0.23698  0.69201  0.74569  1.0000
  S   S64       1.0  0.28894  0.70726  0.71731  1.0000
  S   S65       1.0  0.19495  0.71652  0.74661  1.0000
  Fe  Fe34      1.0  0.25671  0.63938  0.77346  1.0000
  S   S66       1.0  0.31019  0.65046  0.74713  1.0000
  S   S67       1.0  0.23506  0.59454  0.80305  1.0000
  Fe  Fe35      1.0  0.32375  0.70669  0.74628  1.0000
  S   S68       1.0  0.38348  0.75342  0.74653  1.0000
  Fe  Fe36      1.0  0.27029  0.64961  0.72086  1.0000
  S   S69       1.0  0.26537  0.62483  0.68833  1.0000
  S   S70       1.0  0.27319  0.69571  0.77472  1.0000
  S   S71       1.0  0.21560  0.63437  0.74720  1.0000
  Fe  Fe37      1.0  0.38822  0.55878  0.91973  1.0000
  Fe  Fe38      1.0  0.30647  0.50053  0.91549  1.0000
  Fe  Fe39      1.0  0.31958  0.57464  0.91308  1.0000
  S   S72       1.0  0.27319  0.52428  0.93513  1.0000
  S   S73       1.0  0.30681  0.61702  0.89687  1.0000
  Fe  Fe40      1.0  0.31880  0.53576  0.95971  1.0000
  H   H353      1.0  0.46933  0.82314  0.81241  1.0000
  S   S74       1.0  0.36242  0.58808  0.93905  1.0000
  S   S75       1.0  0.34966  0.55025  0.89173  1.0000
  C   C449      1.0  0.47419  0.50819  0.79313  1.0000
  H   H354      1.0  0.27933  0.49814  0.86491  1.0000
  S   S76       1.0  0.45465  0.57605  0.91485  1.0000
  P   P17       1.0  0.11631  0.51301  0.73230  1.0000
  C   C450      1.0  0.35089  0.51879  0.77950  1.0000
  C   C451      1.0  0.25781  0.60174  0.82817  1.0000
  C   C452      1.0  0.27591  0.63511  0.83448  1.0000
  C   C453      1.0  0.29186  0.63973  0.85535  1.0000
  C   C454      1.0  0.28999  0.61112  0.86986  1.0000
  C   C455      1.0  0.27347  0.57804  0.86304  1.0000
  C   C456      1.0  0.25689  0.57327  0.84238  1.0000
  H   H355      1.0  0.27715  0.65722  0.82344  1.0000
  H   H356      1.0  0.30584  0.66554  0.86018  1.0000
  H   H357      1.0  0.27238  0.55595  0.87402  1.0000
  H   H358      1.0  0.24329  0.54746  0.83742  1.0000
  C   C457      1.0  0.25583  0.58080  0.69063  1.0000
  C   C458      1.0  0.44151  0.66929  0.94249  1.0000
  C   C459      1.0  0.26411  0.56401  0.70955  1.0000
  H   H359      1.0  0.08399  0.55464  0.75591  1.0000
  H   H360      1.0  0.27698  0.57832  0.72330  1.0000
  H   H361      1.0  0.36414  0.67257  0.79171  1.0000
  C   C460      1.0  0.25561  0.52854  0.71064  1.0000
  C   C461      1.0  0.40473  0.64380  0.84369  1.0000
  H   H362      1.0  0.14241  0.55183  0.81913  1.0000
  H   H363      1.0  0.32212  0.77560  0.67011  1.0000
  H   H364      1.0  0.18451  0.63294  0.68767  1.0000
  H   H365      1.0  0.43740  0.59157  0.86868  1.0000
  C   C462      1.0  0.10569  0.57116  0.74084  1.0000
  C   C463      1.0  0.42273  0.54433  0.72749  1.0000
  C   C464      1.0  0.43930  0.52538  0.73910  1.0000
  C   C465      1.0  0.11876  0.95498  0.66041  1.0000
  C   C466      1.0  0.39659  0.69706  0.88305  1.0000
  C   C467      1.0  0.42374  0.74626  0.75349  1.0000
  C   C468      1.0  0.09520  0.50577  0.84143  1.0000
  C   C469      1.0  0.42206  0.67951  0.83424  1.0000
  H   H366      1.0  0.09712  0.61602  0.74664  1.0000
  C   C470      1.0  0.43772  0.71777  0.87446  1.0000
  C   C471      1.0  0.42297  0.71362  0.75363  1.0000
  H   H367      1.0  0.36162  0.57230  0.77727  1.0000
  H   H368      1.0  0.25047  0.83160  0.70103  1.0000
  H   H369      1.0  0.45498  0.68366  0.76019  1.0000
  H   H370      1.0  0.39708  0.69194  0.74928  1.0000
  C   C472      1.0  0.18754  0.73482  0.72026  1.0000
  C   C473      1.0  0.20018  0.72820  0.69888  1.0000
  H   H371      1.0  0.26161  0.51547  0.72534  1.0000
  C   C474      1.0  0.13171  0.52449  0.82628  1.0000
  C   C475      1.0  0.16409  0.77245  0.69981  1.0000
  C   C476      1.0  0.16907  0.75667  0.72068  1.0000
  H   H372      1.0  0.21421  0.71127  0.69830  1.0000
  H   H373      1.0  0.15033  0.78960  0.70024  1.0000
  H   H374      1.0  0.15898  0.76173  0.73718  1.0000
  H   H375      1.0  0.41479  0.63535  0.85867  1.0000
  C   C477      1.0  0.16930  0.56992  0.88033  1.0000
  C   C478      1.0  0.17591  0.54069  0.88373  1.0000
  C   C479      1.0  0.19211  0.53480  0.90320  1.0000
  C   C480      1.0  0.20216  0.55830  0.91914  1.0000
  C   C481      1.0  0.19575  0.58783  0.91584  1.0000
  C   C482      1.0  0.17856  0.59311  0.89650  1.0000
  P   P18       1.0  0.20652  0.61746  0.93697  1.0000
  C   C483      1.0  0.15999  0.61858  0.94619  1.0000
  C   C484      1.0  0.22253  0.60136  0.96160  1.0000
  C   C485      1.0  0.40470  0.78423  0.68420  1.0000
  C   C486      1.0  0.40310  0.68045  0.67929  1.0000
  H   H376      1.0  0.41992  0.54011  0.82679  1.0000
  H   H377      1.0  0.47410  0.69377  0.71450  1.0000
  C   C487      1.0  0.26211  0.60589  0.95972  1.0000
  C   C488      1.0  0.15966  0.65018  0.94939  1.0000
  C   C489      1.0  0.16194  0.61551  0.70226  1.0000
  H   H378      1.0  0.05881  0.61975  0.96538  1.0000
  C   C490      1.0  0.19602  0.58413  0.98260  1.0000
  H   H379      1.0  0.45961  0.48887  0.69389  1.0000
  C   C491      1.0  0.24608  0.66117  0.92521  1.0000
  C   C492      1.0  0.25745  0.67268  0.90113  1.0000
  C   C493      1.0  0.28676  0.70710  0.89246  1.0000
  C   C494      1.0  0.30513  0.73027  0.90774  1.0000
  C   C495      1.0  0.29447  0.71891  0.93174  1.0000
  C   C496      1.0  0.26517  0.68450  0.94046  1.0000
  H   H380      1.0  0.15782  0.57500  0.86488  1.0000
  H   H381      1.0  0.16967  0.52322  0.87091  1.0000
  H   H382      1.0  0.19816  0.51264  0.90557  1.0000
  H   H383      1.0  0.21526  0.55345  0.93384  1.0000
  H   H384      1.0  0.17283  0.61544  0.89374  1.0000
  C   C497      1.0  0.28243  0.86037  0.66674  1.0000
  H   H385      1.0  0.20897  0.90104  0.67104  1.0000
  P   P19       1.0  0.31693  0.84180  0.66442  1.0000
  H   H386      1.0  0.08342  0.52445  0.69092  1.0000
  H   H387      1.0  0.28304  0.61892  0.94370  1.0000
  H   H388      1.0  0.18726  0.67464  0.94647  1.0000
  H   H389      1.0  0.07723  0.51860  0.84601  1.0000
  C   C498      1.0  0.43399  0.68940  0.95763  1.0000
  C   C499      1.0  0.42351  0.76295  0.68633  1.0000
  H   H390      1.0  0.24429  0.65521  0.88891  1.0000
  H   H391      1.0  0.29544  0.71567  0.87383  1.0000
  H   H392      1.0  0.32791  0.75688  0.90093  1.0000
  H   H393      1.0  0.30883  0.73679  0.94362  1.0000
  H   H394      1.0  0.25704  0.67615  0.95911  1.0000
  C   C500      1.0  0.47653  0.57739  0.88659  1.0000
  H   H395      1.0  0.41445  0.74371  0.70190  1.0000
  C   C501      1.0  0.37912  0.70360  0.90294  1.0000
  C   C502      1.0  0.29704  0.80091  0.70806  1.0000
  C   C503      1.0  0.15504  0.50810  0.82048  1.0000
  C   C504      1.0  0.45383  0.76663  0.66868  1.0000
  C   C505      1.0  0.06641  0.89409  0.71527  1.0000
  C   C506      1.0  0.06683  0.48582  0.77544  1.0000
  H   H396      1.0  0.42007  0.71693  0.80752  1.0000
  C   C507      1.0  0.40740  0.68975  0.81531  1.0000
  C   C508      1.0  0.03159  0.86295  0.71508  1.0000
  S   S77       1.0  0.00069  0.80434  0.67142  1.0000
  C   C509      1.0  0.44027  0.69701  0.68722  1.0000
  C   C510      1.0  0.37298  0.64817  0.69116  1.0000
  H   H397      1.0  0.38325  0.55828  0.67213  1.0000
  H   H398      1.0  0.39724  0.69258  0.66402  1.0000
  C   C511      1.0  0.30434  0.79101  0.72984  1.0000
  C   C512      1.0  0.34183  0.81003  0.73655  1.0000
  H   H399      1.0  0.38856  0.73658  0.92933  1.0000
  C   C513      1.0  0.22718  0.86541  0.68822  1.0000
  C   C514      1.0  0.17748  0.76632  0.67840  1.0000
  C   C515      1.0  0.99376  0.86188  0.71854  1.0000
  H   H400      1.0  0.32672  0.57210  0.67450  1.0000
  P   P20       1.0  0.47836  0.73936  0.67224  1.0000
  H   H401      1.0  0.20454  0.85744  0.70351  1.0000
  C   C516      1.0  0.02567  0.92322  0.72273  1.0000
  H   H402      1.0  0.17225  0.57182  0.69666  1.0000
  H   H403      1.0  0.36523  0.48837  0.89886  1.0000
  C   C517      1.0  0.44172  0.57357  0.97940  1.0000
  C   C518      1.0  0.38616  0.52652  0.71944  1.0000
  C   C519      1.0  0.38428  0.50031  0.80727  1.0000
  H   H404      1.0  0.12317  0.67500  0.95869  1.0000
  C   C520      1.0  0.15358  0.50830  0.74740  1.0000
  C   C521      1.0  0.36734  0.55209  0.78592  1.0000
  C   C522      1.0  0.47733  0.68068  0.98263  1.0000
  H   H405      1.0  0.03895  0.87916  0.66489  1.0000
  C   C523      1.0  0.23212  0.52744  0.67356  1.0000
  C   C524      1.0  0.11280  0.60590  0.73560  1.0000
  H   H406      1.0  0.34769  0.80174  0.75324  1.0000
  S   S78       1.0  0.34760  0.50711  0.94214  1.0000
  C   C525      1.0  0.34880  0.58190  0.65881  1.0000
  C   C526      1.0  0.45755  0.77432  0.75886  1.0000
  C   C527      1.0  0.37193  0.83922  0.72155  1.0000
  H   H407      1.0  0.42898  0.58804  0.97029  1.0000
  C   C528      1.0  0.40023  0.53372  0.81381  1.0000
  H   H408      1.0  0.09573  0.89509  0.71176  1.0000
  H   H409      1.0  0.43353  0.76234  0.83324  1.0000
  H   H410      1.0  0.42740  0.66469  0.92699  1.0000
  H   H411      1.0  0.10492  0.92696  0.66588  1.0000
  C   C529      1.0  0.24041  0.56251  0.67252  1.0000
  H   H412      1.0  0.36625  0.91660  0.66457  1.0000
  C   C530      1.0  0.12326  0.65052  0.95630  1.0000
  H   H413      1.0  0.33508  0.60976  0.80801  1.0000
  H   H414      1.0  0.38610  0.52544  0.98468  1.0000
  S   S79       1.0  0.44710  0.59022  0.72193  1.0000
  C   C531      1.0  0.35946  0.62913  0.81525  1.0000
  C   C532      1.0  0.08704  0.58787  0.95686  1.0000
  C   C533      1.0  0.39187  0.55946  0.80315  1.0000
  H   H415      1.0  0.37285  0.54105  0.71097  1.0000
  S   S80       1.0  0.12062  0.84640  0.67167  1.0000
  C   C534      1.0  0.37932  0.63248  0.71126  1.0000
  C   C535      1.0  0.09730  0.97346  0.66553  1.0000
  H   H416      1.0  0.47334  0.59753  0.82921  1.0000
  H   H417      1.0  0.06684  0.95949  0.67476  1.0000
  H   H418      1.0  0.40531  0.58540  0.80785  1.0000
  C   C536      1.0  0.12659  0.55831  0.72670  1.0000
  H   H419      1.0  0.35981  0.59136  0.84186  1.0000
  H   H420      1.0  0.03393  0.83983  0.71131  1.0000
  H   H421      1.0  0.40117  0.85355  0.72672  1.0000
  C   C537      1.0  0.37353  0.61878  0.83425  1.0000
  H   H422      1.0  0.34738  0.68708  0.90953  1.0000
  C   C538      1.0  0.37599  0.66459  0.80600  1.0000
  H   H423      1.0  0.12293  0.56277  0.94751  1.0000
  H   H424      1.0  0.37773  0.67607  0.87434  1.0000
  H   H425      1.0  0.19454  0.56373  0.74355  1.0000
  H   H426      1.0  0.42022  0.63755  0.73556  1.0000
  H   H427      1.0  0.02407  0.94703  0.72524  1.0000
  C   C539      1.0  0.41569  0.64933  0.71963  1.0000
  H   H428      1.0  0.23186  0.49625  0.78101  1.0000
  H   H429      1.0  0.09056  0.94863  0.71861  1.0000
  C   C540      1.0  0.32684  0.83036  0.69290  1.0000
  C   C541      1.0  0.19486  0.74369  0.67813  1.0000
  C   C542      1.0  0.35926  0.49292  0.79009  1.0000
  C   C543      1.0  0.15507  0.58087  0.70751  1.0000
  C   C544      1.0  0.45580  0.70900  0.75962  1.0000
  C   C545      1.0  0.44348  0.75197  0.90577  1.0000
  C   C546      1.0  0.36449  0.84952  0.69984  1.0000
  C   C547      1.0  0.40237  0.73133  0.91411  1.0000
  C   C548      1.0  0.44628  0.68127  0.70756  1.0000
  H   H430      1.0  0.35593  0.60747  0.72054  1.0000
  C   C549      1.0  0.25347  0.85072  0.68668  1.0000
  H   H431      1.0  0.14648  0.65500  0.71246  1.0000
  H   H432      1.0  0.18367  0.52275  0.80915  1.0000
  H   H433      1.0  0.28101  0.76823  0.74142  1.0000
  C   C550      1.0  0.18846  0.53759  0.75068  1.0000
  C   C551      1.0  0.06344  0.92420  0.71916  1.0000
  H   H434      1.0  0.47089  0.63780  0.93609  1.0000
  H   H435      1.0  0.24336  0.55599  0.76546  1.0000
  C   C552      1.0  0.41904  0.48850  0.74258  1.0000
  H   H436      1.0  0.21978  0.51355  0.65952  1.0000
  C   C553      1.0  0.14069  0.62799  0.71625  1.0000
  C   C554      1.0  0.21644  0.53325  0.76294  1.0000
  H   H437      1.0  0.26812  0.78542  0.70297  1.0000
  H   H438      1.0  0.41370  0.70001  0.95414  1.0000
  C   C555      1.0  0.41731  0.53775  0.98731  1.0000
  C   C556      1.0  0.23899  0.51007  0.69274  1.0000
  C   C557      1.0  0.09703  0.50769  0.68754  1.0000
  H   H439      1.0  0.23437  0.57539  0.65773  1.0000
  C   C558      1.0  0.46273  0.58616  0.86679  1.0000
  C   C559      1.0  0.20998  0.49965  0.77171  1.0000
  H   H440      1.0  0.38139  0.78111  0.69804  1.0000
  C   C560      1.0  0.38724  0.48594  0.88702  1.0000
  H   H441      1.0  0.47931  0.48908  0.88400  1.0000
  H   H442      1.0  0.45316  0.62441  0.66854  1.0000
  H   H443      1.0  0.09388  0.50001  0.78286  1.0000
  C   C561      1.0  0.11534  0.49765  0.70457  1.0000
  H   H444      1.0  0.34448  0.63549  0.68497  1.0000
  H   H445      1.0  0.38845  0.87203  0.68858  1.0000
  C   C562      1.0  0.27488  0.59324  0.97845  1.0000
  C   C563      1.0  0.44246  0.49331  0.68128  1.0000
  H   H446      1.0  0.45850  0.79970  0.75856  1.0000
  H   H447      1.0  0.40180  0.82619  0.66305  1.0000
  H   H448      1.0  0.46760  0.53907  0.74532  1.0000
  H   H449      1.0  0.99489  0.94156  0.68622  1.0000
  H   H450      1.0  0.20416  0.73799  0.66176  1.0000
  H   H451      1.0  0.30525  0.59631  0.97686  1.0000
  C   C564      1.0  0.09662  0.49654  0.66587  1.0000
  C   C565      1.0  0.45231  0.69549  0.97751  1.0000
  H   H452      1.0  0.33248  0.51333  0.76585  1.0000
  C   C566      1.0  0.22941  0.88972  0.66987  1.0000
  C   C567      1.0  0.46616  0.65408  0.94771  1.0000
  H   H453      1.0  0.46165  0.77335  0.91450  1.0000
  C   C568      1.0  0.46114  0.74518  0.88604  1.0000
  C   C569      1.0  0.46555  0.77391  0.82696  1.0000
  H   H454      1.0  0.46991  0.53097  0.79497  1.0000
  C   C570      1.0  0.00836  0.87003  0.66169  1.0000
  H   H455      1.0  0.37418  0.59269  0.98917  1.0000
  C   C571      1.0  0.45659  0.52663  0.66832  1.0000
  C   C572      1.0  0.08698  0.61941  0.96005  1.0000
  H   H456      1.0  0.42888  0.49492  0.91137  1.0000
  C   C573      1.0  0.36619  0.48993  0.72275  1.0000
  C   C574      1.0  0.12336  0.58744  0.94991  1.0000
  H   H457      1.0  0.44657  0.71117  0.98925  1.0000
  C   C575      1.0  0.99038  0.89198  0.72252  1.0000
  C   C576      1.0  0.06854  0.48752  0.75120  1.0000
  C   C577      1.0  0.42287  0.48908  0.89412  1.0000
  H   H458      1.0  0.25117  0.48876  0.82796  1.0000
  H   H459      1.0  0.05890  0.56375  0.95974  1.0000
  C   C578      1.0  0.45119  0.48575  0.87872  1.0000
  C   C579      1.0  0.98224  0.83420  0.66454  1.0000
  H   H460      1.0  0.98908  0.91437  0.76578  1.0000
  H   H461      1.0  0.16541  0.58024  0.98468  1.0000
  H   H462      1.0  0.50233  0.42271  0.28581  1.0000
  C   C580      1.0  0.50443  0.44353  0.27299  1.0000
  H   H463      1.0  0.56904  0.46788  0.26453  1.0000
  C   C581      1.0  0.54190  0.46904  0.26111  1.0000
  H   H464      1.0  0.50989  0.46380  0.16041  1.0000
  H   H465      1.0  0.51942  0.47966  0.19947  1.0000
  H   H466      1.0  0.49445  0.45468  0.34779  1.0000
  H   H467      1.0  0.91471  0.11429  0.64798  1.0000
  C   C582      1.0  0.86161  0.08736  0.38708  1.0000
  C   C583      1.0  0.88102  0.03150  0.63542  1.0000
  H   H468      1.0  0.82497  0.01711  0.45298  1.0000
  C   C584      1.0  0.86575  0.02837  0.40856  1.0000
  C   C585      1.0  0.91717  0.02933  0.63434  1.0000
  C   C586      1.0  0.84034  0.02500  0.39185  1.0000
  C   C587      1.0  0.91371  0.04798  0.50042  1.0000
  P   P21       1.0  0.86787  0.99023  0.42259  1.0000
  H   H469      1.0  0.86022  0.11013  0.37867  1.0000
  S   S81       1.0  0.83582  0.99660  0.63078  1.0000
  H   H470      1.0  0.91779  0.00560  0.63056  1.0000
  H   H471      1.0  0.90064  0.06498  0.46801  1.0000
  C   C588      1.0  0.95180  0.08881  0.64309  1.0000
  C   C589      1.0  0.91809  0.07530  0.56476  1.0000
  C   C590      1.0  0.88861  0.06156  0.41462  1.0000
  H   H472      1.0  0.88216  0.03241  0.50763  1.0000
  H   H473      1.0  0.90805  0.11344  0.58157  1.0000
  C   C591      1.0  0.92411  0.06673  0.47789  1.0000
  H   H474      1.0  0.90472  0.11650  0.40843  1.0000
  C   C592      1.0  0.92834  0.10245  0.57799  1.0000
  C   C593      1.0  0.88665  0.09092  0.40385  1.0000
  C   C594      1.0  0.95267  0.05811  0.63807  1.0000
  H   H475      1.0  0.81893  0.05158  0.36814  1.0000
  C   C595      1.0  0.94388  0.04988  0.51344  1.0000
  C   C596      1.0  0.87907  0.99379  0.54884  1.0000
  C   C597      1.0  0.94350  0.05994  0.56096  1.0000
  P   P22       1.0  0.93133  0.02640  0.54268  1.0000
  H   H476      1.0  0.82198  0.99975  0.38699  1.0000
  H   H477      1.0  0.90813  0.06488  0.42754  1.0000
  H   H478      1.0  0.89021  0.06610  0.55768  1.0000
  C   C598      1.0  0.95930  0.00243  0.54742  1.0000
  C   C599      1.0  0.95163  0.02963  0.41950  1.0000
  C   C600      1.0  0.91588  0.00242  0.43249  1.0000
  H   H479      1.0  0.95158  0.04226  0.40260  1.0000
  C   C601      1.0  0.83840  0.05439  0.38114  1.0000
  H   H480      1.0  0.86703  0.00657  0.58266  1.0000
  C   C602      1.0  0.88052  0.06233  0.64017  1.0000
  H   H481      1.0  0.97243  0.13595  0.59737  1.0000
  C   C603      1.0  0.96460  0.11518  0.58688  1.0000
  C   C604      1.0  0.85494  0.98985  0.56983  1.0000
  H   H482      1.0  0.85273  0.06416  0.64097  1.0000
  C   C605      1.0  0.91765  0.98571  0.45386  1.0000
  C   C606      1.0  0.91559  0.09067  0.64421  1.0000
  C   C607      1.0  0.96465  0.08771  0.46826  1.0000
  C   C608      1.0  0.95410  0.99652  0.46235  1.0000
  C   C609      1.0  0.81418  0.98963  0.45939  1.0000
  H   H483      1.0  0.94167  0.99171  0.58482  1.0000
  C   C610      1.0  0.95797  0.98760  0.57012  1.0000
  C   C611      1.0  0.49688  0.47521  0.33464  1.0000
  H   H484      1.0  0.77493  0.98963  0.48877  1.0000
  H   H485      1.0  0.95491  0.98290  0.47865  1.0000
  C   C612      1.0  0.97993  0.07297  0.56991  1.0000
  C   C613      1.0  0.98014  0.99628  0.52868  1.0000
  H   H486      1.0  0.97288  0.10186  0.45068  1.0000
  H   H487      1.0  0.98050  0.05643  0.63715  1.0000
  H   H488      1.0  0.92545  0.34251  0.89881  1.0000
  H   H489      1.0  0.94531  0.33204  0.85979  1.0000
  C   C614      1.0  0.48822  0.45069  0.78906  1.0000
  H   H490      1.0  0.96640  0.43234  0.79256  1.0000
  H   H491      1.0  0.94047  0.00835  0.67504  1.0000
  C   C615      1.0  0.95690  0.35534  0.89092  1.0000
  C   C616      1.0  0.96810  0.34947  0.86894  1.0000
  H   H492      1.0  0.96892  0.43532  0.74983  1.0000
  H   H493      1.0  0.49376  0.42845  0.78761  1.0000
  H   H494      1.0  0.96011  0.08308  0.69746  1.0000
  C   C617      1.0  0.94125  0.98658  0.68529  1.0000
  H   H495      1.0  0.97116  0.03441  0.71529  1.0000
  H   H496      1.0  0.97762  0.38218  0.91984  1.0000
  C   C618      1.0  0.52983  0.65494  0.04181  1.0000
  C   C619      1.0  0.53352  0.75292  0.19688  1.0000
  H   H497      1.0  0.60382  0.78486  0.26456  1.0000
  S   S82       1.0  0.60531  0.72367  0.29663  1.0000
  C   C620      1.0  0.54440  0.49646  0.24517  1.0000
  Fe  Fe41      1.0  0.58974  0.62757  0.30127  1.0000
  S   S83       1.0  0.64344  0.67352  0.27932  1.0000
  H   H498      1.0  0.58508  0.68169  0.05543  1.0000
  C   C621      1.0  0.49579  0.72595  0.20790  1.0000
  H   H499      1.0  0.55407  0.74169  0.24458  1.0000
  Fe  Fe42      1.0  0.59847  0.69034  0.26829  1.0000
  S   S84       1.0  0.60567  0.71267  0.23041  1.0000
  H   H500      1.0  0.57930  0.77189  0.16657  1.0000
  S   S85       1.0  0.54484  0.64252  0.28820  1.0000
  H   H501      1.0  0.91518  0.84105  0.31277  1.0000
  H   H502      1.0  0.54066  0.72239  0.14607  1.0000
  S   S86       1.0  0.52120  0.63062  0.15034  1.0000
  H   H503      1.0  0.55058  0.77505  0.20525  1.0000
  C   C622      1.0  0.58036  0.68820  0.20921  1.0000
  Fe  Fe43      1.0  0.55540  0.67402  0.31754  1.0000
  H   H504      1.0  0.51064  0.64943  0.05837  1.0000
  C   C623      1.0  0.54233  0.65290  0.17335  1.0000
  C   C624      1.0  0.58243  0.67912  0.16877  1.0000
  C   C625      1.0  0.60095  0.69716  0.18641  1.0000
  S   S87       1.0  0.58358  0.57259  0.30599  1.0000
  H   H505      1.0  0.50688  0.54926  0.28749  1.0000
  H   H506      1.0  0.59914  0.68593  0.15137  1.0000
  H   H507      1.0  0.63172  0.71786  0.18244  1.0000
  C   C626      1.0  0.72701  0.62369  0.32106  1.0000
  H   H508      1.0  0.56778  0.59458  0.18478  1.0000
  C   C627      1.0  0.54974  0.75159  0.17469  1.0000
  H   H509      1.0  0.70542  0.60469  0.31208  1.0000
  H   H510      1.0  0.63207  0.64672  0.18483  1.0000
  H   H511      1.0  0.57370  0.51587  0.23604  1.0000
  C   C628      1.0  0.57168  0.67318  0.04011  1.0000
  C   C629      1.0  0.56722  0.81001  0.27286  1.0000
  C   C630      1.0  0.84764  0.75415  0.32197  1.0000
  H   H512      1.0  0.48999  0.62426  0.19964  1.0000
  H   H513      1.0  0.83045  0.73410  0.31215  1.0000
  C   C631      1.0  0.50655  0.48611  0.16492  1.0000
  C   C632      1.0  0.50697  0.52370  0.19324  1.0000
  C   C633      1.0  0.59612  0.68039  0.01870  1.0000
  H   H514      1.0  0.58887  0.82856  0.28200  1.0000
  C   C634      1.0  0.56093  0.57375  0.22115  1.0000
  H   H515      1.0  0.66208  0.65726  0.22102  1.0000
  C   C635      1.0  0.52106  0.64430  0.19605  1.0000
  H   H516      1.0  0.52383  0.65552  0.23145  1.0000
  H   H517      1.0  0.62793  0.61376  0.25716  1.0000
  H   H518      1.0  0.49090  0.68587  0.99819  1.0000
  C   C636      1.0  0.57814  0.58006  0.24155  1.0000
  H   H519      1.0  0.56316  0.56230  0.25774  1.0000
  Fe  Fe44      1.0  0.64641  0.70314  0.30927  1.0000
  C   C637      1.0  0.61490  0.60956  0.24132  1.0000
  C   C638      1.0  0.63431  0.63368  0.22093  1.0000
  C   C639      1.0  0.61736  0.62774  0.20056  1.0000
  C   C640      1.0  0.58074  0.59798  0.20063  1.0000
  C   C641      1.0  0.50407  0.52882  0.30081  1.0000
  H   H520      1.0  0.50934  0.59104  0.24631  1.0000
  H   H521      1.0  0.87341  0.79385  0.29145  1.0000
  P   P23       1.0  0.51302  0.53563  0.22188  1.0000
  C   C642      1.0  0.53069  0.81039  0.27100  1.0000
  C   C643      1.0  0.54022  0.66174  0.21404  1.0000
  H   H522      1.0  0.49973  0.69760  0.27521  1.0000
  H   H523      1.0  0.62860  0.69435  0.01747  1.0000
  H   H524      1.0  0.51799  0.73196  0.31625  1.0000
  C   C644      1.0  0.53662  0.65173  0.00043  1.0000
  C   C645      1.0  0.50944  0.49907  0.24147  1.0000
  C   C646      1.0  0.87265  0.78810  0.30999  1.0000
  H   H525      1.0  0.48413  0.54951  0.14228  1.0000
  C   C647      1.0  0.57561  0.78538  0.26312  1.0000
  C   C648      1.0  0.49684  0.54304  0.17685  1.0000
  C   C649      1.0  0.50239  0.78599  0.25957  1.0000
  C   C650      1.0  0.51242  0.64393  0.02214  1.0000
  C   C651      1.0  0.54734  0.76092  0.25177  1.0000
  C   C652      1.0  0.52800  0.72387  0.16311  1.0000
  H   H526      1.0  0.49275  0.56508  0.18125  1.0000
  C   C653      1.0  0.53634  0.53426  0.31290  1.0000
  C   C654      1.0  0.89622  0.81466  0.32194  1.0000
  H   H527      1.0  0.71423  0.66541  0.30814  1.0000
  H   H528      1.0  0.52390  0.82916  0.27881  1.0000
  C   C655      1.0  0.51196  0.49520  0.18711  1.0000
  C   C656      1.0  0.49647  0.50556  0.14869  1.0000
  C   C657      1.0  0.48601  0.71603  0.32217  1.0000
  C   C658      1.0  0.57872  0.66964  0.99891  1.0000
  C   C659      1.0  0.49177  0.53410  0.15467  1.0000
  S   S88       1.0  0.70858  0.73520  0.31915  1.0000
  H   H529      1.0  0.49693  0.58039  0.06347  1.0000
  C   C660      1.0  0.73201  0.65786  0.31876  1.0000
  C   C661      1.0  0.51043  0.76089  0.24997  1.0000
  C   C662      1.0  0.49017  0.69744  0.17376  1.0000
  H   H530      1.0  0.49214  0.49843  0.13158  1.0000
  H   H531      1.0  0.52832  0.58214  0.99786  1.0000
  H   H532      1.0  0.48531  0.51864  0.01104  1.0000
  C   C663      1.0  0.49742  0.56997  0.99469  1.0000
  H   H533      1.0  0.79707  0.95982  0.59148  1.0000
  S   S89       1.0  0.82463  0.84990  0.63993  1.0000
  C   C664      1.0  0.71106  0.75168  0.57163  1.0000
  Fe  Fe45      1.0  0.83316  0.94342  0.63353  1.0000
  S   S90       1.0  0.86584  0.92778  0.60685  1.0000
  Fe  Fe46      1.0  0.80841  0.87732  0.61133  1.0000
  S   S91       1.0  0.77761  0.84904  0.58289  1.0000
  Fe  Fe47      1.0  0.87906  0.90200  0.63766  1.0000
  H   H534      1.0  0.91039  0.94191  0.35819  1.0000
  S   S92       1.0  0.77409  0.89520  0.63546  1.0000
  H   H535      1.0  0.48897  0.79610  0.63522  1.0000
  Fe  Fe48      1.0  0.86327  0.79638  0.44240  1.0000
  S   S93       1.0  0.85621  0.74374  0.45731  1.0000
  Fe  Fe49      1.0  0.86751  0.86308  0.45605  1.0000
  S   S94       1.0  0.85950  0.88155  0.42071  1.0000
  S   S95       1.0  0.88443  0.89783  0.48366  1.0000
  Fe  Fe50      1.0  0.81242  0.82601  0.42101  1.0000
  S   S96       1.0  0.81589  0.80933  0.45809  1.0000
  S   S97       1.0  0.91525  0.84895  0.44280  1.0000
  H   H536      1.0  0.87070  0.76775  0.37611  1.0000
  P   P24       1.0  0.81284  0.70345  0.36262  1.0000
  C   C665      1.0  0.80851  0.85990  0.55582  1.0000
  C   C666      1.0  0.84984  0.88259  0.55305  1.0000
  C   C667      1.0  0.87317  0.89354  0.53084  1.0000
  C   C668      1.0  0.85547  0.88106  0.51145  1.0000
  C   C669      1.0  0.81452  0.85715  0.51434  1.0000
  C   C670      1.0  0.79103  0.84677  0.53650  1.0000
  H   H537      1.0  0.86366  0.89261  0.56783  1.0000
  H   H538      1.0  0.90482  0.91220  0.52867  1.0000
  H   H539      1.0  0.80074  0.84754  0.49940  1.0000
  H   H540      1.0  0.75909  0.82940  0.53857  1.0000
  H   H541      1.0  0.50831  0.63291  0.59952  1.0000
  H   H542      1.0  0.78329  0.77319  0.33564  1.0000
  C   C671      1.0  0.82345  0.94317  0.53858  1.0000
  S   S98       1.0  0.75185  0.81038  0.40878  1.0000
  C   C672      1.0  0.91101  0.80668  0.53025  1.0000
  H   H543      1.0  0.82668  0.91882  0.44880  1.0000
  C   C673      1.0  0.82853  0.96971  0.44765  1.0000
  C   C674      1.0  0.70323  0.72092  0.53854  1.0000
  H   H544      1.0  0.89111  0.96418  0.46415  1.0000
  C   C675      1.0  0.91212  0.69154  0.37354  1.0000
  H   H545      1.0  0.76924  0.91798  0.56389  1.0000
  Fe  Fe51      1.0  0.90372  0.86379  0.40748  1.0000
  C   C676      1.0  0.87030  0.77331  0.35777  1.0000
  H   H546      1.0  0.89098  0.55910  0.41270  1.0000
  H   H547      1.0  0.67671  0.77374  0.39182  1.0000
  S   S99       1.0  0.85633  0.80941  0.40562  1.0000
  C   C677      1.0  0.85957  0.96059  0.40161  1.0000
  C   C678      1.0  0.82016  0.93570  0.39984  1.0000
  C   C679      1.0  0.84082  0.80264  0.59549  1.0000
  C   C680      1.0  0.84525  0.74675  0.34617  1.0000
  H   H548      1.0  0.74308  0.62513  0.63683  1.0000
  H   H549      1.0  0.84908  0.76979  0.64876  1.0000
  H   H550      1.0  0.79445  0.93338  0.41129  1.0000
  C   C681      1.0  0.53084  0.61279  0.64321  1.0000
  C   C682      1.0  0.62780  0.74527  0.63802  1.0000
  C   C683      1.0  0.82676  0.76707  0.53773  1.0000
  C   C684      1.0  0.78590  0.97418  0.47976  1.0000
  H   H551      1.0  0.92016  0.66303  0.40321  1.0000
  H   H552      1.0  0.74502  0.58734  0.33722  1.0000
  H   H553      1.0  0.70303  0.82027  0.64999  1.0000
  H   H554      1.0  0.71177  0.67361  0.58541  1.0000
  C   C685      1.0  0.84932  0.75966  0.55293  1.0000
  C   C686      1.0  0.88524  0.94059  0.36964  1.0000
  C   C687      1.0  0.71963  0.75618  0.34410  1.0000
  C   C688      1.0  0.55441  0.76040  0.61138  1.0000
  C   C689      1.0  0.54053  0.62761  0.38948  1.0000
  C   C690      1.0  0.65107  0.73072  0.62839  1.0000
  C   C691      1.0  0.97746  0.96716  0.57401  1.0000
  C   C692      1.0  0.53258  0.50707  0.32960  1.0000
  C   C693      1.0  0.69318  0.74798  0.62699  1.0000
  C   C694      1.0  0.71174  0.78079  0.63426  1.0000
  C   C695      1.0  0.49998  0.73544  0.64436  1.0000
  C   C696      1.0  0.81516  0.96309  0.57497  1.0000
  C   C697      1.0  0.68843  0.79534  0.64381  1.0000
  H   H555      1.0  0.57694  0.57245  0.37405  1.0000
  H   H556      1.0  0.91388  0.82769  0.35509  1.0000
  C   C698      1.0  0.88818  0.81375  0.51492  1.0000
  H   H557      1.0  0.85830  0.82287  0.58075  1.0000
  S   S100      1.0  0.50417  0.66690  0.34423  1.0000
  H   H558      1.0  0.72798  0.69169  0.36917  1.0000
  C   C699      1.0  0.96813  0.77667  0.50515  1.0000
  H   H559      1.0  0.85774  0.67866  0.46057  1.0000
  H   H560      1.0  0.69993  0.71987  0.52038  1.0000
  C   C700      1.0  0.96662  0.75151  0.43720  1.0000
  H   H561      1.0  0.90852  0.77338  0.56110  1.0000
  H   H562      1.0  0.89628  0.71827  0.34681  1.0000
  C   C701      1.0  0.77009  0.78936  0.36772  1.0000
  C   C702      1.0  0.88807  0.69902  0.45400  1.0000
  H   H563      1.0  0.65865  0.74388  0.35727  1.0000
  H   H564      1.0  0.90243  0.83426  0.49993  1.0000
  C   C703      1.0  0.78660  0.91902  0.47730  1.0000
  C   C704      1.0  0.77205  0.93887  0.48868  1.0000
  H   H565      1.0  0.89794  0.83846  0.65142  1.0000
  H   H566      1.0  0.77658  0.89183  0.48440  1.0000
  H   H567      1.0  0.75043  0.92696  0.50457  1.0000
  C   C705      1.0  0.93559  0.76050  0.44263  1.0000
  H   H568      1.0  0.55751  0.51068  0.33871  1.0000
  P   P25       1.0  0.96528  0.83096  0.52570  1.0000
  H   H569      1.0  0.94442  0.87677  0.59742  1.0000
  H   H570      1.0  0.93980  0.78916  0.39702  1.0000
  C   C706      1.0  0.95565  0.88301  0.65060  1.0000
  H   H571      1.0  0.92308  0.84826  0.56312  1.0000
  C   C707      1.0  0.81479  0.93435  0.45693  1.0000
  C   C708      1.0  0.78108  0.70766  0.38620  1.0000
  C   C709      1.0  0.84585  0.68840  0.37462  1.0000
  C   C710      1.0  0.83273  0.66533  0.39581  1.0000
  C   C711      1.0  0.85940  0.65602  0.40594  1.0000
  H   H572      1.0  0.84102  0.89733  0.35601  1.0000
  C   C712      1.0  0.74021  0.78973  0.38371  1.0000
  C   C713      1.0  0.79651  0.71952  0.40640  1.0000
  C   C714      1.0  0.77276  0.72449  0.42409  1.0000
  C   C715      1.0  0.73352  0.71779  0.42185  1.0000
  C   C716      1.0  0.71756  0.70529  0.40214  1.0000
  C   C717      1.0  0.74111  0.70025  0.38441  1.0000
  H   H573      1.0  0.80225  0.65531  0.40483  1.0000
  H   H574      1.0  0.80114  0.80195  0.37042  1.0000
  H   H575      1.0  0.82707  0.72549  0.40853  1.0000
  H   H576      1.0  0.78515  0.73442  0.43933  1.0000
  H   H577      1.0  0.71587  0.72319  0.43509  1.0000
  H   H578      1.0  0.68745  0.70094  0.40010  1.0000
  H   H579      1.0  0.78330  0.89293  0.38275  1.0000
  S   S101      1.0  0.94337  0.91490  0.63857  1.0000
  H   H580      1.0  0.78688  0.78598  0.58067  1.0000
  H   H581      1.0  0.71417  0.77484  0.57875  1.0000
  C   C718      1.0  0.84621  0.79395  0.51872  1.0000
  C   C719      1.0  0.85883  0.79781  0.61437  1.0000
  C   C720      1.0  0.90784  0.57827  0.39727  1.0000
  C   C721      1.0  0.77593  0.75618  0.61491  1.0000
  H   H582      1.0  0.79426  0.75195  0.54059  1.0000
  C   C722      1.0  0.77628  0.63835  0.34737  1.0000
  C   C723      1.0  0.94994  0.59361  0.39330  1.0000
  H   H583      1.0  0.59531  0.73138  0.63963  1.0000
  H   H584      1.0  0.53741  0.59693  0.63200  1.0000
  H   H585      1.0  0.83434  0.73877  0.56765  1.0000
  C   C724      1.0  0.96602  0.87428  0.58507  1.0000
  C   C725      1.0  0.81356  0.91306  0.38341  1.0000
  C   C726      1.0  0.71339  0.72436  0.58540  1.0000
  C   C727      1.0  0.67923  0.67216  0.65156  1.0000
  H   H586      1.0  0.55082  0.65402  0.39329  1.0000
  H   H587      1.0  0.96117  0.89635  0.51579  1.0000
  C   C728      1.0  0.70003  0.77345  0.37966  1.0000
  C   C729      1.0  0.53612  0.72971  0.60176  1.0000
  C   C730      1.0  0.89538  0.80716  0.34579  1.0000
  H   H588      1.0  0.82881  0.79943  0.50679  1.0000
  H   H589      1.0  0.55007  0.72755  0.58532  1.0000
  H   H590      1.0  0.74416  0.79520  0.63275  1.0000
  H   H591      1.0  0.70467  0.77125  0.53779  1.0000
  C   C731      1.0  0.95810  0.71619  0.44004  1.0000
  C   C732      1.0  0.92862  0.84718  0.65438  1.0000
  H   H592      1.0  0.70340  0.67116  0.54442  1.0000
  C   C733      1.0  0.91886  0.69006  0.44855  1.0000
  C   C734      1.0  0.95147  0.62835  0.35777  1.0000
  H   H593      1.0  0.55133  0.78709  0.63995  1.0000
  P   P26       1.0  0.72285  0.72853  0.61501  1.0000
  H   H594      1.0  0.59188  0.63952  0.65004  1.0000
  C   C735      1.0  0.48658  0.57364  0.38144  1.0000
  H   H595      1.0  0.63629  0.70574  0.62238  1.0000
  C   C736      1.0  0.83528  0.77285  0.63385  1.0000
  H   H596      1.0  0.58269  0.78194  0.60248  1.0000
  H   H597      1.0  0.84961  0.63927  0.42271  1.0000
  C   C737      1.0  0.89130  0.77938  0.54922  1.0000
  C   C738      1.0  0.79946  0.93965  0.55940  1.0000
  H   H598      1.0  0.94216  0.78771  0.44066  1.0000
  H   H599      1.0  0.81186  0.92422  0.52692  1.0000
  H   H600      1.0  0.96500  0.58597  0.40585  1.0000
  H   H601      1.0  0.59949  0.63070  0.38649  1.0000
  C   C739      1.0  0.88553  0.70082  0.36330  1.0000
  H   H602      1.0  0.94296  0.70197  0.36507  1.0000
  C   C740      1.0  0.70527  0.69353  0.55210  1.0000
  C   C741      1.0  0.71027  0.69516  0.57543  1.0000
  H   H603      1.0  0.77600  0.73366  0.64970  1.0000
  C   C742      1.0  0.68969  0.75648  0.36008  1.0000
  C   C743      1.0  0.95396  0.85777  0.56577  1.0000
  H   H604      1.0  0.96806  0.64797  0.34251  1.0000
  C   C744      1.0  0.75986  0.77294  0.34797  1.0000
  C   C745      1.0  0.70593  0.74988  0.54835  1.0000
  H   H605      1.0  0.88203  0.97100  0.51777  1.0000
  C   C746      1.0  0.90937  0.61279  0.36171  1.0000
  C   C747      1.0  0.56796  0.61454  0.38550  1.0000
  C   C748      1.0  0.70984  0.68661  0.63209  1.0000
  H   H606      1.0  0.79243  0.63003  0.35871  1.0000
  H   H607      1.0  0.53326  0.63453  0.55861  1.0000
  C   C749      1.0  0.89920  0.66944  0.39496  1.0000
  C   C750      1.0  0.84609  0.91549  0.36833  1.0000
  C   C751      1.0  0.79975  0.78166  0.59561  1.0000
  H   H608      1.0  0.50623  0.53669  0.37034  1.0000
  C   C752      1.0  0.89621  0.73415  0.45078  1.0000
  C   C753      1.0  0.73313  0.66957  0.62710  1.0000
  H   H609      1.0  0.85497  0.57609  0.38470  1.0000
  H   H610      1.0  0.75822  0.68107  0.61290  1.0000
  H   H611      1.0  0.97774  0.93282  0.41446  1.0000
  C   C754      1.0  0.51484  0.56144  0.37641  1.0000
  C   C755      1.0  0.79387  0.75238  0.63427  1.0000
  C   C756      1.0  0.72485  0.63800  0.64072  1.0000
  H   H612      1.0  0.89081  0.81392  0.61416  1.0000
  C   C757      1.0  0.78152  0.67281  0.34511  1.0000
  C   C758      1.0  0.50012  0.60740  0.38731  1.0000
  C   C759      1.0  0.88756  0.58784  0.38150  1.0000
  S   S102      1.0  0.94966  0.89563  0.37565  1.0000
  H   H613      1.0  0.94832  0.77996  0.49396  1.0000
  H   H614      1.0  0.91230  0.66283  0.45104  1.0000
  C   C760      1.0  0.55525  0.58173  0.37854  1.0000
  C   C761      1.0  0.53651  0.76324  0.63260  1.0000
  C   C762      1.0  0.74928  0.61397  0.33528  1.0000
  C   C763      1.0  0.49140  0.60830  0.64822  1.0000
  C   C764      1.0  0.64651  0.77756  0.64579  1.0000
  C   C765      1.0  0.89210  0.96300  0.38626  1.0000
  C   C766      1.0  0.75912  0.68224  0.33068  1.0000
  H   H615      1.0  0.76165  0.70829  0.32919  1.0000
  C   C767      1.0  0.51168  0.60980  0.56912  1.0000
  C   C768      1.0  0.49811  0.57895  0.55946  1.0000
  H   H616      1.0  0.66246  0.68557  0.65702  1.0000
  C   C769      1.0  0.86329  0.96974  0.53347  1.0000
  H   H617      1.0  0.97604  0.95557  0.59158  1.0000
  C   C770      1.0  0.49990  0.70185  0.61338  1.0000
  H   H618      1.0  0.50914  0.57976  0.54148  1.0000
  H   H619      1.0  0.97130  0.73592  0.48801  1.0000
  C   C771      1.0  0.49746  0.60876  0.59232  1.0000
  C   C772      1.0  0.97697  0.89340  0.50035  1.0000
  C   C773      1.0  0.56181  0.63692  0.65334  1.0000
  H   H620      1.0  0.89366  0.62043  0.34959  1.0000
  H   H621      1.0  0.96582  0.77897  0.35954  1.0000
  C   C774      1.0  0.96756  0.80939  0.38671  1.0000
  H   H622      1.0  0.62872  0.78893  0.65339  1.0000
  S   S103      1.0  0.59686  0.65569  0.33200  1.0000
  C   C775      1.0  0.97209  0.61890  0.37356  1.0000
  H   H623      1.0  0.97781  0.84564  0.41107  1.0000
  H   H624      1.0  0.48569  0.67807  0.60596  1.0000
  C   C776      1.0  0.97920  0.94020  0.37740  1.0000
  C   C777      1.0  0.48191  0.70459  0.63462  1.0000
  C   C778      1.0  0.98081  0.75145  0.50181  1.0000
  H   H625      1.0  0.92281  0.98169  0.38724  1.0000
  S   S104      1.0  0.75294  0.84397  0.69767  1.0000
  S   S105      1.0  0.54526  0.60468  0.74799  1.0000
  C   C779      1.0  0.91232  0.93887  0.71771  1.0000
  C   C780      1.0  0.95745  0.90335  0.77261  1.0000
  S   S106      1.0  0.58530  0.67529  0.77266  1.0000
  Fe  Fe52      1.0  0.58693  0.66193  0.73664  1.0000
  S   S107      1.0  0.64168  0.68028  0.70938  1.0000
  Fe  Fe53      1.0  0.53859  0.61906  0.78351  1.0000
  H   H626      1.0  0.89697  0.88709  0.82418  1.0000
  S   S108      1.0  0.53827  0.67498  0.72824  1.0000
  C   C781      1.0  0.52899  0.57299  0.86180  1.0000
  H   H627      1.0  0.55439  0.56757  0.85997  1.0000
  C   C782      1.0  0.67334  0.72558  0.70652  1.0000
  H   H628      1.0  0.64799  0.63014  0.68047  1.0000
  H   H629      1.0  0.88831  0.92362  0.73208  1.0000
  C   C783      1.0  0.90187  0.85212  0.71982  1.0000
  C   C784      1.0  0.55251  0.79780  0.71550  1.0000
  S   S109      1.0  0.48576  0.62863  0.77883  1.0000
  C   C785      1.0  0.97160  0.97752  0.67908  1.0000
  Fe  Fe54      1.0  0.53285  0.68380  0.76503  1.0000
  H   H630      1.0  0.57739  0.67461  0.67698  1.0000
  H   H631      1.0  0.48482  0.54746  0.67116  1.0000
  H   H632      1.0  0.90671  0.81657  0.74656  1.0000
  C   C786      1.0  0.50962  0.57080  0.88400  1.0000
  H   H633      1.0  0.62665  0.67060  0.89349  1.0000
  H   H634      1.0  0.51983  0.56334  0.89922  1.0000
  H   H635      1.0  0.58026  0.60846  0.90970  1.0000
  C   C787      1.0  0.70858  0.74167  0.69003  1.0000
  H   H636      1.0  0.96922  0.91236  0.80731  1.0000
  C   C788      1.0  0.48303  0.58947  0.84444  1.0000
  H   H637      1.0  0.80707  0.76974  0.70957  1.0000
  H   H638      1.0  0.82685  0.82769  0.68676  1.0000
  C   C789      1.0  0.87604  0.87486  0.79163  1.0000
  C   C790      1.0  0.51620  0.58280  0.84196  1.0000
  H   H639      1.0  0.68040  0.79772  0.72847  1.0000
  C   C791      1.0  0.90561  0.88803  0.80581  1.0000
  H   H640      1.0  0.71668  0.72604  0.67946  1.0000
  C   C792      1.0  0.83379  0.79251  0.71228  1.0000
  H   H641      1.0  0.51000  0.69142  0.81770  1.0000
  H   H642      1.0  0.51633  0.79158  0.76861  1.0000
  C   C793      1.0  0.48331  0.65877  0.96820  1.0000
  C   C794      1.0  0.52043  0.78305  0.70307  1.0000
  P   P27       1.0  0.94155  0.89096  0.72750  1.0000
  H   H643      1.0  0.54897  0.72906  0.67692  1.0000
  C   C795      1.0  0.85658  0.78943  0.72900  1.0000
  C   C796      1.0  0.58131  0.76280  0.70020  1.0000
  H   H644      1.0  0.54289  0.85074  0.79831  1.0000
  H   H645      1.0  0.57346  0.70322  0.94815  1.0000
  C   C797      1.0  0.49939  0.68534  0.87675  1.0000
  C   C798      1.0  0.54828  0.80490  0.81097  1.0000
  C   C799      1.0  0.52805  0.77025  0.82245  1.0000
  C   C800      1.0  0.48583  0.80852  0.81542  1.0000
  C   C801      1.0  0.51470  0.68651  0.83539  1.0000
  C   C802      1.0  0.54077  0.67249  0.83964  1.0000
  C   C803      1.0  0.54572  0.66439  0.86242  1.0000
  C   C804      1.0  0.52469  0.67044  0.88098  1.0000
  H   H646      1.0  0.50753  0.66674  0.68567  1.0000
  C   C805      1.0  0.68829  0.78213  0.71768  1.0000
  C   C806      1.0  0.60311  0.69076  0.91998  1.0000
  H   H647      1.0  0.54518  0.75612  0.82478  1.0000
  C   C807      1.0  0.57912  0.62906  0.91837  1.0000
  C   C808      1.0  0.54929  0.64713  0.94965  1.0000
  S   S110      1.0  0.53086  0.73264  0.77298  1.0000
  C   C809      1.0  0.58273  0.78747  0.71423  1.0000
  C   C810      1.0  0.60523  0.66412  0.90919  1.0000
  C   C811      1.0  0.54963  0.74832  0.68753  1.0000
  H   H648      1.0  0.68775  0.59936  0.67058  1.0000
  C   C812      1.0  0.69374  0.62347  0.65972  1.0000
  H   H649      1.0  0.58018  0.81656  0.80433  1.0000
  C   C813      1.0  0.94628  0.90227  0.79630  1.0000
  Fe  Fe55      1.0  0.49616  0.61864  0.74243  1.0000
  H   H650      1.0  0.55587  0.66650  0.82532  1.0000
  H   H651      1.0  0.56443  0.65195  0.86567  1.0000
  H   H652      1.0  0.52694  0.66243  0.89867  1.0000
  C   C814      1.0  0.55101  0.62050  0.93844  1.0000
  H   H653      1.0  0.92137  0.79490  0.66418  1.0000
  S   S111      1.0  0.54292  0.58662  0.81458  1.0000
  S   S112      1.0  0.85061  0.92151  0.66404  1.0000
  H   H654      1.0  0.60452  0.75452  0.69942  1.0000
  H   H655      1.0  0.84776  0.76409  0.73915  1.0000
  C   C815      1.0  0.72305  0.79836  0.70088  1.0000
  C   C816      1.0  0.51093  0.51312  0.78141  1.0000
  C   C817      1.0  0.97209  0.94887  0.69200  1.0000
  H   H656      1.0  0.84445  0.86375  0.79894  1.0000
  C   C818      1.0  0.52725  0.82410  0.80754  1.0000
  H   H657      1.0  0.55339  0.81656  0.72667  1.0000
  C   C819      1.0  0.94187  0.82267  0.66160  1.0000
  C   C820      1.0  0.73338  0.77805  0.68716  1.0000
  C   C821      1.0  0.66338  0.74585  0.72043  1.0000
  C   C822      1.0  0.51895  0.75835  0.68884  1.0000
  C   C823      1.0  0.48346  0.62828  0.66345  1.0000
  H   H658      1.0  0.60687  0.79808  0.72444  1.0000
  H   H659      1.0  0.63634  0.73366  0.73325  1.0000
  H   H660      1.0  0.53438  0.53939  0.77449  1.0000
  C   C824      1.0  0.87929  0.85481  0.70269  1.0000
  H   H661      1.0  0.62292  0.71795  0.91263  1.0000
  C   C825      1.0  0.89018  0.81916  0.73298  1.0000
  C   C826      1.0  0.88709  0.87586  0.76795  1.0000
  C   C827      1.0  0.94287  0.92962  0.71168  1.0000
  C   C828      1.0  0.84509  0.82518  0.69925  1.0000
  H   H662      1.0  0.96768  0.83775  0.71721  1.0000
  C   C829      1.0  0.92793  0.89010  0.75819  1.0000
  H   H663      1.0  0.53023  0.59317  0.94478  1.0000
  C   C830      1.0  0.57511  0.68233  0.94008  1.0000
  H   H664      1.0  0.88745  0.87973  0.69217  1.0000
  H   H665      1.0  0.76042  0.79031  0.67439  1.0000
  C   C831      1.0  0.55367  0.65677  0.66847  1.0000
  P   P28       1.0  0.51295  0.63698  0.97535  1.0000
  C   C832      1.0  0.67111  0.64064  0.66518  1.0000
  H   H666      1.0  0.86363  0.86548  0.75727  1.0000
  C   C833      1.0  0.49459  0.69387  0.85385  1.0000
  H   H667      1.0  0.54637  0.48844  0.77004  1.0000
  C   C834      1.0  0.49011  0.76969  0.76478  1.0000
  C   C835      1.0  0.91156  0.96724  0.70455  1.0000
  C   C836      1.0  0.51782  0.48441  0.77915  1.0000
  Fe  Fe56      1.0  0.79456  0.87162  0.66381  1.0000
  C   C837      1.0  0.48938  0.73713  0.76522  1.0000
  C   C838      1.0  0.51453  0.65253  0.67334  1.0000
  H   H668      1.0  0.88738  0.97375  0.70886  1.0000
  H   H669      1.0  0.48292  0.68920  0.89138  1.0000
  H   H670      1.0  0.49295  0.76155  0.87957  1.0000
  H   H671      1.0  0.49672  0.79064  0.70495  1.0000
  C   C839      1.0  0.48642  0.75437  0.83047  1.0000
  H   H672      1.0  0.59827  0.67516  0.98263  1.0000
  C   C840      1.0  0.48170  0.59016  0.98351  1.0000
