data_image0
_chemical_formula_structural       FeS2FeS2FeSFeS3HCHC3H5C6HCH2C3H3C2HC3HC6PC3HC2H4C6HCH5C3H2C2H4C4HC2H2CH2CHCPCHCH2C7HC5HC3PH3CHCH2C2HCH3C3HC2HCH4C4H4CH2C6FeS2FeS2FeSFeS3HC3H2CH2CHC6H4C3HC4H4C2HCH2C2HCHC5HC2H2PC4PC18HCH4CH5C2H9C2HCH5C7H2CH2SC3H2CHC3HC4H2PHCHCSH3FeS2FeS2FeSFeS3HC2HSC2H3C4H3CH3C7H2CHC3HCHC4HPCHC4HCHC2H7C3PC7HC4HC3H4CH2CH2C3H4CHC3HC3HCHC5HPH2CH6CH3C2HCH4C3HC5HC3HCH2CHFeS2FeS2FeSFeS3H2CHC2HP2CH4C2HCHC3HC6HC2HC2H2C6PC15HC2H16CH3CHCHC4HC4HCH4C2HC8H2CHCH2CHC3HC3HCHC2HCHC2HCH3CH4C6H3CHCHCHCPC2H4FeS2FeSHFeSFeSHSFeSC7H4C2HCH2C3HC2HC2H3C2H3CH2C2HCHCHPCHCH5CSH2C3H2PCH3C5HC2HSCHC3HC2HC3HCSH4CHCHC4HCH3CHC2H4C2SC3SCHC2FeSCFeS2FeSHSCSFeSC7H4C3HCH2FeH2C2HC2H2C2H2CHC2HCPC5HFeC6HSC3PC2FeH3SCH6CH4CHCHCHSHCHCH2C4H2C2HC3H2CHCH2CHCHC2H2SH6C2H3CS3FeSFeS2HCHC2HCH2CHC9H4C2H2SC4PC2HFe2C2HC4H2CH3C2H2CHCH2C5PC2SCHCHC5HCHCHCH2CHCH3CH4CHCHSC2HCH2CHSH2SHCHC2HFeHC2HC4H3CFeC6H2C5H2C2SCH6S2FeSPC3HFeSH2CH2CHCSHC6H4C2HSHCH2C3HFeHCFeC2HC3HCHC3HSCPCHC2H2SHC5H3CHCHCHC4H2CH2C4H7C2H3C2HC3PHCHCHFeCHCHC6H3C4HC3PHC4H3C3H4C2HCHC4HCHCSHCHSC4H3C2HCFeCSH2C2SHFeS2FeS2FeSFeS3PH2SHC6H5C2SCHC3HCH2CHCHCH5CHC2PC4H2C6HC2H5CH10CHCHC2HCH4CPHC3HC2FeCHC13H4CH2CH2CH2CH2C3HC2HC4HC4HC3H3C2H2CHC2FeC3H2C2H4FeCSHCSHFeS2FeS2FeSFeS3C3H2C6H4CH4C7H2CH4CHC7PH3C5H3C3HC3H3CH2CHCHC2HC3HCH8C2PHC6H3C5HC2H8CH2CHC3HC4PC6H4C3H2C6H2C4HC3S3FeS2FeS2FeSFeS3C3H3CHC2HC6H4C2H2CHC6H2CHCHC2HC2H4C4PHCFeCHC3H3CH4C3HCHFeCH3C2HCH4SC2HC3HC2PH5CHC4H2PC3HCHC3HS2FeS2FeS2FeSFeS3HCH3CSH3C7H5FeHC2HSC8HC2H3CHCH2FeCHFeSC2H2CHSCH4CH2C4HCHCHCH2CHCH2C5HC5HCH2C2
_chemical_formula_sum              "Fe64 S128 H768 C960 P32"
_cell_length_a       43.4574
_cell_length_b       43.4666
_cell_length_c       36.5359
_cell_angle_alpha    90.0458
_cell_angle_beta     89.984
_cell_angle_gamma    90.1458

_space_group_name_H-M_alt    "P 1"
_space_group_IT_number       1

loop_
  _space_group_symop_operation_xyz
  'x, y, z'

loop_
  _atom_site_type_symbol
  _atom_site_label
  _atom_site_symmetry_multiplicity
  _atom_site_fract_x
  _atom_site_fract_y
  _atom_site_fract_z
  _atom_site_occupancy
  Fe  Fe1       1.0  0.17564  0.35520  0.22977  1.0000
  S   S1        1.0  0.14271  0.35534  0.18269  1.0000
  S   S2        1.0  0.19415  0.39803  0.25910  1.0000
  Fe  Fe2       1.0  0.18146  0.28418  0.22921  1.0000
  S   S3        1.0  0.14789  0.27991  0.18196  1.0000
  S   S4        1.0  0.19948  0.23983  0.25659  1.0000
  Fe  Fe3       1.0  0.17331  0.31984  0.15688  1.0000
  S   S5        1.0  0.19303  0.32290  0.09882  1.0000
  Fe  Fe4       1.0  0.11935  0.31553  0.21139  1.0000
  S   S6        1.0  0.06651  0.31665  0.21081  1.0000
  S   S7        1.0  0.20848  0.32214  0.20240  1.0000
  S   S8        1.0  0.15081  0.31731  0.26008  1.0000
  H   H1        1.0  0.21322  0.45022  0.30124  1.0000
  C   C1        1.0  0.31798  0.17571  0.15573  1.0000
  H   H2        1.0  0.14556  0.48037  0.12084  1.0000
  C   C2        1.0  0.08258  0.46952  0.12019  1.0000
  C   C3        1.0  0.03993  0.31032  0.24715  1.0000
  C   C4        1.0  0.04762  0.29326  0.27826  1.0000
  H   H3        1.0  0.04997  0.35073  0.02407  1.0000
  H   H4        1.0  0.04728  0.32242  0.08304  1.0000
  H   H5        1.0  0.13548  0.48681  0.02931  1.0000
  H   H6        1.0  0.07091  0.28501  0.28169  1.0000
  H   H7        1.0  0.08010  0.39869  0.01943  1.0000
  C   C5        1.0  0.23687  0.22469  0.26646  1.0000
  C   C6        1.0  0.26397  0.24122  0.25979  1.0000
  C   C7        1.0  0.29293  0.22824  0.26829  1.0000
  C   C8        1.0  0.29540  0.19852  0.28340  1.0000
  C   C9        1.0  0.26833  0.18190  0.28994  1.0000
  C   C10       1.0  0.23934  0.19494  0.28159  1.0000
  H   H8        1.0  0.26256  0.26410  0.24833  1.0000
  C   C11       1.0  0.14119  0.46629  0.01398  1.0000
  H   H9        1.0  0.26967  0.15901  0.30139  1.0000
  H   H10       1.0  0.21861  0.18186  0.28692  1.0000
  C   C12       1.0  0.17379  0.32467  0.05587  1.0000
  C   C13       1.0  0.14204  0.32013  0.05253  1.0000
  C   C14       1.0  0.18121  0.45750  0.15063  1.0000
  H   H11       1.0  0.12838  0.31562  0.07669  1.0000
  H   H12       1.0  0.21574  0.33395  0.02630  1.0000
  H   H13       1.0  0.25593  0.25049  0.10744  1.0000
  C   C15       1.0  0.12802  0.32083  0.01768  1.0000
  C   C16       1.0  0.14762  0.47811  0.23806  1.0000
  H   H14       1.0  0.21515  0.42879  0.17676  1.0000
  C   C17       1.0  0.15638  0.44682  0.23764  1.0000
  C   C18       1.0  0.18040  0.43661  0.26006  1.0000
  C   C19       1.0  0.19472  0.45786  0.28368  1.0000
  H   H15       1.0  0.14500  0.43073  0.21949  1.0000
  C   C20       1.0  0.13303  0.33509  0.34486  1.0000
  C   C21       1.0  0.16245  0.34778  0.34839  1.0000
  C   C22       1.0  0.16677  0.37941  0.34402  1.0000
  C   C23       1.0  0.14168  0.39849  0.33658  1.0000
  C   C24       1.0  0.11196  0.38601  0.33356  1.0000
  C   C25       1.0  0.10798  0.35399  0.33666  1.0000
  P   P1        1.0  0.07922  0.41060  0.32515  1.0000
  C   C26       1.0  0.24510  0.23518  0.12698  1.0000
  C   C27       1.0  0.07634  0.45417  0.38185  1.0000
  C   C28       1.0  0.19866  0.21799  0.15739  1.0000
  H   H16       1.0  0.31362  0.24137  0.26311  1.0000
  C   C29       1.0  0.02412  0.36069  0.39391  1.0000
  C   C30       1.0  0.99526  0.36888  0.33820  1.0000
  H   H17       1.0  0.04912  0.45863  0.28230  1.0000
  H   H18       1.0  0.03804  0.46352  0.21594  1.0000
  H   H19       1.0  0.28122  0.23952  0.39521  1.0000
  H   H20       1.0  0.01692  0.39614  0.29694  1.0000
  C   C31       1.0  0.07580  0.39553  0.21462  1.0000
  C   C32       1.0  0.21599  0.19787  0.17878  1.0000
  C   C33       1.0  0.04599  0.39183  0.34504  1.0000
  C   C34       1.0  0.04810  0.37877  0.38015  1.0000
  C   C35       1.0  0.08652  0.44762  0.34622  1.0000
  C   C36       1.0  0.19116  0.33037  0.02404  1.0000
  H   H21       1.0  0.20293  0.38301  0.13882  1.0000
  C   C37       1.0  0.32116  0.16867  0.19298  1.0000
  H   H22       1.0  0.12984  0.31042  0.34703  1.0000
  H   H23       1.0  0.18205  0.33298  0.35327  1.0000
  H   H24       1.0  0.18975  0.38911  0.34514  1.0000
  H   H25       1.0  0.14583  0.42279  0.33266  1.0000
  H   H26       1.0  0.08561  0.34346  0.33254  1.0000
  C   C38       1.0  0.05982  0.42106  0.20173  1.0000
  C   C39       1.0  0.05716  0.44116  0.26348  1.0000
  C   C40       1.0  0.22615  0.99715  0.35095  1.0000
  H   H27       1.0  0.09444  0.37217  0.26122  1.0000
  H   H28       1.0  0.28887  0.20306  0.00892  1.0000
  C   C41       1.0  0.18562  0.48900  0.28459  1.0000
  C   C42       1.0  0.31294  0.22157  0.09512  1.0000
  H   H29       1.0  0.27829  0.19054  0.07368  1.0000
  H   H30       1.0  0.06886  0.38147  0.39626  1.0000
  H   H31       1.0  0.19984  0.25315  0.11585  1.0000
  H   H32       1.0  0.26068  0.18119  0.19218  1.0000
  C   C43       1.0  0.13487  0.43701  0.02842  1.0000
  C   C44       1.0  0.00940  0.32056  0.24306  1.0000
  C   C45       1.0  0.09005  0.46300  0.08355  1.0000
  C   C46       1.0  0.05070  0.44399  0.22609  1.0000
  H   H33       1.0  0.02618  0.34990  0.42052  1.0000
  C   C47       1.0  0.24788  0.19627  0.17436  1.0000
  C   C48       1.0  0.21321  0.23680  0.13164  1.0000
  H   H34       1.0  0.01623  0.48868  0.36363  1.0000
  H   H35       1.0  0.08227  0.37753  0.19582  1.0000
  C   C49       1.0  0.30216  0.21404  0.03041  1.0000
  H   H36       1.0  0.27147  0.13348  0.45213  1.0000
  H   H37       1.0  0.00317  0.33371  0.21909  1.0000
  C   C50       1.0  0.10402  0.46975  0.32743  1.0000
  H   H38       1.0  0.11275  0.46502  0.30028  1.0000
  C   C51       1.0  0.29625  0.20700  0.06709  1.0000
  P   P2        1.0  0.11735  0.43296  0.07303  1.0000
  C   C52       1.0  0.09537  0.39778  0.07591  1.0000
  H   H39       1.0  0.06340  0.43745  0.39732  1.0000
  C   C53       1.0  0.07328  0.41545  0.27660  1.0000
  H   H40       1.0  0.32333  0.15786  0.10068  1.0000
  H   H41       1.0  0.20478  0.18439  0.19991  1.0000
  C   C54       1.0  0.09292  0.38217  0.10936  1.0000
  C   C55       1.0  0.07566  0.35506  0.11187  1.0000
  C   C56       1.0  0.06023  0.34370  0.08115  1.0000
  C   C57       1.0  0.06174  0.35967  0.04799  1.0000
  C   C58       1.0  0.00301  0.24797  0.20445  1.0000
  C   C59       1.0  0.14911  0.43239  0.10494  1.0000
  C   C60       1.0  0.15744  0.45882  0.12484  1.0000
  H   H42       1.0  0.26537  0.22594  0.45787  1.0000
  C   C61       1.0  0.19731  0.43009  0.15603  1.0000
  C   C62       1.0  0.19023  0.40422  0.13493  1.0000
  C   C63       1.0  0.16627  0.40534  0.10942  1.0000
  C   C64       1.0  0.07911  0.38671  0.04538  1.0000
  C   C65       1.0  0.01917  0.38699  0.32430  1.0000
  H   H43       1.0  0.32433  0.21202  0.36529  1.0000
  C   C66       1.0  0.29947  0.18987  0.46432  1.0000
  C   C67       1.0  0.02476  0.28560  0.30421  1.0000
  C   C68       1.0  0.27382  0.12122  0.47777  1.0000
  P   P3        1.0  0.30402  0.21329  0.14240  1.0000
  H   H44       1.0  0.17404  0.21955  0.16155  1.0000
  H   H45       1.0  0.10448  0.39085  0.13346  1.0000
  H   H46       1.0  0.07452  0.34261  0.13756  1.0000
  C   C69       1.0  0.30490  0.26836  0.18206  1.0000
  H   H47       1.0  0.09428  0.45780  0.14234  1.0000
  C   C70       1.0  0.26270  0.21466  0.14808  1.0000
  H   H48       1.0  0.03079  0.27171  0.32769  1.0000
  H   H49       1.0  0.05410  0.42271  0.17296  1.0000
  C   C71       1.0  0.28430  0.21364  0.44551  1.0000
  C   C72       1.0  0.08259  0.39261  0.25186  1.0000
  H   H50       1.0  0.16093  0.38488  0.09364  1.0000
  C   C73       1.0  0.07311  0.47715  0.05549  1.0000
  H   H51       1.0  0.10357  0.31670  0.01531  1.0000
  H   H52       1.0  0.14081  0.38797  0.02001  1.0000
  H   H53       1.0  0.21657  0.01922  0.35869  1.0000
  C   C74       1.0  0.99622  0.22196  0.22536  1.0000
  C   C75       1.0  0.05976  0.49106  0.12857  1.0000
  C   C76       1.0  0.99789  0.35543  0.37276  1.0000
  H   H54       1.0  0.07710  0.47116  0.02711  1.0000
  C   C77       1.0  0.31859  0.29053  0.20459  1.0000
  C   C78       1.0  0.29323  0.22151  0.40989  1.0000
  H   H55       1.0  0.30553  0.31058  0.21292  1.0000
  C   C79       1.0  0.14412  0.41081  0.00880  1.0000
  H   H56       1.0  0.28139  0.27184  0.17322  1.0000
  H   H57       1.0  0.31546  0.18558  0.21360  1.0000
  H   H58       1.0  0.27239  0.01475  0.34489  1.0000
  H   H59       1.0  0.12934  0.48581  0.22024  1.0000
  C   C80       1.0  0.31749  0.20601  0.39295  1.0000
  C   C81       1.0  0.32357  0.17421  0.44684  1.0000
  C   C82       1.0  0.32128  0.24185  0.17196  1.0000
  C   C83       1.0  0.26864  0.08945  0.47826  1.0000
  H   H60       1.0  0.00966  0.44927  0.41135  1.0000
  H   H61       1.0  0.26297  0.07749  0.45312  1.0000
  H   H62       1.0  0.07554  0.48741  0.42575  1.0000
  H   H63       1.0  0.02657  0.25616  0.20243  1.0000
  C   C84       1.0  0.99692  0.47311  0.36183  1.0000
  H   H64       1.0  0.18694  0.47756  0.16697  1.0000
  H   H65       1.0  0.01455  0.21011  0.23965  1.0000
  C   C85       1.0  0.08328  0.48251  0.39818  1.0000
  C   C86       1.0  0.25751  0.99468  0.34321  1.0000
  C   C87       1.0  0.32467  0.23578  0.02143  1.0000
  C   C88       1.0  0.32554  0.15325  0.12958  1.0000
  C   C89       1.0  0.99409  0.29527  0.29973  1.0000
  C   C90       1.0  0.99343  0.45061  0.38897  1.0000
  Fe  Fe5       1.0  0.19223  0.31507  0.82457  1.0000
  S   S9        1.0  0.14565  0.29662  0.84177  1.0000
  S   S10       1.0  0.23494  0.28327  0.82067  1.0000
  Fe  Fe6       1.0  0.16953  0.38265  0.83052  1.0000
  S   S11       1.0  0.12239  0.36797  0.84851  1.0000
  S   S12       1.0  0.17573  0.43493  0.83154  1.0000
  Fe  Fe7       1.0  0.14622  0.33382  0.88508  1.0000
  S   S13       1.0  0.12624  0.32754  0.94280  1.0000
  Fe  Fe8       1.0  0.12563  0.33257  0.80419  1.0000
  S   S14       1.0  0.08786  0.32928  0.76085  1.0000
  S   S15       1.0  0.19338  0.35073  0.87017  1.0000
  S   S16       1.0  0.17214  0.34883  0.78390  1.0000
  H   H66       1.0  0.27321  0.14033  0.77669  1.0000
  C   C91       1.0  0.04918  0.31773  0.76839  1.0000
  C   C92       1.0  0.03865  0.30830  0.80280  1.0000
  C   C93       1.0  0.26159  0.44883  0.80245  1.0000
  H   H67       1.0  0.02551  0.38055  0.82206  1.0000
  H   H68       1.0  0.29479  0.41263  0.80907  1.0000
  C   C94       1.0  0.02839  0.31823  0.73888  1.0000
  H   H69       1.0  0.05444  0.30756  0.82566  1.0000
  H   H70       1.0  0.12197  0.48765  0.69633  1.0000
  C   C95       1.0  0.05598  0.44033  0.66160  1.0000
  H   H71       1.0  0.03642  0.32460  0.71193  1.0000
  C   C96       1.0  0.25373  0.25628  0.79085  1.0000
  C   C97       1.0  0.24611  0.25306  0.75378  1.0000
  C   C98       1.0  0.26182  0.23154  0.73150  1.0000
  C   C99       1.0  0.28549  0.21287  0.74568  1.0000
  C   C100      1.0  0.29316  0.21612  0.78273  1.0000
  C   C101      1.0  0.27742  0.23763  0.80502  1.0000
  H   H72       1.0  0.22830  0.26735  0.74215  1.0000
  H   H73       1.0  0.25559  0.22938  0.70295  1.0000
  H   H74       1.0  0.28370  0.23986  0.83354  1.0000
  H   H75       1.0  0.26353  0.14327  0.84356  1.0000
  C   C102      1.0  0.28192  0.13685  0.51007  1.0000
  C   C103      1.0  0.19550  0.19592  0.52398  1.0000
  C   C104      1.0  0.25184  0.14990  0.78694  1.0000
  H   H76       1.0  0.19077  0.33588  0.96509  1.0000
  C   C105      1.0  0.01302  0.48317  0.71602  1.0000
  C   C106      1.0  0.15807  0.41380  0.97449  1.0000
  C   C107      1.0  0.18468  0.44778  0.75788  1.0000
  C   C108      1.0  0.17612  0.45893  0.79230  1.0000
  H   H77       1.0  0.13072  0.43526  0.88936  1.0000
  H   H78       1.0  0.18910  0.42349  0.75422  1.0000
  H   H79       1.0  0.31120  0.20203  0.79423  1.0000
  H   H80       1.0  0.04199  0.45863  0.65050  1.0000
  C   C109      1.0  0.28436  0.12024  0.54288  1.0000
  C   C110      1.0  0.25131  0.22696  0.53402  1.0000
  H   H81       1.0  0.32088  0.20094  0.63617  1.0000
  C   C111      1.0  0.99365  0.40242  0.74083  1.0000
  H   H82       1.0  0.12904  0.41235  0.65644  1.0000
  H   H83       1.0  0.09389  0.41653  0.93602  1.0000
  C   C112      1.0  0.06822  0.47750  0.86426  1.0000
  C   C113      1.0  0.00755  0.29982  0.80760  1.0000
  H   H84       1.0  0.12887  0.25367  0.93801  1.0000
  C   C114      1.0  0.08672  0.46929  0.77665  1.0000
  H   H85       1.0  0.99957  0.29256  0.83428  1.0000
  C   C115      1.0  0.27104  0.07313  0.51106  1.0000
  C   C116      1.0  0.17708  0.33143  0.98926  1.0000
  C   C117      1.0  0.99718  0.31051  0.74390  1.0000
  C   C118      1.0  0.22355  0.24150  0.54256  1.0000
  C   C119      1.0  0.04769  0.46760  0.89159  1.0000
  H   H86       1.0  0.03678  0.47699  0.72069  1.0000
  C   C120      1.0  0.05696  0.44583  0.91754  1.0000
  C   C121      1.0  0.19565  0.22598  0.53759  1.0000
  H   H87       1.0  0.17480  0.44513  0.93343  1.0000
  H   H88       1.0  0.27274  0.23937  0.53781  1.0000
  P   P4        1.0  0.00295  0.42148  0.69836  1.0000
  C   C122      1.0  0.17055  0.49060  0.79652  1.0000
  C   C123      1.0  0.21931  0.16518  0.83763  1.0000
  C   C124      1.0  0.19764  0.17730  0.81307  1.0000
  C   C125      1.0  0.20276  0.17428  0.77526  1.0000
  P   P5        1.0  0.16225  0.19367  0.83015  1.0000
  C   C126      1.0  0.13746  0.16151  0.84039  1.0000
  C   C127      1.0  0.16865  0.21791  0.86953  1.0000
  C   C128      1.0  0.14381  0.22611  0.89212  1.0000
  C   C129      1.0  0.14818  0.24664  0.92119  1.0000
  C   C130      1.0  0.17721  0.25943  0.92754  1.0000
  C   C131      1.0  0.20185  0.25190  0.90471  1.0000
  C   C132      1.0  0.19760  0.23128  0.87577  1.0000
  C   C133      1.0  0.13442  0.15067  0.87641  1.0000
  C   C134      1.0  0.11554  0.12532  0.88392  1.0000
  C   C135      1.0  0.09999  0.11039  0.85549  1.0000
  C   C136      1.0  0.10353  0.12060  0.81946  1.0000
  C   C137      1.0  0.12239  0.14593  0.81187  1.0000
  C   C138      1.0  0.14517  0.21898  0.79680  1.0000
  C   C139      1.0  0.11311  0.22020  0.79209  1.0000
  C   C140      1.0  0.10031  0.24025  0.76635  1.0000
  C   C141      1.0  0.11937  0.25933  0.74549  1.0000
  C   C142      1.0  0.15115  0.25918  0.75118  1.0000
  C   C143      1.0  0.16396  0.23930  0.77701  1.0000
  H   H89       1.0  0.23446  0.15977  0.73317  1.0000
  C   C144      1.0  0.06130  0.39415  0.69795  1.0000
  H   H90       1.0  0.10603  0.37303  0.69763  1.0000
  H   H91       1.0  0.21538  0.16637  0.86685  1.0000
  H   H92       1.0  0.18606  0.18246  0.75562  1.0000
  H   H93       1.0  0.12090  0.21743  0.88661  1.0000
  C   C145      1.0  0.30644  0.19144  0.58081  1.0000
  H   H94       1.0  0.09675  0.45485  0.63253  1.0000
  H   H95       1.0  0.22401  0.26296  0.90846  1.0000
  H   H96       1.0  0.21668  0.22688  0.85747  1.0000
  H   H97       1.0  0.14673  0.16160  0.89868  1.0000
  H   H98       1.0  0.11309  0.11719  0.91180  1.0000
  C   C146      1.0  0.24646  0.15184  0.82458  1.0000
  C   C147      1.0  0.29053  0.43713  0.81130  1.0000
  H   H99       1.0  0.12526  0.15338  0.78377  1.0000
  H   H100      1.0  0.09792  0.20618  0.80863  1.0000
  H   H101      1.0  0.07555  0.24162  0.76305  1.0000
  H   H102      1.0  0.10939  0.27500  0.72576  1.0000
  H   H103      1.0  0.16578  0.27499  0.73621  1.0000
  H   H104      1.0  0.18846  0.24007  0.78205  1.0000
  H   H105      1.0  0.18032  0.27595  0.94942  1.0000
  H   H106      1.0  0.05175  0.37636  0.71517  1.0000
  H   H107      1.0  0.08537  0.09076  0.86134  1.0000
  C   C148      1.0  0.16372  0.44298  0.95994  1.0000
  C   C149      1.0  0.08687  0.43807  0.65107  1.0000
  H   H108      1.0  0.22367  0.26483  0.55308  1.0000
  C   C150      1.0  0.14538  0.32651  0.98585  1.0000
  H   H109      1.0  0.09173  0.10884  0.79736  1.0000
  H   H110      1.0  0.01881  0.44786  0.82351  1.0000
  H   H111      1.0  0.19643  0.45961  0.70221  1.0000
  H   H112      1.0  0.29098  0.13138  0.56815  1.0000
  H   H113      1.0  0.08301  0.44950  0.79411  1.0000
  C   C151      1.0  0.22992  0.16093  0.76233  1.0000
  C   C152      1.0  0.10320  0.46541  0.74412  1.0000
  C   C153      1.0  0.18901  0.46835  0.72850  1.0000
  C   C154      1.0  0.09218  0.39199  0.68758  1.0000
  C   C155      1.0  0.27874  0.08856  0.54335  1.0000
  C   C156      1.0  0.30816  0.48862  0.82624  1.0000
  C   C157      1.0  0.08685  0.43408  0.91666  1.0000
  H   H114      1.0  0.24338  0.43343  0.79355  1.0000
  H   H115      1.0  0.02435  0.47628  0.89250  1.0000
  C   C158      1.0  0.25136  0.19664  0.52066  1.0000
  H   H116      1.0  0.17415  0.23728  0.54425  1.0000
  H   H117      1.0  0.03854  0.40881  0.76575  1.0000
  S   S17       1.0  0.30404  0.18572  0.71588  1.0000
  C   C159      1.0  0.10820  0.49044  0.72087  1.0000
  C   C160      1.0  0.15534  0.46922  0.97971  1.0000
  C   C161      1.0  0.04322  0.41895  0.68615  1.0000
  H   H118      1.0  0.16467  0.39339  0.95926  1.0000
  H   H119      1.0  0.04078  0.43762  0.93789  1.0000
  C   C162      1.0  0.10505  0.41405  0.66435  1.0000
  H   H120      1.0  0.28142  0.07588  0.56870  1.0000
  C   C163      1.0  0.00381  0.46718  0.81825  1.0000
  C   C164      1.0  0.00809  0.38410  0.80127  1.0000
  C   C165      1.0  0.09861  0.46663  0.86464  1.0000
  H   H121      1.0  0.11280  0.44311  0.73744  1.0000
  C   C166      1.0  0.25594  0.48037  0.80536  1.0000
  C   C167      1.0  0.31538  0.18903  0.54392  1.0000
  C   C168      1.0  0.01557  0.39953  0.76887  1.0000
  C   C169      1.0  0.10768  0.44466  0.89039  1.0000
  H   H122      1.0  0.28290  0.18688  0.58899  1.0000
  H   H123      1.0  0.11522  0.47438  0.84454  1.0000
  P   P6        1.0  0.28733  0.17809  0.50962  1.0000
  H   H124      1.0  0.23349  0.48905  0.79816  1.0000
  C   C170      1.0  0.22323  0.18127  0.51548  1.0000
  H   H125      1.0  0.17385  0.18394  0.52003  1.0000
  C   C171      1.0  0.31386  0.45703  0.82302  1.0000
  S   S18       1.0  0.32500  0.09905  0.70144  1.0000
  H   H126      1.0  0.22260  0.15802  0.50488  1.0000
  H   H127      1.0  0.26739  0.04848  0.51143  1.0000
  H   H128      1.0  0.16007  0.49182  0.96857  1.0000
  Fe  Fe9       1.0  0.19657  0.64410  0.29998  1.0000
  S   S19       1.0  0.20604  0.59722  0.32453  1.0000
  S   S20       1.0  0.23680  0.66843  0.26976  1.0000
  Fe  Fe10      1.0  0.12743  0.63832  0.31856  1.0000
  S   S21       1.0  0.13284  0.59210  0.34518  1.0000
  S   S22       1.0  0.07997  0.66069  0.31642  1.0000
  Fe  Fe11      1.0  0.17513  0.61233  0.37125  1.0000
  S   S23       1.0  0.18995  0.60022  0.42977  1.0000
  Fe  Fe12      1.0  0.16280  0.58037  0.29673  1.0000
  S   S24       1.0  0.15075  0.53872  0.26022  1.0000
  S   S25       1.0  0.16803  0.65989  0.34812  1.0000
  S   S26       1.0  0.15523  0.62612  0.26891  1.0000
  H   H129      1.0  0.28502  0.73972  0.44684  1.0000
  C   C172      1.0  0.05190  0.69813  0.19932  1.0000
  C   C173      1.0  0.18352  0.71477  0.46707  1.0000
  H   H130      1.0  0.01494  0.71683  0.23169  1.0000
  S   S27       1.0  0.30271  0.80066  0.25323  1.0000
  C   C174      1.0  0.23903  0.75432  0.46164  1.0000
  C   C175      1.0  0.05035  0.49876  0.06396  1.0000
  H   H131      1.0  0.13896  0.64024  0.45333  1.0000
  H   H132      1.0  0.28688  0.95313  0.26422  1.0000
  H   H133      1.0  0.21572  0.82921  0.46381  1.0000
  C   C176      1.0  0.28687  0.90523  0.19109  1.0000
  C   C177      1.0  0.20348  0.82027  0.33469  1.0000
  C   C178      1.0  0.01962  0.65620  0.29280  1.0000
  C   C179      1.0  0.04971  0.64450  0.28984  1.0000
  H   H134      1.0  0.02604  0.52250  0.10698  1.0000
  H   H135      1.0  0.19604  0.77686  0.47507  1.0000
  H   H136      1.0  0.09563  0.56223  0.29359  1.0000
  C   C180      1.0  0.27180  0.87764  0.24576  1.0000
  H   H137      1.0  0.11095  0.53520  0.11466  1.0000
  H   H138      1.0  0.13364  0.65838  0.03742  1.0000
  H   H139      1.0  0.29251  0.90526  0.16220  1.0000
  C   C181      1.0  0.01534  0.52307  0.29778  1.0000
  C   C182      1.0  0.25342  0.70604  0.26454  1.0000
  C   C183      1.0  0.27660  0.71051  0.23801  1.0000
  C   C184      1.0  0.29163  0.73920  0.23395  1.0000
  C   C185      1.0  0.28374  0.76408  0.25630  1.0000
  C   C186      1.0  0.26017  0.75987  0.28241  1.0000
  C   C187      1.0  0.24512  0.73112  0.28655  1.0000
  H   H140      1.0  0.28290  0.69168  0.22017  1.0000
  H   H141      1.0  0.02554  0.50886  0.24228  1.0000
  C   C188      1.0  0.00109  0.61984  0.24699  1.0000
  H   H142      1.0  0.22722  0.72835  0.30684  1.0000
  C   C189      1.0  0.17532  0.61141  0.47341  1.0000
  C   C190      1.0  0.02116  0.70105  0.20996  1.0000
  C   C191      1.0  0.15032  0.63138  0.47742  1.0000
  H   H143      1.0  0.23613  0.80623  0.37554  1.0000
  C   C192      1.0  0.05484  0.55486  0.32597  1.0000
  H   H144      1.0  0.26584  0.85595  0.25845  1.0000
  C   C193      1.0  0.99853  0.68307  0.19315  1.0000
  C   C194      1.0  0.21967  0.77984  0.46641  1.0000
  C   C195      1.0  0.21955  0.94277  0.33812  1.0000
  C   C196      1.0  0.25109  0.94007  0.33023  1.0000
  H   H145      1.0  0.27588  0.85685  0.19258  1.0000
  P   P7        1.0  0.26741  0.90377  0.31542  1.0000
  C   C197      1.0  0.27443  0.90473  0.26658  1.0000
  H   H146      1.0  0.25363  0.77897  0.29966  1.0000
  C   C198      1.0  0.24159  0.87194  0.32476  1.0000
  C   C199      1.0  0.21483  0.86817  0.30360  1.0000
  C   C200      1.0  0.22996  0.82386  0.35597  1.0000
  C   C201      1.0  0.24895  0.84960  0.35114  1.0000
  H   H147      1.0  0.20436  0.92314  0.33637  1.0000
  C   C202      1.0  0.28062  0.78886  0.44404  1.0000
  H   H148      1.0  0.32146  0.70116  0.30955  1.0000
  C   C203      1.0  0.26083  0.64948  0.38104  1.0000
  C   C204      1.0  0.30508  0.61948  0.29729  1.0000
  H   H149      1.0  0.29424  0.96508  0.32702  1.0000
  H   H150      1.0  0.31944  0.86371  0.29825  1.0000
  H   H151      1.0  0.20909  0.88474  0.28254  1.0000
  H   H152      1.0  0.07732  0.53194  0.24120  1.0000
  H   H153      1.0  0.30929  0.65842  0.26191  1.0000
  H   H154      1.0  0.10667  0.52610  0.39204  1.0000
  H   H155      1.0  0.26981  0.83723  0.44413  1.0000
  C   C205      1.0  0.09678  0.64555  0.07389  1.0000
  C   C206      1.0  0.06676  0.65207  0.08585  1.0000
  C   C207      1.0  0.16542  0.72173  0.49786  1.0000
  P   P8        1.0  0.04874  0.63004  0.12189  1.0000
  C   C208      1.0  0.23077  0.80961  0.46006  1.0000
  C   C209      1.0  0.07502  0.60164  0.14011  1.0000
  C   C210      1.0  0.08351  0.57637  0.11836  1.0000
  C   C211      1.0  0.10409  0.55435  0.13175  1.0000
  C   C212      1.0  0.11582  0.55703  0.16724  1.0000
  C   C213      1.0  0.10714  0.58183  0.18918  1.0000
  C   C214      1.0  0.08692  0.60408  0.17573  1.0000
  H   H156      1.0  0.12528  0.51455  0.32949  1.0000
  C   C215      1.0  0.03108  0.60809  0.24430  1.0000
  C   C216      1.0  0.31997  0.59979  0.32167  1.0000
  C   C217      1.0  0.16227  0.49943  0.26143  1.0000
  C   C218      1.0  0.26962  0.75907  0.45045  1.0000
  H   H157      1.0  0.25886  0.61465  0.42284  1.0000
  C   C219      1.0  0.20719  0.97120  0.34847  1.0000
  C   C220      1.0  0.05525  0.62039  0.26547  1.0000
  C   C221      1.0  0.06005  0.67701  0.17212  1.0000
  H   H158      1.0  0.30721  0.58134  0.33472  1.0000
  H   H159      1.0  0.26750  0.63357  0.35970  1.0000
  H   H160      1.0  0.02801  0.68283  0.07992  1.0000
  H   H161      1.0  0.10999  0.62711  0.08595  1.0000
  C   C222      1.0  0.28361  0.93204  0.24911  1.0000
  H   H162      1.0  0.07442  0.57390  0.09090  1.0000
  H   H163      1.0  0.01510  0.67494  0.31151  1.0000
  C   C223      1.0  0.11901  0.71239  0.46278  1.0000
  H   H164      1.0  0.11622  0.58389  0.21673  1.0000
  H   H165      1.0  0.08062  0.62286  0.19353  1.0000
  C   C224      1.0  0.26989  0.96634  0.33293  1.0000
  C   C225      1.0  0.25612  0.63889  0.41665  1.0000
  C   C226      1.0  0.26124  0.81414  0.44897  1.0000
  H   H166      1.0  0.24111  0.64982  0.47080  1.0000
  H   H167      1.0  0.30917  0.74219  0.21332  1.0000
  H   H168      1.0  0.06276  0.56906  0.34849  1.0000
  H   H169      1.0  0.08400  0.67501  0.16422  1.0000
  C   C227      1.0  0.30358  0.89686  0.33832  1.0000
  H   H170      1.0  0.29801  0.95307  0.19850  1.0000
  C   C228      1.0  0.25571  0.68035  0.37263  1.0000
  C   C229      1.0  0.24555  0.70063  0.39979  1.0000
  C   C230      1.0  0.24087  0.69018  0.43583  1.0000
  H   H171      1.0  0.13173  0.54005  0.17791  1.0000
  C   C231      1.0  0.31058  0.91146  0.37165  1.0000
  C   C232      1.0  0.27764  0.87801  0.20819  1.0000
  C   C233      1.0  0.28985  0.93221  0.21156  1.0000
  H   H172      1.0  0.03570  0.58939  0.22559  1.0000
  C   C234      1.0  0.24595  0.65904  0.44391  1.0000
  H   H173      1.0  0.28076  0.61644  0.29139  1.0000
  C   C235      1.0  0.16893  0.70705  0.43402  1.0000
  C   C236      1.0  0.13682  0.70587  0.43191  1.0000
  C   C237      1.0  0.05093  0.67705  0.07049  1.0000
  C   C238      1.0  0.03376  0.52062  0.26632  1.0000
  C   C239      1.0  0.06292  0.53409  0.26529  1.0000
  H   H174      1.0  0.09416  0.71081  0.46122  1.0000
  P   P9        1.0  0.22507  0.71575  0.47005  1.0000
  H   H175      1.0  0.25873  0.68824  0.34474  1.0000
  H   H176      1.0  0.24056  0.72418  0.39232  1.0000
  C   C240      1.0  0.07339  0.55119  0.29506  1.0000
  H   H177      1.0  0.18912  0.80001  0.33793  1.0000
  H   H178      1.0  0.06948  0.71183  0.21271  1.0000
  H   H179      1.0  0.18221  0.70149  0.40992  1.0000
  H   H180      1.0  0.12576  0.69923  0.40645  1.0000
  H   H181      1.0  0.26967  0.85154  0.36738  1.0000
  H   H182      1.0  0.17561  0.83941  0.29168  1.0000
  C   C241      1.0  0.19587  0.84247  0.30862  1.0000
  H   H183      1.0  0.07829  0.61140  0.26275  1.0000
  H   H184      1.0  0.29445  0.92712  0.38431  1.0000
  H   H185      1.0  0.18284  0.97317  0.35437  1.0000
  C   C242      1.0  0.04375  0.50581  0.10046  1.0000
  C   C243      1.0  0.03763  0.65788  0.15622  1.0000
  H   H186      1.0  0.01519  0.62827  0.05063  1.0000
  C   C244      1.0  0.32138  0.64334  0.28050  1.0000
  H   H187      1.0  0.03743  0.50972  0.04219  1.0000
  H   H188      1.0  0.19705  0.50502  0.30276  1.0000
  H   H189      1.0  0.30424  0.79234  0.43539  1.0000
  H   H190      1.0  0.05448  0.49637  0.15688  1.0000
  C   C245      1.0  0.11042  0.66339  0.04642  1.0000
  C   C246      1.0  0.10081  0.50431  0.37927  1.0000
  C   C247      1.0  0.02593  0.54075  0.32744  1.0000
  H   H191      1.0  0.31074  0.75133  0.33751  1.0000
  C   C248      1.0  0.13330  0.72040  0.49572  1.0000
  C   C249      1.0  0.99535  0.64387  0.27157  1.0000
  C   C250      1.0  0.00385  0.61328  0.06998  1.0000
  C   C251      1.0  0.32465  0.87586  0.32344  1.0000
  C   C252      1.0  0.11127  0.49785  0.34397  1.0000
  H   H192      1.0  0.02833  0.67283  0.47969  1.0000
  C   C253      1.0  0.06459  0.69477  0.04296  1.0000
  C   C254      1.0  0.09431  0.68791  0.03088  1.0000
  C   C255      1.0  0.01547  0.60912  0.10555  1.0000
  H   H193      1.0  0.00871  0.58562  0.15710  1.0000
  C   C256      1.0  0.00021  0.58901  0.12951  1.0000
  H   H194      1.0  0.01157  0.54415  0.35134  1.0000
  H   H195      1.0  0.05221  0.71397  0.03115  1.0000
  C   C257      1.0  0.00667  0.66156  0.16640  1.0000
  H   H196      1.0  0.10497  0.70178  0.00971  1.0000
  Fe  Fe13      1.0  0.18457  0.57698  0.69611  1.0000
  S   S28       1.0  0.19311  0.61010  0.74252  1.0000
  S   S29       1.0  0.19185  0.52511  0.69574  1.0000
  Fe  Fe14      1.0  0.16178  0.62711  0.64377  1.0000
  S   S30       1.0  0.16729  0.66359  0.68721  1.0000
  S   S31       1.0  0.14190  0.64157  0.58826  1.0000
  Fe  Fe15      1.0  0.21308  0.64213  0.69987  1.0000
  S   S32       1.0  0.25577  0.67362  0.69751  1.0000
  Fe  Fe16      1.0  0.14677  0.62922  0.72630  1.0000
  S   S33       1.0  0.11264  0.64311  0.77071  1.0000
  S   S34       1.0  0.20839  0.60713  0.65430  1.0000
  S   S35       1.0  0.13744  0.59458  0.68218  1.0000
  H   H197      1.0  0.02391  0.58496  0.72264  1.0000
  H   H198      1.0  0.11950  0.72490  0.51982  1.0000
  C   C258      1.0  0.27896  0.50051  0.81778  1.0000
  H   H199      1.0  0.26018  0.67732  0.61351  1.0000
  C   C259      1.0  0.31072  0.73145  0.78221  1.0000
  C   C260      1.0  0.09129  0.69797  0.69402  1.0000
  H   H200      1.0  0.10912  0.70985  0.70923  1.0000
  P   P10       1.0  0.27072  0.54113  0.82245  1.0000
  P   P11       1.0  0.05548  0.50401  0.82931  1.0000
  C   C261      1.0  0.26480  0.55935  0.71252  1.0000
  H   H201      1.0  0.07237  0.62566  0.88388  1.0000
  H   H202      1.0  0.11224  0.60217  0.84436  1.0000
  H   H203      1.0  0.25721  0.54740  0.68804  1.0000
  H   H204      1.0  0.25486  0.52113  0.74741  1.0000
  C   C262      1.0  0.07384  0.63020  0.77030  1.0000
  C   C263      1.0  0.05336  0.64065  0.79741  1.0000
  H   H205      1.0  0.06147  0.65648  0.81813  1.0000
  C   C264      1.0  0.19136  0.52827  0.88123  1.0000
  H   H206      1.0  0.07645  0.60972  0.63853  1.0000
  C   C265      1.0  0.17478  0.51118  0.76715  1.0000
  C   C266      1.0  0.27514  0.58974  0.71024  1.0000
  C   C267      1.0  0.99556  0.52193  0.81104  1.0000
  H   H207      1.0  0.17096  0.53555  0.77097  1.0000
  C   C268      1.0  0.27577  0.69611  0.73103  1.0000
  C   C269      1.0  0.29567  0.71980  0.71930  1.0000
  C   C270      1.0  0.09615  0.51924  0.72976  1.0000
  C   C271      1.0  0.18454  0.50015  0.73311  1.0000
  C   C272      1.0  0.29107  0.70752  0.79383  1.0000
  C   C273      1.0  0.27341  0.69025  0.76857  1.0000
  H   H208      1.0  0.29798  0.72442  0.69036  1.0000
  C   C274      1.0  0.03975  0.55518  0.87143  1.0000
  C   C275      1.0  0.14001  0.63986  0.51271  1.0000
  H   H209      1.0  0.25846  0.67204  0.77812  1.0000
  C   C276      1.0  0.17923  0.60827  0.54040  1.0000
  C   C277      1.0  0.15452  0.62858  0.54444  1.0000
  H   H210      1.0  0.18235  0.51143  0.90030  1.0000
  H   H211      1.0  0.19057  0.59920  0.56442  1.0000
  C   C278      1.0  0.16065  0.76721  0.64413  1.0000
  C   C279      1.0  0.17629  0.74163  0.63027  1.0000
  C   C280      1.0  0.20029  0.72863  0.65033  1.0000
  C   C281      1.0  0.20839  0.74087  0.68436  1.0000
  C   C282      1.0  0.19269  0.76625  0.69873  1.0000
  C   C283      1.0  0.16883  0.77957  0.67822  1.0000
  P   P12       1.0  0.20236  0.77997  0.74406  1.0000
  C   C284      1.0  0.17282  0.80606  0.75963  1.0000
  C   C285      1.0  0.20348  0.74725  0.77459  1.0000
  C   C286      1.0  0.18422  0.72173  0.76829  1.0000
  C   C287      1.0  0.18441  0.69671  0.79230  1.0000
  C   C288      1.0  0.20357  0.69705  0.82299  1.0000
  C   C289      1.0  0.22261  0.72240  0.82963  1.0000
  C   C290      1.0  0.22276  0.74732  0.80544  1.0000
  C   C291      1.0  0.17388  0.83718  0.74934  1.0000
  C   C292      1.0  0.15098  0.85750  0.76100  1.0000
  C   C293      1.0  0.12673  0.84687  0.78276  1.0000
  C   C294      1.0  0.12534  0.81587  0.79282  1.0000
  C   C295      1.0  0.14825  0.79549  0.78128  1.0000
  C   C296      1.0  0.23899  0.79996  0.74461  1.0000
  C   C297      1.0  0.24581  0.82056  0.77319  1.0000
  C   C298      1.0  0.27401  0.83612  0.77402  1.0000
  H   H212      1.0  0.20181  0.66829  0.51944  1.0000
  C   C299      1.0  0.28921  0.81070  0.71802  1.0000
  C   C300      1.0  0.26100  0.79510  0.71704  1.0000
  H   H213      1.0  0.14195  0.77724  0.62865  1.0000
  H   H214      1.0  0.16969  0.73160  0.60424  1.0000
  H   H215      1.0  0.21219  0.70850  0.64011  1.0000
  H   H216      1.0  0.22659  0.73022  0.69997  1.0000
  H   H217      1.0  0.15617  0.79910  0.68857  1.0000
  H   H218      1.0  0.16895  0.72106  0.74490  1.0000
  H   H219      1.0  0.16970  0.67702  0.78704  1.0000
  H   H220      1.0  0.20388  0.67754  0.84140  1.0000
  H   H221      1.0  0.23790  0.72251  0.85307  1.0000
  H   H222      1.0  0.23828  0.76629  0.81081  1.0000
  H   H223      1.0  0.19244  0.84575  0.73231  1.0000
  H   H224      1.0  0.15207  0.88154  0.75321  1.0000
  H   H225      1.0  0.30633  0.80650  0.69707  1.0000
  H   H226      1.0  0.10651  0.80761  0.80964  1.0000
  H   H227      1.0  0.14664  0.77159  0.78934  1.0000
  H   H228      1.0  0.22951  0.82437  0.79514  1.0000
  C   C301      1.0  0.18960  0.59990  0.50515  1.0000
  H   H229      1.0  0.29150  0.62913  0.74013  1.0000
  H   H230      1.0  0.00691  0.63883  0.81902  1.0000
  H   H231      1.0  0.25683  0.77904  0.69503  1.0000
  C   C302      1.0  0.06298  0.60998  0.74346  1.0000
  H   H232      1.0  0.07827  0.60205  0.72218  1.0000
  C   C303      1.0  0.09237  0.58875  0.85262  1.0000
  H   H233      1.0  0.27590  0.60140  0.68403  1.0000
  C   C304      1.0  0.00400  0.51368  0.72131  1.0000
  C   C305      1.0  0.21411  0.57070  0.83042  1.0000
  C   C306      1.0  0.18448  0.57422  0.84476  1.0000
  C   C307      1.0  0.17311  0.55304  0.87021  1.0000
  H   H234      1.0  0.07032  0.54568  0.76856  1.0000
  C   C308      1.0  0.23244  0.54570  0.84101  1.0000
  C   C309      1.0  0.28223  0.59083  0.77592  1.0000
  C   C310      1.0  0.28385  0.60543  0.74194  1.0000
  C   C311      1.0  0.23683  0.70353  0.51535  1.0000
  H   H235      1.0  0.02247  0.70111  0.59215  1.0000
  C   C312      1.0  0.22906  0.67048  0.56831  1.0000
  H   H236      1.0  0.07858  0.66616  0.61056  1.0000
  H   H237      1.0  0.22254  0.58741  0.81090  1.0000
  H   H238      1.0  0.17030  0.59326  0.83578  1.0000
  H   H239      1.0  0.31774  0.84303  0.74747  1.0000
  C   C313      1.0  0.29573  0.83118  0.74648  1.0000
  C   C314      1.0  0.01164  0.61041  0.77116  1.0000
  H   H240      1.0  0.26782  0.55995  0.90022  1.0000
  C   C315      1.0  0.06983  0.60206  0.87480  1.0000
  C   C316      1.0  0.09614  0.68985  0.65748  1.0000
  C   C317      1.0  0.22088  0.52454  0.86665  1.0000
  C   C318      1.0  0.31168  0.57985  0.91275  1.0000
  C   C319      1.0  0.02242  0.63071  0.79798  1.0000
  C   C320      1.0  0.26997  0.70828  0.56879  1.0000
  C   C321      1.0  0.26160  0.71774  0.53353  1.0000
  C   C322      1.0  0.03208  0.60022  0.74389  1.0000
  H   H241      1.0  0.15006  0.55560  0.88106  1.0000
  H   H242      1.0  0.10901  0.86264  0.79185  1.0000
  C   C323      1.0  0.00373  0.57990  0.63692  1.0000
  H   H243      1.0  0.10651  0.54874  0.82282  1.0000
  C   C324      1.0  0.08866  0.55864  0.83980  1.0000
  H   H244      1.0  0.21630  0.65227  0.58185  1.0000
  H   H245      1.0  0.27931  0.85177  0.79628  1.0000
  C   C325      1.0  0.25373  0.68464  0.58615  1.0000
  H   H246      1.0  0.01915  0.54258  0.87893  1.0000
  C   C326      1.0  0.26352  0.54447  0.74642  1.0000
  C   C327      1.0  0.06176  0.54202  0.84804  1.0000
  C   C328      1.0  0.27267  0.55996  0.77839  1.0000
  H   H247      1.0  0.28821  0.60387  0.80016  1.0000
  C   C329      1.0  0.22078  0.67973  0.53302  1.0000
  C   C330      1.0  0.05791  0.59306  0.63946  1.0000
  C   C331      1.0  0.31282  0.73752  0.74467  1.0000
  H   H248      1.0  0.12071  0.65534  0.51544  1.0000
  C   C332      1.0  0.07373  0.67325  0.63842  1.0000
  H   H249      1.0  0.11768  0.69552  0.64411  1.0000
  C   C333      1.0  0.06381  0.68979  0.71136  1.0000
  C   C334      1.0  0.01536  0.49736  0.81908  1.0000
  H   H250      1.0  0.02066  0.53079  0.72975  1.0000
  C   C335      1.0  0.02049  0.65195  0.58290  1.0000
  H   H251      1.0  0.08915  0.55491  0.64422  1.0000
  C   C336      1.0  0.02362  0.63629  0.51910  1.0000
  C   C337      1.0  0.29828  0.55874  0.85318  1.0000
  H   H252      1.0  0.28952  0.70232  0.82271  1.0000
  C   C338      1.0  0.07971  0.52322  0.76230  1.0000
  H   H253      1.0  0.23453  0.50498  0.87514  1.0000
  H   H254      1.0  0.02727  0.71421  0.52656  1.0000
  H   H255      1.0  0.00402  0.54537  0.80981  1.0000
  C   C339      1.0  0.04595  0.66499  0.65559  1.0000
  H   H256      1.0  0.27452  0.73608  0.52076  1.0000
  H   H257      1.0  0.01899  0.60470  0.56372  1.0000
  H   H258      1.0  0.10018  0.53868  0.71186  1.0000
  H   H259      1.0  0.28907  0.71923  0.58277  1.0000
  C   C340      1.0  0.06526  0.56188  0.64262  1.0000
  C   C341      1.0  0.02603  0.66707  0.50844  1.0000
  C   C342      1.0  0.02703  0.60237  0.63699  1.0000
  C   C343      1.0  0.29038  0.56550  0.88959  1.0000
  C   C344      1.0  0.04365  0.58519  0.88445  1.0000
  C   C345      1.0  0.04193  0.53974  0.64318  1.0000
  H   H260      1.0  0.06044  0.69524  0.74003  1.0000
  H   H261      1.0  0.02596  0.59563  0.90127  1.0000
  H   H262      1.0  0.04772  0.51564  0.64576  1.0000
  C   C346      1.0  0.04121  0.67336  0.69229  1.0000
  H   H263      1.0  0.20885  0.58433  0.50246  1.0000
  C   C347      1.0  0.02548  0.69035  0.53484  1.0000
  H   H264      1.0  0.17609  0.72771  0.52369  1.0000
  C   C348      1.0  0.02071  0.62871  0.55616  1.0000
  H   H265      1.0  0.02054  0.66666  0.70674  1.0000
  C   C349      1.0  0.02271  0.68285  0.57193  1.0000
  P   P13       1.0  0.01760  0.64253  0.63099  1.0000
  C   C350      1.0  0.07600  0.49856  0.78676  1.0000
  C   C351      1.0  0.01119  0.54873  0.64006  1.0000
  H   H266      1.0  0.16356  0.49934  0.82284  1.0000
  H   H267      1.0  0.99310  0.53153  0.64010  1.0000
  H   H268      1.0  0.30540  0.58525  0.94073  1.0000
  H   H269      1.0  0.02417  0.61825  0.49861  1.0000
  Fe  Fe17      1.0  0.38589  0.11557  0.38693  1.0000
  S   S36       1.0  0.40126  0.14831  0.34240  1.0000
  S   S37       1.0  0.39755  0.13067  0.44547  1.0000
  Fe  Fe18      1.0  0.36068  0.06986  0.33076  1.0000
  S   S38       1.0  0.37317  0.09987  0.28302  1.0000
  H   H270      1.0  0.63225  0.00501  0.30223  1.0000
  Fe  Fe19      1.0  0.41833  0.10666  0.31230  1.0000
  S   S39       1.0  0.46032  0.09640  0.27683  1.0000
  Fe  Fe20      1.0  0.35475  0.13946  0.31667  1.0000
  S   S40       1.0  0.40661  0.07461  0.35848  1.0000
  H   H271      1.0  0.33523  0.15545  0.46048  1.0000
  S   S41       1.0  0.62706  0.09726  0.18108  1.0000
  Fe  Fe21      1.0  0.63389  0.13072  0.22707  1.0000
  S   S42       1.0  0.59676  0.14989  0.26502  1.0000
  C   C352      1.0  0.58418  0.04481  0.27167  1.0000
  C   C353      1.0  0.49842  0.11107  0.27579  1.0000
  C   C354      1.0  0.51910  0.09851  0.25034  1.0000
  C   C355      1.0  0.54913  0.11023  0.24662  1.0000
  C   C356      1.0  0.55905  0.13447  0.26883  1.0000
  C   C357      1.0  0.53857  0.14674  0.29488  1.0000
  C   C358      1.0  0.50837  0.13506  0.29844  1.0000
  H   H272      1.0  0.51179  0.07965  0.23319  1.0000
  H   H273      1.0  0.56471  0.10034  0.22680  1.0000
  H   H274      1.0  0.54606  0.16551  0.31220  1.0000
  H   H275      1.0  0.49270  0.14489  0.31823  1.0000
  C   C359      1.0  0.55110  0.01151  0.20320  1.0000
  C   C360      1.0  0.53453  0.04003  0.14954  1.0000
  H   H276      1.0  0.55970  0.10823  0.15902  1.0000
  C   C361      1.0  0.49783  0.15801  0.11074  1.0000
  H   H277      1.0  0.35622  0.07949  0.46434  1.0000
  H   H278      1.0  0.50507  0.10323  0.17667  1.0000
  C   C362      1.0  0.58096  0.07059  0.33033  1.0000
  C   C363      1.0  0.40663  0.18167  0.23429  1.0000
  C   C364      1.0  0.38280  0.11641  0.48766  1.0000
  H   H279      1.0  0.41069  0.10318  0.09580  1.0000
  C   C365      1.0  0.55686  0.05107  0.34055  1.0000
  C   C366      1.0  0.55910  0.02593  0.28109  1.0000
  H   H280      1.0  0.52122  0.11059  0.40502  1.0000
  C   C367      1.0  0.44134  0.09353  0.16205  1.0000
  C   C368      1.0  0.38840  0.13942  0.06636  1.0000
  H   H281      1.0  0.56895  0.04697  0.10771  1.0000
  H   H282      1.0  0.42647  0.20283  0.28208  1.0000
  H   H283      1.0  0.51701  0.05275  0.13506  1.0000
  C   C369      1.0  0.52821  0.02767  0.18413  1.0000
  C   C370      1.0  0.54622  0.02856  0.31624  1.0000
  H   H284      1.0  0.61333  0.08250  0.28800  1.0000
  H   H285      1.0  0.40827  0.04730  0.22641  1.0000
  H   H286      1.0  0.34650  0.09489  0.18670  1.0000
  C   C371      1.0  0.41231  0.16481  0.20243  1.0000
  H   H287      1.0  0.54602  0.05371  0.36705  1.0000
  H   H288      1.0  0.35175  0.17065  0.39857  1.0000
  C   C372      1.0  0.42366  0.14797  0.11704  1.0000
  C   C373      1.0  0.44635  0.03947  0.14564  1.0000
  H   H289      1.0  0.39310  0.15786  0.18551  1.0000
  C   C374      1.0  0.59488  0.06714  0.29614  1.0000
  H   H290      1.0  0.48003  0.18865  0.26549  1.0000
  C   C375      1.0  0.47701  0.12272  0.48046  1.0000
  H   H291      1.0  0.52756  0.01360  0.32468  1.0000
  P   P14       1.0  0.44908  0.13364  0.15227  1.0000
  C   C376      1.0  0.40799  0.12781  0.09342  1.0000
  H   H292      1.0  0.62704  0.14024  0.33767  1.0000
  C   C377      1.0  0.51143  0.11918  0.15530  1.0000
  H   H293      1.0  0.36910  0.18013  0.04180  1.0000
  H   H294      1.0  0.53576  0.17675  0.07960  1.0000
  H   H295      1.0  0.37641  0.12378  0.04814  1.0000
  H   H296      1.0  0.59531  0.04291  0.24527  1.0000
  H   H297      1.0  0.35571  0.03303  0.24988  1.0000
  C   C378      1.0  0.51447  0.11066  0.43361  1.0000
  S   S43       1.0  0.65305  0.14277  0.09103  1.0000
  H   H298      1.0  0.45456  0.02180  0.12715  1.0000
  H   H299      1.0  0.33293  0.13451  0.23299  1.0000
  C   C379      1.0  0.43101  0.19033  0.25697  1.0000
  C   C380      1.0  0.42516  0.08484  0.19367  1.0000
  C   C381      1.0  0.46113  0.18230  0.24765  1.0000
  H   H300      1.0  0.43123  0.19580  0.13117  1.0000
  H   H301      1.0  0.42671  0.00695  0.18382  1.0000
  P   P15       1.0  0.54447  0.99759  0.24911  1.0000
  C   C382      1.0  0.45172  0.07059  0.13792  1.0000
  H   H302      1.0  0.55635  0.08961  0.45250  1.0000
  H   H303      1.0  0.39674  0.21594  0.08333  1.0000
  H   H304      1.0  0.47027  0.13144  0.42306  1.0000
  C   C383      1.0  0.33279  0.18255  0.41156  1.0000
  C   C384      1.0  0.56374  0.03668  0.13401  1.0000
  C   C385      1.0  0.36307  0.09099  0.48932  1.0000
  C   C386      1.0  0.53417  0.09881  0.46037  1.0000
  C   C387      1.0  0.48481  0.01597  0.26745  1.0000
  H   H305      1.0  0.48111  0.17234  0.09711  1.0000
  C   C388      1.0  0.65187  0.13787  0.33794  1.0000
  C   C389      1.0  0.39973  0.19133  0.08623  1.0000
  H   H306      1.0  0.50569  0.03121  0.19607  1.0000
  S   S44       1.0  0.33858  0.10878  0.36282  1.0000
  C   C390      1.0  0.44249  0.15636  0.19301  1.0000
  H   H307      1.0  0.43932  0.03007  0.28367  1.0000
  C   C391      1.0  0.52885  0.16060  0.10066  1.0000
  C   C392      1.0  0.42001  0.05375  0.20139  1.0000
  C   C393      1.0  0.46691  0.16523  0.21590  1.0000
  H   H308      1.0  0.60942  0.01823  0.14124  1.0000
  C   C394      1.0  0.38426  0.17116  0.06277  1.0000
  C   C395      1.0  0.43061  0.03105  0.17748  1.0000
  H   H309      1.0  0.41719  0.10179  0.21315  1.0000
  C   C396      1.0  0.48889  0.13724  0.13825  1.0000
  C   C397      1.0  0.35706  0.00850  0.25441  1.0000
  C   C398      1.0  0.54238  0.12191  0.14530  1.0000
  H   H310      1.0  0.38865  0.25724  0.21644  1.0000
  C   C399      1.0  0.55113  0.14260  0.11798  1.0000
  S   S45       1.0  0.34152  0.02104  0.32652  1.0000
  H   H311      1.0  0.58863  0.08866  0.34860  1.0000
  H   H312      1.0  0.49037  0.15859  0.20995  1.0000
  H   H313      1.0  0.38325  0.18756  0.24182  1.0000
  H   H314      1.0  0.49437  0.03863  0.27201  1.0000
  C   C400      1.0  0.41930  0.17983  0.11328  1.0000
  H   H315      1.0  0.57525  0.14484  0.11048  1.0000
  C   C401      1.0  0.48587  0.12256  0.44370  1.0000
  H   H316      1.0  0.46416  0.07680  0.11331  1.0000
  C   C402      1.0  0.58649  0.02042  0.15273  1.0000
  C   C403      1.0  0.45348  0.01122  0.27398  1.0000
  C   C404      1.0  0.58011  0.00765  0.18698  1.0000
  C   C405      1.0  0.64879  0.14124  0.01561  1.0000
  H   H317      1.0  0.36504  0.21830  0.17600  1.0000
  C   C406      1.0  0.64686  0.00895  0.32583  1.0000
  H   H318      1.0  0.64259  0.16523  0.01812  1.0000
  H   H319      1.0  0.59824  0.99562  0.20136  1.0000
  H   H320      1.0  0.65056  0.09046  0.35347  1.0000
  C   C407      1.0  0.35170  0.99668  0.28945  1.0000
  H   H321      1.0  0.34153  0.10688  0.12052  1.0000
  C   C408      1.0  0.36537  0.26046  0.20656  1.0000
  C   C409      1.0  0.35182  0.23832  0.18386  1.0000
  H   H322      1.0  0.45464  0.13183  0.48774  1.0000
  H   H323      1.0  0.36667  0.99782  0.19782  1.0000
  H   H324      1.0  0.34826  0.25550  0.10692  1.0000
  H   H325      1.0  0.35907  0.30351  0.23493  1.0000
  C   C410      1.0  0.33118  0.13964  0.20404  1.0000
  C   C411      1.0  0.33871  0.11741  0.17796  1.0000
  S   S46       1.0  0.33295  0.18317  0.29195  1.0000
  C   C412      1.0  0.33593  0.12423  0.14072  1.0000
  C   C413      1.0  0.52522  0.09870  0.49722  1.0000
  C   C414      1.0  0.65522  0.12414  0.04747  1.0000
  S   S47       1.0  0.65911  0.02030  0.20857  1.0000
  C   C415      1.0  0.34874  0.28652  0.21698  1.0000
  H   H326      1.0  0.35839  0.26771  0.04218  1.0000
  C   C416      1.0  0.34131  0.25046  0.04916  1.0000
  C   C417      1.0  0.33547  0.24346  0.08590  1.0000
  Fe  Fe22      1.0  0.36451  0.08279  0.73644  1.0000
  S   S48       1.0  0.37860  0.13114  0.75277  1.0000
  C   C418      1.0  0.55801  0.06399  0.77081  1.0000
  Fe  Fe23      1.0  0.35915  0.10019  0.65484  1.0000
  S   S49       1.0  0.37346  0.14883  0.66559  1.0000
  S   S50       1.0  0.34708  0.08010  0.59874  1.0000
  Fe  Fe24      1.0  0.40935  0.12872  0.70317  1.0000
  S   S51       1.0  0.46037  0.13927  0.69542  1.0000
  H   H327      1.0  0.39121  0.04315  0.87591  1.0000
  S   S52       1.0  0.39699  0.08001  0.68900  1.0000
  C   C419      1.0  0.49650  0.11069  0.50752  1.0000
  S   S53       1.0  0.61293  0.08022  0.84274  1.0000
  Fe  Fe25      1.0  0.60960  0.12810  0.82074  1.0000
  S   S54       1.0  0.56122  0.14824  0.82193  1.0000
  C   C420      1.0  0.53585  0.01844  0.74346  1.0000
  C   C421      1.0  0.48787  0.14069  0.73124  1.0000
  C   C422      1.0  0.51911  0.13620  0.72292  1.0000
  C   C423      1.0  0.54179  0.13792  0.75041  1.0000
  C   C424      1.0  0.53343  0.14436  0.78659  1.0000
  C   C425      1.0  0.50217  0.14903  0.79487  1.0000
  C   C426      1.0  0.47947  0.14702  0.76738  1.0000
  H   H328      1.0  0.52576  0.13162  0.69500  1.0000
  H   H329      1.0  0.56579  0.13497  0.74347  1.0000
  H   H330      1.0  0.49552  0.15452  0.82264  1.0000
  H   H331      1.0  0.45560  0.15137  0.77385  1.0000
  C   C427      1.0  0.38045  0.12046  0.55462  1.0000
  C   C428      1.0  0.36094  0.09487  0.55634  1.0000
  C   C429      1.0  0.35244  0.08017  0.52349  1.0000
  H   H332      1.0  0.38713  0.13206  0.57958  1.0000
  C   C430      1.0  0.41208  0.05280  0.86440  1.0000
  H   H333      1.0  0.33768  0.06015  0.52448  1.0000
  H   H334      1.0  0.60168  0.03581  0.91029  1.0000
  Fe  Fe26      1.0  0.34108  0.14745  0.71420  1.0000
  H   H335      1.0  0.49051  0.07567  0.69170  1.0000
  H   H336      1.0  0.65369  0.21612  0.83630  1.0000
  C   C431      1.0  0.41811  0.04362  0.53454  1.0000
  C   C432      1.0  0.51485  0.05626  0.91322  1.0000
  H   H337      1.0  0.43681  0.11596  0.81822  1.0000
  C   C433      1.0  0.46271  0.06005  0.73668  1.0000
  C   C434      1.0  0.41108  0.08141  0.84710  1.0000
  H   H338      1.0  0.62479  0.25274  0.87523  1.0000
  H   H339      1.0  0.38949  0.09374  0.84504  1.0000
  C   C435      1.0  0.56610  0.05990  0.93919  1.0000
  C   C436      1.0  0.47767  0.05651  0.70310  1.0000
  H   H340      1.0  0.54305  0.07525  0.82496  1.0000
  H   H341      1.0  0.40658  0.15079  0.51963  1.0000
  C   C437      1.0  0.43773  0.09376  0.83156  1.0000
  H   H342      1.0  0.56690  0.01617  0.86210  1.0000
  C   C438      1.0  0.47018  0.20310  0.55981  1.0000
  C   C439      1.0  0.44347  0.00786  0.73248  1.0000
  H   H343      1.0  0.34867  0.00750  0.64760  1.0000
  C   C440      1.0  0.55565  0.04370  0.74135  1.0000
  P   P16       1.0  0.48368  0.10975  0.55465  1.0000
  C   C441      1.0  0.51480  0.09931  0.58501  1.0000
  C   C442      1.0  0.46976  0.14746  0.56771  1.0000
  C   C443      1.0  0.45107  0.15115  0.59876  1.0000
  C   C444      1.0  0.44231  0.18049  0.61036  1.0000
  C   C445      1.0  0.45175  0.20646  0.59088  1.0000
  H   H344      1.0  0.33632  0.44791  0.82976  1.0000
  Fe  Fe27      1.0  0.64513  0.07127  0.79599  1.0000
  C   C446      1.0  0.53085  0.12185  0.60495  1.0000
  C   C447      1.0  0.55427  0.11333  0.62915  1.0000
  C   C448      1.0  0.56166  0.08232  0.63390  1.0000
  C   C449      1.0  0.54588  0.05974  0.61407  1.0000
  C   C450      1.0  0.52265  0.06819  0.58958  1.0000
  C   C451      1.0  0.45418  0.08069  0.56021  1.0000
  H   H345      1.0  0.39157  0.20588  0.55411  1.0000
  S   S55       1.0  0.36589  0.04599  0.78122  1.0000
  C   C452      1.0  0.40932  0.03478  0.56973  1.0000
  C   C453      1.0  0.42317  0.04848  0.60013  1.0000
  C   C454      1.0  0.44579  0.07098  0.59550  1.0000
  P   P17       1.0  0.50122  0.02557  0.84765  1.0000
  C   C455      1.0  0.46621  0.04792  0.84858  1.0000
  C   C456      1.0  0.36772  0.20226  0.56154  1.0000
  Fe  Fe28      1.0  0.65362  0.09685  0.87503  1.0000
  H   H346      1.0  0.44363  0.13166  0.61478  1.0000
  H   H347      1.0  0.42869  0.18301  0.63504  1.0000
  H   H348      1.0  0.44502  0.22916  0.60012  1.0000
  S   S56       1.0  0.63200  0.02986  0.76068  1.0000
  C   C457      1.0  0.64616  0.24296  0.88505  1.0000
  H   H349      1.0  0.52511  0.14597  0.60232  1.0000
  H   H350      1.0  0.56634  0.13082  0.64477  1.0000
  H   H351      1.0  0.57958  0.07584  0.65305  1.0000
  H   H352      1.0  0.55161  0.03569  0.61780  1.0000
  H   H353      1.0  0.51059  0.05046  0.57443  1.0000
  H   H354      1.0  0.56974  0.04731  0.71728  1.0000
  C   C458      1.0  0.52132  0.03332  0.80529  1.0000
  H   H355      1.0  0.48551  0.08714  0.81979  1.0000
  H   H356      1.0  0.41581  0.04224  0.62734  1.0000
  H   H357      1.0  0.45639  0.08100  0.61958  1.0000
  H   H358      1.0  0.57385  0.08323  0.76946  1.0000
  C   C459      1.0  0.35852  0.20495  0.59804  1.0000
  H   H359      1.0  0.34784  0.00760  0.71921  1.0000
  C   C460      1.0  0.52610  0.03771  0.88471  1.0000
  H   H360      1.0  0.58190  0.06934  0.95934  1.0000
  C   C461      1.0  0.44028  0.06660  0.52971  1.0000
  H   H361      1.0  0.52634  0.08262  0.96143  1.0000
  S   S57       1.0  0.64859  0.14581  0.85624  1.0000
  H   H362      1.0  0.35423  0.19200  0.50668  1.0000
  C   C462      1.0  0.65021  0.12761  0.98048  1.0000
  H   H363      1.0  0.47769  0.22325  0.54481  1.0000
  C   C463      1.0  0.39143  0.13103  0.52051  1.0000
  H   H364      1.0  0.39098  0.01818  0.57345  1.0000
  H   H365      1.0  0.39781  0.00738  0.68057  1.0000
  C   C464      1.0  0.57728  0.04085  0.91147  1.0000
  C   C465      1.0  0.32790  0.19944  0.60769  1.0000
  C   C466      1.0  0.53485  0.06743  0.94022  1.0000
  C   C467      1.0  0.46526  0.07719  0.83238  1.0000
  H   H366      1.0  0.43982  0.01414  0.87920  1.0000
  H   H367      1.0  0.49090  0.06298  0.91411  1.0000
  C   C468      1.0  0.54075  0.05907  0.80251  1.0000
  C   C469      1.0  0.43960  0.03625  0.86561  1.0000
  H   H368      1.0  0.37512  0.21086  0.61902  1.0000
  C   C470      1.0  0.34631  0.19427  0.53457  1.0000
  C   C471      1.0  0.55747  0.02985  0.88424  1.0000
  C   C472      1.0  0.44555  0.03578  0.75128  1.0000
  H   H369      1.0  0.43303  0.03895  0.77666  1.0000
  H   H370      1.0  0.46378  0.08188  0.75090  1.0000
  C   C473      1.0  0.47546  0.02869  0.68401  1.0000
  H   H371      1.0  0.48688  0.02676  0.65787  1.0000
  C   C474      1.0  0.51869  0.01325  0.77530  1.0000
  H   H372      1.0  0.54073  0.08929  0.51744  1.0000
  H   H373      1.0  0.44582  0.07349  0.50210  1.0000
  C   C475      1.0  0.47944  0.17379  0.54848  1.0000
  H   H374      1.0  0.39509  0.00784  0.95228  1.0000
  C   C476      1.0  0.45834  0.00413  0.69864  1.0000
  H   H375      1.0  0.46036  0.99701  0.60201  1.0000
  C   C477      1.0  0.36600  0.00558  0.77377  1.0000
  C   C478      1.0  0.65106  0.99442  0.89397  1.0000
  H   H376      1.0  0.40672  0.03369  0.51093  1.0000
  H   H377      1.0  0.49452  0.17191  0.52503  1.0000
  S   S58       1.0  0.63981  0.11876  0.77204  1.0000
  H   H378      1.0  0.64519  0.14111  0.95636  1.0000
  H   H379      1.0  0.32887  0.24159  0.99300  1.0000
  H   H380      1.0  0.65648  0.00780  0.83761  1.0000
  H   H381      1.0  0.38352  0.99555  0.82765  1.0000
  H   H382      1.0  0.53404  0.00284  0.72048  1.0000
  H   H383      1.0  0.64502  0.26718  0.93645  1.0000
  C   C479      1.0  0.65781  0.09649  0.97675  1.0000
  C   C480      1.0  0.65268  0.99538  0.75294  1.0000
  H   H384      1.0  0.65914  0.01632  0.90455  1.0000
  H   H385      1.0  0.53611  0.00138  0.95956  1.0000
  H   H386      1.0  0.50355  0.99357  0.77634  1.0000
  C   C481      1.0  0.65750  0.25095  0.91957  1.0000
  S   S59       1.0  0.65922  0.07765  0.93331  1.0000
  S   S60       1.0  0.38589  0.79145  0.20068  1.0000
  S   S61       1.0  0.41754  0.85725  0.17536  1.0000
  Fe  Fe29      1.0  0.41516  0.82845  0.22636  1.0000
  S   S62       1.0  0.45212  0.81973  0.26951  1.0000
  Fe  Fe30      1.0  0.63579  0.82298  0.29309  1.0000
  S   S63       1.0  0.63874  0.86016  0.33554  1.0000
  S   S64       1.0  0.59800  0.82101  0.24951  1.0000
  H   H387      1.0  0.38207  0.88204  0.38638  1.0000
  C   C482      1.0  0.59371  0.92684  0.29414  1.0000
  H   H388      1.0  0.55355  0.58126  0.31060  1.0000
  C   C483      1.0  0.49173  0.74701  0.28054  1.0000
  C   C484      1.0  0.56533  0.93977  0.22727  1.0000
  H   H389      1.0  0.60500  0.92173  0.31983  1.0000
  C   C485      1.0  0.35320  0.77201  0.31967  1.0000
  H   H390      1.0  0.41629  0.97853  0.27374  1.0000
  H   H391      1.0  0.42929  0.93161  0.13545  1.0000
  C   C486      1.0  0.45869  0.95798  0.25581  1.0000
  H   H392      1.0  0.39632  0.78684  0.29646  1.0000
  C   C487      1.0  0.48982  0.74534  0.24245  1.0000
  C   C488      1.0  0.41225  0.92711  0.08039  1.0000
  C   C489      1.0  0.38049  0.76776  0.30015  1.0000
  C   C490      1.0  0.49256  0.82291  0.26321  1.0000
  C   C491      1.0  0.50599  0.82220  0.22843  1.0000
  C   C492      1.0  0.53830  0.82190  0.22480  1.0000
  C   C493      1.0  0.55752  0.82285  0.25576  1.0000
  C   C494      1.0  0.54410  0.82460  0.29048  1.0000
  C   C495      1.0  0.51179  0.82420  0.29418  1.0000
  H   H393      1.0  0.49152  0.82099  0.20439  1.0000
  H   H394      1.0  0.54847  0.82064  0.19782  1.0000
  H   H395      1.0  0.55860  0.82598  0.31448  1.0000
  H   H396      1.0  0.50164  0.82479  0.32119  1.0000
  C   C496      1.0  0.61215  0.71878  0.27861  1.0000
  C   C497      1.0  0.35911  0.94461  0.26527  1.0000
  H   H397      1.0  0.58031  0.89438  0.21102  1.0000
  H   H398      1.0  0.46975  0.75442  0.22853  1.0000
  S   S65       1.0  0.37401  0.85330  0.24890  1.0000
  C   C498      1.0  0.51411  0.73281  0.22234  1.0000
  C   C499      1.0  0.33238  0.74768  0.32350  1.0000
  C   C500      1.0  0.54308  0.72499  0.27850  1.0000
  C   C501      1.0  0.54048  0.72227  0.24032  1.0000
  P   P18       1.0  0.57651  0.70997  0.30173  1.0000
  C   C502      1.0  0.58131  0.72726  0.34625  1.0000
  C   C503      1.0  0.57016  0.66912  0.30515  1.0000
  H   H399      1.0  0.40780  0.73675  0.26835  1.0000
  Fe  Fe31      1.0  0.38498  0.82241  0.15074  1.0000
  Fe  Fe32      1.0  0.65661  0.82363  0.37382  1.0000
  C   C504      1.0  0.58395  0.64885  0.28017  1.0000
  C   C505      1.0  0.59834  0.72417  0.40951  1.0000
  H   H400      1.0  0.41856  0.65595  0.21065  1.0000
  C   C506      1.0  0.57655  0.75895  0.35068  1.0000
  C   C507      1.0  0.35276  0.87042  0.34093  1.0000
  C   C508      1.0  0.33884  0.90621  0.38883  1.0000
  C   C509      1.0  0.57803  0.61725  0.28227  1.0000
  H   H401      1.0  0.52815  0.61703  0.35408  1.0000
  H   H402      1.0  0.36275  0.58867  0.34815  1.0000
  C   C510      1.0  0.61389  0.74302  0.25336  1.0000
  H   H403      1.0  0.51267  0.73179  0.19277  1.0000
  H   H404      1.0  0.55905  0.71248  0.22436  1.0000
  H   H405      1.0  0.59918  0.65738  0.25896  1.0000
  C   C511      1.0  0.54968  0.65753  0.33149  1.0000
  C   C512      1.0  0.37512  0.84802  0.04798  1.0000
  H   H406      1.0  0.56960  0.77294  0.32764  1.0000
  H   H407      1.0  0.50380  0.94324  0.24059  1.0000
  C   C513      1.0  0.59275  0.71001  0.37574  1.0000
  H   H408      1.0  0.58901  0.60166  0.26315  1.0000
  C   C514      1.0  0.47402  0.92836  0.05872  1.0000
  H   H409      1.0  0.53831  0.67296  0.35045  1.0000
  H   H410      1.0  0.34449  0.91824  0.41394  1.0000
  C   C515      1.0  0.64240  0.90378  0.42455  1.0000
  C   C516      1.0  0.45522  0.85651  0.00481  1.0000
  C   C517      1.0  0.38689  0.73923  0.28424  1.0000
  C   C518      1.0  0.36601  0.71461  0.28779  1.0000
  C   C519      1.0  0.36000  0.88583  0.37336  1.0000
  P   P19       1.0  0.37363  0.67842  0.26504  1.0000
  C   C520      1.0  0.41466  0.67165  0.26685  1.0000
  C   C521      1.0  0.34414  0.68462  0.14385  1.0000
  S   S66       1.0  0.34197  0.84697  0.16847  1.0000
  C   C522      1.0  0.41991  0.92458  0.04331  1.0000
  H   H411      1.0  0.35551  0.73281  0.14816  1.0000
  C   C523      1.0  0.43539  0.93030  0.10665  1.0000
  H   H412      1.0  0.49806  0.92806  0.05102  1.0000
  C   C524      1.0  0.43116  0.67820  0.29901  1.0000
  C   C525      1.0  0.46310  0.67428  0.30010  1.0000
  C   C526      1.0  0.47880  0.66389  0.26910  1.0000
  C   C527      1.0  0.46255  0.65721  0.23706  1.0000
  C   C528      1.0  0.43060  0.66099  0.23589  1.0000
  H   H413      1.0  0.63876  0.68572  0.30961  1.0000
  C   C529      1.0  0.36309  0.70892  0.19906  1.0000
  H   H414      1.0  0.59370  0.75623  0.24635  1.0000
  C   C530      1.0  0.36769  0.62778  0.31226  1.0000
  H   H415      1.0  0.62118  0.90119  0.40929  1.0000
  C   C531      1.0  0.45698  0.82486  0.99840  1.0000
  H   H416      1.0  0.35095  0.63224  0.21234  1.0000
  H   H417      1.0  0.63982  0.95789  0.22005  1.0000
  C   C532      1.0  0.57890  0.95503  0.28906  1.0000
  H   H418      1.0  0.39188  0.63043  0.31840  1.0000
  C   C533      1.0  0.36309  0.98847  0.22492  1.0000
  H   H419      1.0  0.48417  0.93293  0.11632  1.0000
  H   H420      1.0  0.57918  0.79766  0.38753  1.0000
  H   H421      1.0  0.57864  0.97142  0.31131  1.0000
  C   C534      1.0  0.33857  0.71916  0.30739  1.0000
  H   H422      1.0  0.41935  0.68671  0.32309  1.0000
  H   H423      1.0  0.47574  0.67981  0.32480  1.0000
  H   H424      1.0  0.50360  0.66135  0.26973  1.0000
  H   H425      1.0  0.47477  0.64940  0.21293  1.0000
  C   C535      1.0  0.35441  0.71085  0.16229  1.0000
  H   H426      1.0  0.37067  0.72948  0.21288  1.0000
  C   C536      1.0  0.64675  0.98809  0.35486  1.0000
  H   H427      1.0  0.34902  0.95522  0.32172  1.0000
  S   S67       1.0  0.63521  0.82353  0.43126  1.0000
  C   C537      1.0  0.65926  0.96204  0.23787  1.0000
  C   C538      1.0  0.64222  0.75156  0.23823  1.0000
  H   H428      1.0  0.40173  0.92135  0.02341  1.0000
  C   C539      1.0  0.58206  0.77301  0.38447  1.0000
  H   H429      1.0  0.62203  0.89019  0.47571  1.0000
  H   H430      1.0  0.47303  0.75722  0.29596  1.0000
  C   C540      1.0  0.56458  0.96170  0.25555  1.0000
  H   H431      1.0  0.36916  0.85455  0.32904  1.0000
  S   S68       1.0  0.39159  0.80000  0.09460  1.0000
  H   H432      1.0  0.37192  0.86182  0.07233  1.0000
  H   H433      1.0  0.39440  0.77572  0.02146  1.0000
  S   S69       1.0  0.37138  0.93223  0.19200  1.0000
  H   H434      1.0  0.59812  0.76685  0.43970  1.0000
  C   C541      1.0  0.36411  0.95644  0.23015  1.0000
  H   H435      1.0  0.38837  0.92587  0.08896  1.0000
  C   C542      1.0  0.38403  0.81723  0.05130  1.0000
  C   C543      1.0  0.51812  0.73668  0.29858  1.0000
  H   H436      1.0  0.44839  0.93553  0.25121  1.0000
  Fe  Fe33      1.0  0.37451  0.87997  0.19665  1.0000
  H   H437      1.0  0.51902  0.73822  0.32811  1.0000
  C   C544      1.0  0.57994  0.91152  0.23261  1.0000
  C   C545      1.0  0.49017  0.96254  0.24972  1.0000
  H   H438      1.0  0.55435  0.94435  0.20125  1.0000
  C   C546      1.0  0.46626  0.93103  0.09581  1.0000
  C   C547      1.0  0.38769  0.79958  0.01925  1.0000
  C   C548      1.0  0.59292  0.75563  0.41389  1.0000
  C   C549      1.0  0.59411  0.90511  0.26599  1.0000
  H   H439      1.0  0.60564  0.88332  0.26986  1.0000
  H   H440      1.0  0.59827  0.68591  0.37247  1.0000
  H   H441      1.0  0.44926  0.86420  0.03207  1.0000
  C   C550      1.0  0.35284  0.96464  0.29471  1.0000
  Fe  Fe34      1.0  0.34456  0.81804  0.21990  1.0000
  C   C551      1.0  0.44047  0.98224  0.26828  1.0000
  C   C552      1.0  0.54376  0.62592  0.33348  1.0000
  C   C553      1.0  0.55802  0.60578  0.30896  1.0000
  C   C554      1.0  0.36156  0.68081  0.21776  1.0000
  C   C555      1.0  0.35176  0.65438  0.19883  1.0000
  C   C556      1.0  0.63926  0.70352  0.28892  1.0000
  H   H442      1.0  0.35977  0.92004  0.26971  1.0000
  H   H443      1.0  0.34769  0.79447  0.33070  1.0000
  C   C557      1.0  0.45083  0.92515  0.03218  1.0000
  C   C558      1.0  0.65441  0.81898  0.47395  1.0000
  C   C559      1.0  0.50359  0.99157  0.25586  1.0000
  C   C560      1.0  0.37029  0.86097  0.01303  1.0000
  C   C561      1.0  0.35286  0.64766  0.28766  1.0000
  H   H444      1.0  0.60775  0.71103  0.43203  1.0000
  H   H445      1.0  0.63178  0.96815  0.35399  1.0000
  C   C562      1.0  0.34286  0.65637  0.16209  1.0000
  C   C563      1.0  0.64288  0.89766  0.46207  1.0000
  S   S70       1.0  0.64989  0.78568  0.33236  1.0000
  C   C564      1.0  0.35125  0.60397  0.32921  1.0000
  H   H446      1.0  0.45232  0.80888  0.02052  1.0000
  H   H447      1.0  0.36290  0.88460  0.01076  1.0000
  H   H448      1.0  0.64349  0.77102  0.21973  1.0000
  H   H449      1.0  0.65878  0.91584  0.26006  1.0000
  H   H450      1.0  0.33719  0.68626  0.11543  1.0000
  H   H451      1.0  0.33490  0.63603  0.14776  1.0000
  S   S71       1.0  0.39956  0.79706  0.86473  1.0000
  S   S72       1.0  0.41009  0.86969  0.84355  1.0000
  Fe  Fe35      1.0  0.42885  0.82413  0.82488  1.0000
  S   S73       1.0  0.48162  0.82223  0.82720  1.0000
  P   P20       1.0  0.63033  0.69198  0.68276  1.0000
  C   C565      1.0  0.48436  0.91137  0.75479  1.0000
  C   C566      1.0  0.43200  0.93860  0.95705  1.0000
  C   C567      1.0  0.63795  0.97098  0.73460  1.0000
  H   H452      1.0  0.46311  0.78925  0.95805  1.0000
  Fe  Fe36      1.0  0.63226  0.81521  0.69921  1.0000
  S   S74       1.0  0.57985  0.80958  0.69762  1.0000
  H   H453      1.0  0.51695  0.91842  0.88942  1.0000
  H   H454      1.0  0.55353  0.88414  0.84372  1.0000
  C   C568      1.0  0.41643  0.96808  0.65134  1.0000
  H   H455      1.0  0.51024  0.93057  0.66658  1.0000
  H   H456      1.0  0.37176  0.58672  0.85359  1.0000
  C   C569      1.0  0.37564  0.98585  0.80207  1.0000
  H   H457      1.0  0.47300  0.88173  0.91910  1.0000
  C   C570      1.0  0.50191  0.97936  0.57841  1.0000
  S   S75       1.0  0.36017  0.90025  0.75889  1.0000
  H   H458      1.0  0.41262  0.91581  0.69192  1.0000
  C   C571      1.0  0.50844  0.81896  0.79056  1.0000
  C   C572      1.0  0.49911  0.81543  0.75415  1.0000
  C   C573      1.0  0.52128  0.81283  0.72607  1.0000
  C   C574      1.0  0.55296  0.81398  0.73394  1.0000
  C   C575      1.0  0.56226  0.81778  0.77029  1.0000
  C   C576      1.0  0.54014  0.81997  0.79841  1.0000
  H   H459      1.0  0.47485  0.81436  0.74762  1.0000
  H   H460      1.0  0.51381  0.80975  0.69806  1.0000
  H   H461      1.0  0.58652  0.81838  0.77679  1.0000
  H   H462      1.0  0.54768  0.82202  0.82645  1.0000
  C   C577      1.0  0.36372  0.94070  0.76506  1.0000
  C   C578      1.0  0.60549  0.65868  0.67993  1.0000
  H   H463      1.0  0.43301  0.98004  0.99003  1.0000
  S   S76       1.0  0.39470  0.81887  0.77864  1.0000
  H   H464      1.0  0.41814  0.87311  0.73504  1.0000
  C   C579      1.0  0.65252  0.82127  0.54111  1.0000
  H   H465      1.0  0.63158  0.83381  0.85308  1.0000
  H   H466      1.0  0.38663  0.79895  0.95990  1.0000
  C   C580      1.0  0.34909  0.58064  0.86370  1.0000
  C   C581      1.0  0.52412  0.91398  0.97520  1.0000
  C   C582      1.0  0.58884  0.89020  0.74230  1.0000
  H   H467      1.0  0.45241  0.98793  0.81433  1.0000
  Fe  Fe37      1.0  0.37878  0.84234  0.88047  1.0000
  H   H468      1.0  0.61902  0.86606  0.77845  1.0000
  C   C583      1.0  0.57435  0.61956  0.70997  1.0000
  Fe  Fe38      1.0  0.37443  0.86334  0.80004  1.0000
  C   C584      1.0  0.45613  0.93742  0.70640  1.0000
  C   C585      1.0  0.63118  0.93736  0.86630  1.0000
  H   H469      1.0  0.59499  0.84001  0.95871  1.0000
  C   C586      1.0  0.62484  0.74884  0.57608  1.0000
  C   C587      1.0  0.62760  0.71401  0.64079  1.0000
  C   C588      1.0  0.56552  0.93642  0.76641  1.0000
  H   H470      1.0  0.46349  0.86997  0.77576  1.0000
  C   C589      1.0  0.64561  0.70594  0.61029  1.0000
  H   H471      1.0  0.42728  0.92875  0.61737  1.0000
  C   C590      1.0  0.45976  0.94167  0.83245  1.0000
  C   C591      1.0  0.49200  0.98499  0.85038  1.0000
  C   C592      1.0  0.51020  0.96493  0.87120  1.0000
  H   H472      1.0  0.55799  0.91897  0.71181  1.0000
  S   S77       1.0  0.34122  0.83961  0.83803  1.0000
  C   C593      1.0  0.56652  0.60714  0.67592  1.0000
  P   P21       1.0  0.45351  0.96856  0.67375  1.0000
  C   C594      1.0  0.52701  0.95971  0.58290  1.0000
  H   H473      1.0  0.56971  0.71210  0.70903  1.0000
  C   C595      1.0  0.34097  0.58752  0.89978  1.0000
  C   C596      1.0  0.35471  0.96045  0.73655  1.0000
  H   H474      1.0  0.59966  0.65453  0.73864  1.0000
  H   H475      1.0  0.32652  0.50344  0.83558  1.0000
  S   S78       1.0  0.36974  0.86174  0.93773  1.0000
  H   H476      1.0  0.33785  0.96810  0.60022  1.0000
  C   C597      1.0  0.56290  0.87551  0.86914  1.0000
  C   C598      1.0  0.60030  0.90663  0.80439  1.0000
  C   C599      1.0  0.59970  0.75029  0.78198  1.0000
  C   C600      1.0  0.55794  0.95714  0.96278  1.0000
  C   C601      1.0  0.46871  0.83441  0.93473  1.0000
  H   H477      1.0  0.38381  0.92795  0.88445  1.0000
  H   H478      1.0  0.64815  0.75430  0.79418  1.0000
  H   H479      1.0  0.33453  0.56114  0.81254  1.0000
  C   C602      1.0  0.57819  0.62030  0.64389  1.0000
  H   H480      1.0  0.32811  0.75548  0.73517  1.0000
  C   C603      1.0  0.63823  0.82478  0.50665  1.0000
  H   H481      1.0  0.34621  0.95074  0.71121  1.0000
  C   C604      1.0  0.46317  0.81380  0.96327  1.0000
  H   H482      1.0  0.42935  0.98957  0.74377  1.0000
  C   C605      1.0  0.59390  0.88032  0.87850  1.0000
  C   C606      1.0  0.46155  0.88875  0.75646  1.0000
  C   C607      1.0  0.46816  0.86611  0.94135  1.0000
  C   C608      1.0  0.37459  0.95359  0.79771  1.0000
  H   H483      1.0  0.55097  0.95626  0.76282  1.0000
  H   H484      1.0  0.44030  0.93261  0.81722  1.0000
  C   C609      1.0  0.64225  0.97100  0.91797  1.0000
  H   H485      1.0  0.61451  0.83215  0.50530  1.0000
  H   H486      1.0  0.52997  0.97328  0.88612  1.0000
  C   C610      1.0  0.59764  0.64595  0.64584  1.0000
  C   C611      1.0  0.37483  0.84359  0.98097  1.0000
  C   C612      1.0  0.58055  0.93186  0.79978  1.0000
  C   C613      1.0  0.41026  0.94600  0.62422  1.0000
  H   H487      1.0  0.47293  0.89744  0.85378  1.0000
  H   H488      1.0  0.59322  0.74615  0.66082  1.0000
  H   H489      1.0  0.54408  0.95757  0.56140  1.0000
  H   H490      1.0  0.59205  0.87393  0.72010  1.0000
  H   H491      1.0  0.35734  0.59892  0.91765  1.0000
  H   H492      1.0  0.60636  0.65580  0.62070  1.0000
  H   H493      1.0  0.56528  0.60941  0.73483  1.0000
  C   C614      1.0  0.41758  0.92419  0.92720  1.0000
  C   C615      1.0  0.39560  0.93984  0.90648  1.0000
  H   H494      1.0  0.63986  0.82599  0.56598  1.0000
  H   H495      1.0  0.54020  0.83198  0.94176  1.0000
  H   H496      1.0  0.62445  0.76278  0.55151  1.0000
  C   C616      1.0  0.48151  0.93583  0.73017  1.0000
  C   C617      1.0  0.43600  0.89049  0.73345  1.0000
  H   H497      1.0  0.61446  0.97370  0.72545  1.0000
  C   C618      1.0  0.47806  0.92188  0.85318  1.0000
  C   C619      1.0  0.42337  0.96883  0.96617  1.0000
  C   C620      1.0  0.38786  0.97012  0.91507  1.0000
  P   P22       1.0  0.46036  0.91861  0.98462  1.0000
  H   H498      1.0  0.59141  0.77654  0.60453  1.0000
  C   C621      1.0  0.60619  0.75651  0.60585  1.0000
  H   H499      1.0  0.55359  0.74358  0.76193  1.0000
  C   C622      1.0  0.61837  0.71504  0.72149  1.0000
  H   H500      1.0  0.48412  0.98122  0.97010  1.0000
  Fe  Fe39      1.0  0.36348  0.79534  0.81972  1.0000
  C   C623      1.0  0.58700  0.72080  0.72772  1.0000
  H   H501      1.0  0.64011  0.95757  0.81319  1.0000
  C   C624      1.0  0.38196  0.94592  0.60594  1.0000
  H   H502      1.0  0.64193  0.92452  0.71364  1.0000
  C   C625      1.0  0.60532  0.86735  0.91099  1.0000
  C   C626      1.0  0.40170  0.98462  0.94501  1.0000
  C   C627      1.0  0.65352  0.87740  0.84002  1.0000
  C   C628      1.0  0.60421  0.88579  0.77548  1.0000
  C   C629      1.0  0.64015  0.96112  0.84250  1.0000
  C   C630      1.0  0.50306  0.93359  0.87284  1.0000
  H   H503      1.0  0.37724  0.92870  0.58523  1.0000
  H   H504      1.0  0.57209  0.61070  0.61749  1.0000
  H   H505      1.0  0.52009  0.85384  0.88385  1.0000
  C   C631      1.0  0.60731  0.73905  0.63795  1.0000
  C   C632      1.0  0.57775  0.73845  0.75780  1.0000
  C   C633      1.0  0.47977  0.98185  0.60602  1.0000
  C   C634      1.0  0.64021  0.72706  0.74597  1.0000
  H   H506      1.0  0.64362  0.97487  0.94724  1.0000
  C   C635      1.0  0.43309  0.91480  0.70869  1.0000
  C   C636      1.0  0.50313  0.96532  0.96969  1.0000
  C   C637      1.0  0.53272  0.97694  0.96361  1.0000
  P   P23       1.0  0.61951  0.90050  0.84760  1.0000
  H   H507      1.0  0.47297  0.82574  0.90736  1.0000
  C   C638      1.0  0.63092  0.74470  0.77596  1.0000
  C   C639      1.0  0.56958  0.91555  0.73770  1.0000
  C   C640      1.0  0.58594  0.85027  0.93392  1.0000
  C   C641      1.0  0.35974  0.96801  0.61442  1.0000
  H   H508      1.0  0.38151  0.93866  0.81980  1.0000
  H   H509      1.0  0.54915  0.92683  0.61821  1.0000
  H   H510      1.0  0.59251  0.76422  0.80502  1.0000
  C   C642      1.0  0.48248  0.96467  0.63842  1.0000
  C   C643      1.0  0.52988  0.94242  0.61494  1.0000
  C   C644      1.0  0.46672  0.97305  0.83091  1.0000
  H   H511      1.0  0.57700  0.94818  0.82178  1.0000
  H   H512      1.0  0.42210  0.90050  0.92041  1.0000
  H   H513      1.0  0.50411  0.90979  0.77276  1.0000
  H   H514      1.0  0.62941  0.86980  0.91812  1.0000
  C   C645      1.0  0.59379  0.64520  0.71201  1.0000
  C   C646      1.0  0.46063  0.87749  0.97623  1.0000
  H   H515      1.0  0.49930  0.95322  0.72913  1.0000
  C   C647      1.0  0.54368  0.85826  0.89200  1.0000
  H   H516      1.0  0.55135  0.58735  0.67437  1.0000
  C   C648      1.0  0.50770  0.94478  0.64256  1.0000
  C   C649      1.0  0.55511  0.84573  0.92442  1.0000
  C   C650      1.0  0.32791  0.56622  0.84050  1.0000
  C   C651      1.0  0.64973  0.98958  0.85626  1.0000
  H   H517      1.0  0.58081  0.96629  0.95804  1.0000
  C   C652      1.0  0.38330  0.81269  0.98427  1.0000
  H   H518      1.0  0.62583  0.92485  0.92342  1.0000
  C   C653      1.0  0.63223  0.94258  0.90426  1.0000
  S   S79       1.0  0.65282  0.85200  0.66294  1.0000
  H   H519      1.0  0.37053  0.98196  0.89908  1.0000
  C   C654      1.0  0.49850  0.93369  0.97546  1.0000
  H   H520      1.0  0.57326  0.91035  0.96849  1.0000
  S   S80       1.0  0.33250  0.75212  0.81581  1.0000
  C   C655      1.0  0.64444  0.72350  0.57825  1.0000
  C   C656      1.0  0.65338  0.94304  0.72800  1.0000
  C   C657      1.0  0.65255  0.84528  0.84473  1.0000
  C   C658      1.0  0.55364  0.92567  0.96859  1.0000
  H   H521      1.0  0.65721  0.64039  0.72385  1.0000
  H   H522      1.0  0.52149  0.88960  0.98045  1.0000
  H   H523      1.0  0.65924  0.71795  0.55531  1.0000
  C   C659      1.0  0.36577  0.99012  0.64125  1.0000
  C   C660      1.0  0.39387  0.99002  0.65986  1.0000
  H   H524      1.0  0.49939  0.99246  0.55335  1.0000
  C   C661      1.0  0.35579  0.99269  0.74089  1.0000
  Fe  Fe40      1.0  0.70441  0.13270  0.21719  1.0000
  C   C662      1.0  0.95839  0.46718  0.18366  1.0000
  S   S81       1.0  0.75156  0.14982  0.23903  1.0000
  H   H525      1.0  0.87101  0.16505  0.25870  1.0000
  H   H526      1.0  0.86177  0.25801  0.25833  1.0000
  C   C663      1.0  0.76335  0.37420  0.15886  1.0000
  C   C664      1.0  0.78526  0.39069  0.29956  1.0000
  S   S82       1.0  0.70251  0.09814  0.17043  1.0000
  H   H527      1.0  0.69198  0.07954  0.42745  1.0000
  Fe  Fe41      1.0  0.87485  0.33148  0.39654  1.0000
  S   S83       1.0  0.87941  0.28373  0.37299  1.0000
  S   S84       1.0  0.87019  0.34799  0.45616  1.0000
  Fe  Fe42      1.0  0.88193  0.36231  0.32020  1.0000
  S   S85       1.0  0.88636  0.31650  0.29177  1.0000
  S   S86       1.0  0.89416  0.40315  0.28357  1.0000
  Fe  Fe43      1.0  0.84751  0.29985  0.32787  1.0000
  S   S87       1.0  0.80269  0.27756  0.30577  1.0000
  Fe  Fe44      1.0  0.91777  0.30405  0.33813  1.0000
  S   S88       1.0  0.96574  0.28320  0.33193  1.0000
  S   S89       1.0  0.84097  0.34706  0.35330  1.0000
  S   S90       1.0  0.91513  0.35025  0.36484  1.0000
  P   P24       1.0  0.90241  0.21527  0.21808  1.0000
  H   H528      1.0  0.76284  0.36338  0.18544  1.0000
  H   H529      1.0  0.92194  0.23315  0.34937  1.0000
  S   S91       1.0  0.67262  0.10419  0.25267  1.0000
  H   H530      1.0  0.87472  0.28302  0.47891  1.0000
  C   C665      1.0  0.76523  0.18574  0.25717  1.0000
  C   C666      1.0  0.74665  0.21194  0.25964  1.0000
  C   C667      1.0  0.75853  0.23966  0.27447  1.0000
  C   C668      1.0  0.78915  0.24179  0.28706  1.0000
  C   C669      1.0  0.80771  0.21561  0.28457  1.0000
  C   C670      1.0  0.79587  0.18788  0.26972  1.0000
  H   H531      1.0  0.72308  0.21087  0.25018  1.0000
  H   H532      1.0  0.74381  0.25963  0.27626  1.0000
  H   H533      1.0  0.83106  0.21675  0.29451  1.0000
  H   H534      1.0  0.81050  0.16784  0.26819  1.0000
  H   H535      1.0  0.96092  0.19188  0.24557  1.0000
  C   C671      1.0  0.76851  0.21305  0.03137  1.0000
  C   C672      1.0  0.87136  0.25020  0.16610  1.0000
  S   S92       1.0  0.66581  0.16125  0.19441  1.0000
  C   C673      1.0  0.96874  0.43000  0.38756  1.0000
  H   H536      1.0  0.66776  0.04917  0.30262  1.0000
  C   C674      1.0  0.88922  0.45975  0.25148  1.0000
  C   C675      1.0  0.87830  0.44058  0.27958  1.0000
  C   C676      1.0  0.85633  0.45206  0.30394  1.0000
  H   H537      1.0  0.96318  0.32080  0.26534  1.0000
  C   C677      1.0  0.70232  0.16004  0.32816  1.0000
  H   H538      1.0  0.90626  0.45111  0.23264  1.0000
  H   H539      1.0  0.84807  0.43771  0.32605  1.0000
  C   C678      1.0  0.86176  0.44884  0.16409  1.0000
  H   H540      1.0  0.74074  0.12993  0.33588  1.0000
  C   C679      1.0  0.73966  0.36751  0.13417  1.0000
  H   H541      1.0  0.78484  0.46102  0.17554  1.0000
  C   C680      1.0  0.90912  0.13717  0.15537  1.0000
  H   H542      1.0  0.87921  0.43119  0.16564  1.0000
  H   H543      1.0  0.92841  0.41584  0.35750  1.0000
  H   H544      1.0  0.86696  0.15359  0.32431  1.0000
  H   H545      1.0  0.81807  0.30730  0.17129  1.0000
  H   H546      1.0  0.78827  0.34208  0.28888  1.0000
  C   C681      1.0  0.74336  0.20362  0.05251  1.0000
  H   H547      1.0  0.73374  0.09590  0.28200  1.0000
  C   C682      1.0  0.78672  0.40806  0.11407  1.0000
  C   C683      1.0  0.78699  0.39476  0.14915  1.0000
  P   P25       1.0  0.81844  0.40293  0.18020  1.0000
  C   C684      1.0  0.80558  0.39853  0.22711  1.0000
  C   C685      1.0  0.84958  0.37652  0.17086  1.0000
  C   C686      1.0  0.85586  0.36699  0.13489  1.0000
  C   C687      1.0  0.88074  0.34749  0.12770  1.0000
  H   H548      1.0  0.77467  0.08576  0.49143  1.0000
  H   H549      1.0  0.84407  0.18671  0.19788  1.0000
  C   C688      1.0  0.86870  0.36643  0.19934  1.0000
  C   C689      1.0  0.79983  0.42421  0.24945  1.0000
  C   C690      1.0  0.78948  0.42024  0.28541  1.0000
  C   C691      1.0  0.80135  0.36891  0.24171  1.0000
  C   C692      1.0  0.83076  0.44202  0.17145  1.0000
  C   C693      1.0  0.80887  0.46574  0.16991  1.0000
  H   H550      1.0  0.96591  0.41260  0.40854  1.0000
  C   C694      1.0  0.87990  0.17354  0.31533  1.0000
  C   C695      1.0  0.83422  0.28990  0.18019  1.0000
  H   H551      1.0  0.94072  0.16938  0.17924  1.0000
  H   H552      1.0  0.80485  0.42368  0.10563  1.0000
  H   H553      1.0  0.84184  0.37483  0.11231  1.0000
  H   H554      1.0  0.88556  0.34032  0.09988  1.0000
  H   H555      1.0  0.92717  0.12316  0.14357  1.0000
  C   C696      1.0  0.87055  0.47884  0.15478  1.0000
  H   H556      1.0  0.86460  0.37372  0.22718  1.0000
  H   H557      1.0  0.80393  0.44737  0.23984  1.0000
  H   H558      1.0  0.78555  0.44017  0.30261  1.0000
  H   H559      1.0  0.80605  0.34875  0.22532  1.0000
  H   H560      1.0  0.71665  0.17946  0.32049  1.0000
  H   H561      1.0  0.82573  0.29762  0.23754  1.0000
  H   H562      1.0  0.95392  0.45825  0.15648  1.0000
  H   H563      1.0  0.80602  0.07878  0.43528  1.0000
  H   H564      1.0  0.78085  0.07202  0.37545  1.0000
  H   H565      1.0  0.70326  0.01935  0.40699  1.0000
  C   C697      1.0  0.76297  0.40135  0.08948  1.0000
  H   H566      1.0  0.74485  0.20351  0.08214  1.0000
  C   C698      1.0  0.71589  0.13182  0.33673  1.0000
  H   H567      1.0  0.76282  0.41190  0.06261  1.0000
  C   C699      1.0  0.79119  0.36503  0.27770  1.0000
  C   C700      1.0  0.94884  0.25401  0.19048  1.0000
  H   H568      1.0  0.75527  0.01601  0.34718  1.0000
  C   C701      1.0  0.85497  0.14686  0.16574  1.0000
  H   H569      1.0  0.77790  0.38764  0.32768  1.0000
  H   H570      1.0  0.76912  0.07832  0.23458  1.0000
  H   H571      1.0  0.90819  0.33954  0.21445  1.0000
  H   H572      1.0  0.80780  0.00418  0.43020  1.0000
  C   C702      1.0  0.69747  0.10607  0.34472  1.0000
  P   P26       1.0  0.71530  0.06932  0.35378  1.0000
  H   H573      1.0  0.93448  0.45487  0.30982  1.0000
  C   C703      1.0  0.73444  0.07404  0.39726  1.0000
  C   C704      1.0  0.71688  0.07880  0.42901  1.0000
  C   C705      1.0  0.73135  0.08274  0.46290  1.0000
  H   H574      1.0  0.80697  0.24589  0.49501  1.0000
  C   C706      1.0  0.78111  0.07838  0.43360  1.0000
  C   C707      1.0  0.76671  0.07436  0.39968  1.0000
  Fe  Fe45      1.0  0.66788  0.07214  0.20488  1.0000
  C   C708      1.0  0.83860  0.28456  0.21750  1.0000
  H   H575      1.0  0.97494  0.36453  0.32174  1.0000
  C   C709      1.0  0.97542  0.47531  0.33322  1.0000
  C   C710      1.0  0.95110  0.45405  0.33178  1.0000
  C   C711      1.0  0.74244  0.05782  0.31891  1.0000
  C   C712      1.0  0.75871  0.03017  0.32313  1.0000
  C   C713      1.0  0.77881  0.02007  0.29573  1.0000
  C   C714      1.0  0.78269  0.03741  0.26387  1.0000
  C   C715      1.0  0.76653  0.06490  0.25944  1.0000
  C   C716      1.0  0.74640  0.07499  0.28673  1.0000
  C   C717      1.0  0.86246  0.17319  0.18586  1.0000
  C   C718      1.0  0.85928  0.26206  0.22925  1.0000
  C   C719      1.0  0.91052  0.21852  0.32950  1.0000
  C   C720      1.0  0.94766  0.43170  0.35885  1.0000
  C   C721      1.0  0.87603  0.24490  0.20363  1.0000
  H   H576      1.0  0.91896  0.32257  0.15080  1.0000
  H   H577      1.0  0.93095  0.26732  0.17758  1.0000
  H   H578      1.0  0.97987  0.34038  0.38286  1.0000
  H   H579      1.0  0.87242  0.10843  0.13488  1.0000
  C   C722      1.0  0.85058  0.27268  0.15445  1.0000
  H   H580      1.0  0.83102  0.14034  0.16226  1.0000
  H   H581      1.0  0.84706  0.27668  0.12551  1.0000
  C   C723      1.0  0.89826  0.20653  0.26618  1.0000
  H   H582      1.0  0.71065  0.01785  0.26063  1.0000
  H   H583      1.0  0.88377  0.23686  0.14587  1.0000
  C   C724      1.0  0.84481  0.48218  0.29942  1.0000
  H   H584      1.0  0.82750  0.49080  0.31805  1.0000
  H   H585      1.0  0.71766  0.08639  0.48731  1.0000
  C   C725      1.0  0.89410  0.19265  0.34108  1.0000
  H   H586      1.0  0.66805  0.07957  0.06780  1.0000
  H   H587      1.0  0.92497  0.24602  0.28393  1.0000
  C   C726      1.0  0.96580  0.21178  0.22869  1.0000
  C   C727      1.0  0.68719  0.03863  0.35574  1.0000
  C   C728      1.0  0.68717  0.01732  0.38464  1.0000
  H   H588      1.0  0.98374  0.44368  0.26691  1.0000
  C   C729      1.0  0.88215  0.18026  0.27798  1.0000
  C   C730      1.0  0.91230  0.22567  0.29228  1.0000
  H   H589      1.0  0.79777  0.02932  0.24232  1.0000
  C   C731      1.0  0.89341  0.18170  0.19095  1.0000
  C   C732      1.0  0.98664  0.31322  0.26922  1.0000
  C   C733      1.0  0.89355  0.34700  0.19213  1.0000
  C   C734      1.0  0.87828  0.12887  0.15043  1.0000
  H   H590      1.0  0.69684  0.18635  0.05183  1.0000
  C   C735      1.0  0.97485  0.45912  0.24623  1.0000
  C   C736      1.0  0.76346  0.08243  0.46521  1.0000
  C   C737      1.0  0.66299  0.09307  0.04368  1.0000
  C   C738      1.0  0.71624  0.19403  0.03543  1.0000
  H   H591      1.0  0.89239  0.18752  0.37002  1.0000
  C   C739      1.0  0.69911  0.99580  0.26068  1.0000
  C   C740      1.0  0.91672  0.16345  0.17565  1.0000
  C   C741      1.0  0.73943  0.38110  0.09953  1.0000
  H   H592      1.0  0.97368  0.42361  0.20513  1.0000
  H   H593      1.0  0.79071  0.99833  0.29873  1.0000
  H   H594      1.0  0.72139  0.35179  0.14198  1.0000
  C   C742      1.0  0.89959  0.33751  0.15632  1.0000
  C   C743      1.0  0.96951  0.44769  0.21100  1.0000
  H   H595      1.0  0.75211  0.01218  0.44130  1.0000
  H   H596      1.0  0.78954  0.22041  0.04468  1.0000
  C   C744      1.0  0.94181  0.22768  0.21121  1.0000
  H   H597      1.0  0.72099  0.37596  0.08049  1.0000
  C   C745      1.0  0.66417  0.07938  0.00859  1.0000
  C   C746      1.0  0.66709  0.03402  0.32615  1.0000
  Fe  Fe46      1.0  0.66188  0.12523  0.14964  1.0000
  C   C747      1.0  0.67031  0.16298  0.32835  1.0000
  C   C748      1.0  0.97936  0.26398  0.18704  1.0000
  C   C749      1.0  0.66535  0.10956  0.34641  1.0000
  H   H598      1.0  0.67015  0.05532  0.00614  1.0000
  H   H599      1.0  0.98477  0.28460  0.17167  1.0000
  C   C750      1.0  0.87826  0.48999  0.24747  1.0000
  C   C751      1.0  0.96877  0.49010  0.25446  1.0000
  H   H600      1.0  0.65974  0.18458  0.32057  1.0000
  H   H601      1.0  0.89438  0.48411  0.14904  1.0000
  H   H602      1.0  0.83056  0.37083  0.60880  1.0000
  H   H603      1.0  0.88533  0.22456  0.65705  1.0000
  Fe  Fe47      1.0  0.67948  0.13280  0.80871  1.0000
  C   C752      1.0  0.98229  0.40358  0.66108  1.0000
  S   S93       1.0  0.72343  0.15657  0.78636  1.0000
  H   H604      1.0  0.72095  0.11739  0.59805  1.0000
  C   C753      1.0  0.69164  0.47140  0.62066  1.0000
  S   S94       1.0  0.68656  0.08408  0.82952  1.0000
  H   H605      1.0  0.83328  0.26128  0.84850  1.0000
  Fe  Fe48      1.0  0.87367  0.36163  0.72036  1.0000
  S   S95       1.0  0.87063  0.33396  0.77203  1.0000
  S   S96       1.0  0.87777  0.41362  0.71372  1.0000
  Fe  Fe49      1.0  0.87764  0.30454  0.67147  1.0000
  S   S97       1.0  0.87590  0.27233  0.72028  1.0000
  S   S98       1.0  0.88059  0.28372  0.61377  1.0000
  Fe  Fe50      1.0  0.83799  0.30239  0.74156  1.0000
  S   S99       1.0  0.79253  0.28699  0.76887  1.0000
  Fe  Fe51      1.0  0.90870  0.30562  0.74730  1.0000
  S   S100      1.0  0.94742  0.29145  0.78580  1.0000
  S   S101      1.0  0.83783  0.33294  0.69129  1.0000
  S   S102      1.0  0.91355  0.33500  0.69721  1.0000
  C   C754      1.0  0.87685  0.33397  0.56652  1.0000
  C   C755      1.0  0.87796  0.30198  0.57015  1.0000
  C   C756      1.0  0.87725  0.28377  0.53823  1.0000
  H   H606      1.0  0.87811  0.34817  0.59073  1.0000
  H   H607      1.0  0.87826  0.25900  0.54067  1.0000
  C   C757      1.0  0.77355  0.25048  0.77248  1.0000
  C   C758      1.0  0.78859  0.22263  0.76569  1.0000
  C   C759      1.0  0.77295  0.19433  0.77061  1.0000
  C   C760      1.0  0.74193  0.19330  0.78185  1.0000
  C   C761      1.0  0.72679  0.22118  0.78829  1.0000
  C   C762      1.0  0.74256  0.24948  0.78390  1.0000
  H   H608      1.0  0.81246  0.22287  0.75726  1.0000
  H   H609      1.0  0.78506  0.17300  0.76588  1.0000
  H   H610      1.0  0.70288  0.22101  0.79631  1.0000
  H   H611      1.0  0.73059  0.27079  0.78928  1.0000
  C   C763      1.0  0.72676  0.29853  0.68958  1.0000
  H   H612      1.0  0.82942  0.19948  0.52387  1.0000
  H   H613      1.0  0.71594  0.31870  0.70119  1.0000
  H   H614      1.0  0.98137  0.31124  0.72108  1.0000
  H   H615      1.0  0.88114  0.47901  0.70987  1.0000
  C   C764      1.0  0.97268  0.46176  0.81096  1.0000
  C   C765      1.0  0.87606  0.47323  0.73797  1.0000
  C   C766      1.0  0.87254  0.44217  0.74778  1.0000
  C   C767      1.0  0.86493  0.43485  0.78392  1.0000
  C   C768      1.0  0.86090  0.45849  0.80993  1.0000
  C   C769      1.0  0.96025  0.46925  0.70221  1.0000
  C   C770      1.0  0.86705  0.18955  0.69282  1.0000
  H   H616      1.0  0.86198  0.41104  0.79179  1.0000
  H   H617      1.0  0.85465  0.45268  0.83775  1.0000
  C   C771      1.0  0.80962  0.20410  0.66211  1.0000
  H   H618      1.0  0.79206  0.16837  0.69801  1.0000
  H   H619      1.0  0.94598  0.39426  0.72601  1.0000
  H   H620      1.0  0.96368  0.43852  0.81064  1.0000
  H   H621      1.0  0.75807  0.43109  0.61273  1.0000
  C   C772      1.0  0.87527  0.29733  0.50313  1.0000
  H   H622      1.0  0.73644  0.18966  0.70162  1.0000
  C   C773      1.0  0.74047  0.44491  0.62561  1.0000
  C   C774      1.0  0.73394  0.10609  0.92450  1.0000
  C   C775      1.0  0.74541  0.09916  0.88979  1.0000
  C   C776      1.0  0.70093  0.21650  0.91082  1.0000
  C   C777      1.0  0.75090  0.15354  0.87705  1.0000
  C   C778      1.0  0.73993  0.16078  0.91220  1.0000
  C   C779      1.0  0.73099  0.13671  0.93563  1.0000
  P   P27       1.0  0.73702  0.20064  0.92630  1.0000
  H   H623      1.0  0.78647  0.21982  0.97734  1.0000
  H   H624      1.0  0.79793  0.26917  0.67394  1.0000
  H   H625      1.0  0.77266  0.31529  0.69893  1.0000
  C   C780      1.0  0.80290  0.20384  0.57350  1.0000
  C   C781      1.0  0.73955  0.20278  0.97571  1.0000
  C   C782      1.0  0.68973  0.20914  0.87591  1.0000
  C   C783      1.0  0.78604  0.26345  0.86596  1.0000
  C   C784      1.0  0.70983  0.12796  0.65407  1.0000
  H   H626      1.0  0.69366  0.24509  0.95875  1.0000
  H   H627      1.0  0.83324  0.47475  0.66485  1.0000
  H   H628      1.0  0.97246  0.44603  0.63234  1.0000
  C   C785      1.0  0.76824  0.24739  0.57605  1.0000
  C   C786      1.0  0.76812  0.22143  0.90443  1.0000
  C   C787      1.0  0.76248  0.24907  0.88567  1.0000
  H   H629      1.0  0.87476  0.45845  0.62362  1.0000
  C   C788      1.0  0.84061  0.17396  0.70431  1.0000
  C   C789      1.0  0.86490  0.21223  0.66591  1.0000
  C   C790      1.0  0.75374  0.12289  0.86601  1.0000
  H   H630      1.0  0.92887  0.48211  0.79864  1.0000
  H   H631      1.0  0.94278  0.45210  0.69612  1.0000
  H   H632      1.0  0.73979  0.25924  0.88525  1.0000
  C   C791      1.0  0.96994  0.42127  0.63249  1.0000
  H   H633      1.0  0.72158  0.14111  0.96245  1.0000
  H   H634      1.0  0.88918  0.18433  0.70498  1.0000
  C   C792      1.0  0.87449  0.34753  0.53150  1.0000
  H   H635      1.0  0.71291  0.44619  0.57663  1.0000
  C   C793      1.0  0.71977  0.47229  0.67789  1.0000
  H   H636      1.0  0.87340  0.37230  0.52909  1.0000
  C   C794      1.0  0.69412  0.48078  0.65714  1.0000
  C   C795      1.0  0.81205  0.18097  0.68880  1.0000
  H   H637      1.0  0.75439  0.16283  0.58979  1.0000
  C   C796      1.0  0.95613  0.37640  0.77929  1.0000
  C   C797      1.0  0.82134  0.22323  0.88377  1.0000
  C   C798      1.0  0.79784  0.20876  0.90357  1.0000
  H   H638      1.0  0.68394  0.27578  0.67733  1.0000
  C   C799      1.0  0.77304  0.27029  0.67420  1.0000
  H   H639      1.0  0.78669  0.45150  0.76921  1.0000
  H   H640      1.0  0.72131  0.47967  0.70618  1.0000
  H   H641      1.0  0.69540  0.10782  0.65784  1.0000
  H   H642      1.0  0.84220  0.15653  0.72540  1.0000
  H   H643      1.0  0.97277  0.35974  0.83104  1.0000
  H   H644      1.0  0.75704  0.17153  0.85786  1.0000
  H   H645      1.0  0.70854  0.22995  0.65081  1.0000
  H   H646      1.0  0.74705  0.07541  0.88097  1.0000
  C   C800      1.0  0.74326  0.45446  0.66221  1.0000
  C   C801      1.0  0.77731  0.25593  0.54073  1.0000
  P   P28       1.0  0.77599  0.44340  0.68967  1.0000
  H   H647      1.0  0.84404  0.21304  0.88246  1.0000
  C   C802      1.0  0.76659  0.41068  0.71805  1.0000
  C   C803      1.0  0.79034  0.39426  0.73516  1.0000
  C   C804      1.0  0.78358  0.36879  0.75706  1.0000
  C   C805      1.0  0.75310  0.35944  0.76200  1.0000
  C   C806      1.0  0.72928  0.37573  0.74521  1.0000
  C   C807      1.0  0.73595  0.40127  0.72325  1.0000
  H   H648      1.0  0.75179  0.26165  0.59034  1.0000
  H   H649      1.0  0.76171  0.11762  0.83860  1.0000
  H   H650      1.0  0.70201  0.19319  0.85844  1.0000
  C   C808      1.0  0.80737  0.43219  0.66004  1.0000
  C   C809      1.0  0.80722  0.40271  0.64423  1.0000
  C   C810      1.0  0.83086  0.39368  0.62067  1.0000
  C   C811      1.0  0.85507  0.41385  0.61298  1.0000
  C   C812      1.0  0.85555  0.44316  0.62876  1.0000
  H   H651      1.0  0.72662  0.08770  0.94257  1.0000
  C   C813      1.0  0.71426  0.19378  0.99724  1.0000
  C   C814      1.0  0.83630  0.21982  0.65105  1.0000
  H   H652      1.0  0.93872  0.36383  0.58074  1.0000
  H   H653      1.0  0.81365  0.18407  0.58618  1.0000
  H   H654      1.0  0.81413  0.40118  0.73161  1.0000
  H   H655      1.0  0.80203  0.35609  0.77006  1.0000
  H   H656      1.0  0.74809  0.33941  0.77870  1.0000
  H   H657      1.0  0.70565  0.36849  0.74922  1.0000
  H   H658      1.0  0.71718  0.41347  0.71045  1.0000
  H   H659      1.0  0.93320  0.36711  0.78318  1.0000
  C   C815      1.0  0.83181  0.45235  0.65221  1.0000
  H   H660      1.0  0.83512  0.23792  0.63075  1.0000
  H   H661      1.0  0.78886  0.38658  0.65018  1.0000
  C   C816      1.0  0.81194  0.21251  0.53822  1.0000
  H   H662      1.0  0.87371  0.40658  0.59530  1.0000
  C   C817      1.0  0.95110  0.37496  0.60289  1.0000
  C   C818      1.0  0.79931  0.23866  0.52194  1.0000
  C   C819      1.0  0.71421  0.14842  0.68310  1.0000
  H   H663      1.0  0.70335  0.14412  0.70939  1.0000
  C   C820      1.0  0.72427  0.13336  0.62046  1.0000
  C   C821      1.0  0.74324  0.15918  0.61589  1.0000
  C   C822      1.0  0.74767  0.17988  0.64494  1.0000
  C   C823      1.0  0.73301  0.17426  0.67859  1.0000
  P   P29       1.0  0.77319  0.21257  0.64041  1.0000
  C   C824      1.0  0.78125  0.22143  0.59293  1.0000
  C   C825      1.0  0.75516  0.24576  0.66099  1.0000
  C   C826      1.0  0.72290  0.24818  0.66165  1.0000
  C   C827      1.0  0.70880  0.27432  0.67627  1.0000
  C   C828      1.0  0.75879  0.29664  0.68817  1.0000
  C   C829      1.0  0.81537  0.25045  0.86475  1.0000
  H   H664      1.0  0.67181  0.47805  0.60454  1.0000
  H   H665      1.0  0.76789  0.27645  0.52821  1.0000
  H   H666      1.0  0.78139  0.28425  0.85056  1.0000
  H   H667      1.0  0.80259  0.18723  0.91736  1.0000
  C   C830      1.0  0.71479  0.45345  0.60494  1.0000
  C   C831      1.0  0.96363  0.39143  0.74668  1.0000
  C   C832      1.0  0.78874  0.47355  0.75576  1.0000
  H   H668      1.0  0.96169  0.33235  0.63006  1.0000
  H   H669      1.0  0.69470  0.01021  0.77871  1.0000
  C   C833      1.0  0.95415  0.40698  0.60369  1.0000
  C   C834      1.0  0.98657  0.30133  0.77832  1.0000
  C   C835      1.0  0.78598  0.47630  0.71760  1.0000
  C   C836      1.0  0.97975  0.37141  0.65962  1.0000
  C   C837      1.0  0.97840  0.37247  0.80642  1.0000
  C   C838      1.0  0.96413  0.35719  0.63067  1.0000
  H   H670      1.0  0.98960  0.35730  0.68102  1.0000
  H   H671      1.0  0.94424  0.42067  0.58194  1.0000
  C   C839      1.0  0.68494  0.23804  0.93230  1.0000
  C   C840      1.0  0.66243  0.22230  0.86312  1.0000
  C   C841      1.0  0.76666  0.21263  0.99310  1.0000
  C   C842      1.0  0.86495  0.48958  0.80026  1.0000
  H   H672      1.0  0.69313  0.18595  0.98447  1.0000
  C   C843      1.0  0.95296  0.48637  0.80416  1.0000
  C   C844      1.0  0.87374  0.32936  0.49952  1.0000
  C   C845      1.0  0.99136  0.46089  0.70538  1.0000
  S   S103      1.0  0.70604  0.83149  0.35842  1.0000
  S   S104      1.0  0.73062  0.75278  0.31047  1.0000
  S   S105      1.0  0.70887  0.91371  0.31350  1.0000
  Fe  Fe52      1.0  0.85723  0.64315  0.20556  1.0000
  S   S106      1.0  0.89769  0.63853  0.16633  1.0000
  S   S107      1.0  0.83146  0.68958  0.20515  1.0000
  Fe  Fe53      1.0  0.86154  0.57520  0.22838  1.0000
  S   S108      1.0  0.90068  0.56614  0.19033  1.0000
  S   S109      1.0  0.84031  0.53881  0.26583  1.0000
  Fe  Fe54      1.0  0.92046  0.61079  0.21097  1.0000
  S   S110      1.0  0.97221  0.60370  0.21835  1.0000
  Fe  Fe55      1.0  0.87554  0.59435  0.14851  1.0000
  S   S111      1.0  0.87102  0.57454  0.09064  1.0000
  S   S112      1.0  0.88216  0.61883  0.25156  1.0000
  S   S113      1.0  0.83413  0.59990  0.18515  1.0000
  C   C846      1.0  0.88122  0.59250  0.04850  1.0000
  C   C847      1.0  0.89801  0.61997  0.04723  1.0000
  C   C848      1.0  0.68502  0.80937  0.47615  1.0000
  H   H673      1.0  0.90483  0.63100  0.07248  1.0000
  H   H674      1.0  0.87786  0.68674  0.10724  1.0000
  H   H675      1.0  0.88698  0.50447  0.22582  1.0000
  C   C849      1.0  0.82439  0.74298  0.06824  1.0000
  H   H676      1.0  0.96971  0.70624  0.07129  1.0000
  C   C850      1.0  0.82342  0.67547  0.06666  1.0000
  C   C851      1.0  0.93363  0.71988  0.03426  1.0000
  H   H677      1.0  0.93983  0.56807  0.07555  1.0000
  C   C852      1.0  0.75804  0.73552  0.28004  1.0000
  C   C853      1.0  0.77079  0.70676  0.28938  1.0000
  C   C854      1.0  0.79289  0.69223  0.26677  1.0000
  C   C855      1.0  0.80279  0.70631  0.23437  1.0000
  C   C856      1.0  0.78985  0.73495  0.22483  1.0000
  C   C857      1.0  0.76761  0.74942  0.24736  1.0000
  H   H678      1.0  0.76368  0.69569  0.31451  1.0000
  H   H679      1.0  0.80250  0.67029  0.27467  1.0000
  H   H680      1.0  0.79725  0.74617  0.19991  1.0000
  H   H681      1.0  0.75819  0.77149  0.23967  1.0000
  C   C858      1.0  0.82088  0.64793  0.04672  1.0000
  C   C859      1.0  0.96127  0.57899  0.08362  1.0000
  H   H682      1.0  0.96739  0.60196  0.03199  1.0000
  H   H683      1.0  0.73254  0.86193  0.42680  1.0000
  C   C860      1.0  0.81463  0.67579  0.10371  1.0000
  H   H684      1.0  0.82875  0.64638  0.01873  1.0000
  C   C861      1.0  0.93484  0.58856  0.31455  1.0000
  C   C862      1.0  0.90586  0.58004  0.32767  1.0000
  C   C863      1.0  0.89840  0.54897  0.33150  1.0000
  C   C864      1.0  0.92003  0.52638  0.32281  1.0000
  C   C865      1.0  0.94955  0.53470  0.31056  1.0000
  C   C866      1.0  0.95647  0.56603  0.30565  1.0000
  H   H685      1.0  0.84585  0.81217  0.10443  1.0000
  H   H686      1.0  0.81772  0.69615  0.12046  1.0000
  C   C867      1.0  0.67372  0.99106  0.23782  1.0000
  H   H687      1.0  0.80029  0.91161  0.46982  1.0000
  C   C868      1.0  0.74445  0.96625  0.46165  1.0000
  H   H688      1.0  0.71826  0.91836  0.41082  1.0000
  C   C869      1.0  0.90639  0.63291  0.01322  1.0000
  C   C870      1.0  0.66961  0.91154  0.40642  1.0000
  H   H689      1.0  0.75814  0.81235  0.41700  1.0000
  C   C871      1.0  0.97681  0.59823  0.05914  1.0000
  C   C872      1.0  0.79291  0.74397  0.07698  1.0000
  H   H690      1.0  0.66945  0.91541  0.37711  1.0000
  H   H691      1.0  0.91319  0.50257  0.32513  1.0000
  H   H692      1.0  0.95355  0.53372  0.23239  1.0000
  H   H693      1.0  0.69765  0.80457  0.45130  1.0000
  C   C873      1.0  0.76262  0.82528  0.44186  1.0000
  C   C874      1.0  0.66983  0.93813  0.26068  1.0000
  C   C875      1.0  0.89313  0.69598  0.08654  1.0000
  C   C876      1.0  0.94514  0.70703  0.06653  1.0000
  P   P30       1.0  0.73432  0.90672  0.48762  1.0000
  H   H694      1.0  0.88878  0.59745  0.33367  1.0000
  C   C877      1.0  0.75320  0.87020  0.47998  1.0000
  Fe  Fe56      1.0  0.68766  0.86559  0.31713  1.0000
  C   C878      1.0  0.79981  0.79380  0.10559  1.0000
  H   H695      1.0  0.98866  0.64750  0.15457  1.0000
  C   C879      1.0  0.79953  0.62227  0.09983  1.0000
  C   C880      1.0  0.70950  0.97190  0.28371  1.0000
  C   C881      1.0  0.69730  0.91322  0.42575  1.0000
  H   H696      1.0  0.85994  0.55697  0.01591  1.0000
  H   H697      1.0  0.96048  0.56027  0.13814  1.0000
  H   H698      1.0  0.83168  0.95383  0.44465  1.0000
  C   C882      1.0  0.66753  0.71205  0.27365  1.0000
  H   H699      1.0  0.79042  0.81318  0.12055  1.0000
  H   H700      1.0  0.85550  0.52558  0.14654  1.0000
  H   H701      1.0  0.77788  0.72495  0.06988  1.0000
  H   H702      1.0  0.87543  0.54235  0.34006  1.0000
  C   C883      1.0  0.75782  0.93766  0.46988  1.0000
  C   C884      1.0  0.80734  0.95737  0.44955  1.0000
  C   C885      1.0  0.66904  0.73611  0.24839  1.0000
  H   H703      1.0  0.80781  0.60011  0.04807  1.0000
  C   C886      1.0  0.95268  0.49812  0.19154  1.0000
  H   H704      1.0  0.89342  0.73100  0.00302  1.0000
  Fe  Fe57      1.0  0.69888  0.79533  0.31445  1.0000
  C   C887      1.0  0.69495  0.94298  0.28386  1.0000
  H   H705      1.0  0.97836  0.57327  0.29447  1.0000
  H   H706      1.0  0.69119  0.74343  0.23776  1.0000
  H   H707      1.0  0.79450  0.74308  0.00147  1.0000
  C   C888      1.0  0.80885  0.62151  0.06326  1.0000
  C   C889      1.0  0.88140  0.70832  0.05390  1.0000
  H   H708      1.0  0.72010  0.96995  0.46613  1.0000
  C   C890      1.0  0.92489  0.69525  0.09272  1.0000
  H   H709      1.0  0.68861  0.70097  0.28247  1.0000
  H   H710      1.0  0.91954  0.65404  0.01261  1.0000
  H   H711      1.0  0.93371  0.68537  0.11783  1.0000
  H   H712      1.0  0.86766  0.76775  0.07156  1.0000
  S   S114      1.0  0.68427  0.83021  0.27213  1.0000
  C   C891      1.0  0.67059  0.89891  0.48146  1.0000
  C   C892      1.0  0.81788  0.49579  0.16132  1.0000
  H   H713      1.0  0.72898  0.97566  0.30145  1.0000
  C   C893      1.0  0.95790  0.50960  0.22678  1.0000
  C   C894      1.0  0.80236  0.64943  0.12000  1.0000
  C   C895      1.0  0.83105  0.79319  0.09654  1.0000
  H   H714      1.0  0.79097  0.60155  0.11283  1.0000
  C   C896      1.0  0.87285  0.57828  0.01532  1.0000
  C   C897      1.0  0.69802  0.90699  0.46351  1.0000
  P   P31       1.0  0.84034  0.70937  0.04615  1.0000
  H   H715      1.0  0.75657  0.76958  0.10306  1.0000
  H   H716      1.0  0.80108  0.51417  0.16086  1.0000
  H   H717      1.0  0.97241  0.65324  0.27383  1.0000
  H   H718      1.0  0.97475  0.68487  0.20187  1.0000
  H   H719      1.0  0.79583  0.64998  0.14866  1.0000
  C   C898      1.0  0.97300  0.57438  0.11876  1.0000
  H   H720      1.0  0.94030  0.61263  0.31032  1.0000
  C   C899      1.0  0.90188  0.72076  0.02806  1.0000
  C   C900      1.0  0.78073  0.76924  0.09571  1.0000
  C   C901      1.0  0.74806  0.85353  0.44759  1.0000
  C   C902      1.0  0.84334  0.76791  0.07790  1.0000
  H   H721      1.0  0.94928  0.72901  0.01387  1.0000
  H   H722      1.0  0.79322  0.79124  0.46414  1.0000
  P   P32       1.0  0.97757  0.50551  0.29914  1.0000
  C   C903      1.0  0.84865  0.50228  0.15345  1.0000
  C   C904      1.0  0.78943  0.93342  0.46382  1.0000
  C   C905      1.0  0.78240  0.81340  0.46841  1.0000
  H   H723      1.0  0.66701  0.97593  0.40656  1.0000
  C   C906      1.0  0.79388  0.98572  0.44139  1.0000
  H   H724      1.0  0.94386  0.51323  0.17051  1.0000
  C   C907      1.0  0.85569  0.50127  0.27109  1.0000
  C   C908      1.0  0.76247  0.99019  0.44755  1.0000
  C   C909      1.0  0.66677  0.99238  0.38435  1.0000
  H   H725      1.0  0.81351  0.71013  0.89311  1.0000
  S   S115      1.0  0.71810  0.75555  0.76361  1.0000
  S   S116      1.0  0.72065  0.82542  0.68816  1.0000
  Fe  Fe58      1.0  0.93112  0.60649  0.80636  1.0000
  S   S117      1.0  0.88635  0.59420  0.77871  1.0000
  S   S118      1.0  0.97298  0.59718  0.76983  1.0000
  Fe  Fe59      1.0  0.89812  0.61959  0.87953  1.0000
  S   S119      1.0  0.85121  0.60826  0.85650  1.0000
  S   S120      1.0  0.90842  0.63665  0.93787  1.0000
  Fe  Fe60      1.0  0.87556  0.56796  0.82986  1.0000
  S   S121      1.0  0.85814  0.51853  0.83355  1.0000
  Fe  Fe61      1.0  0.86560  0.63576  0.80668  1.0000
  S   S122      1.0  0.83925  0.66988  0.76930  1.0000
  S   S123      1.0  0.92129  0.57773  0.85614  1.0000
  S   S124      1.0  0.91145  0.64964  0.83117  1.0000
  H   H726      1.0  0.89783  0.66798  0.68776  1.0000
  C   C910      1.0  0.89779  0.61883  0.97999  1.0000
  H   H727      1.0  0.71602  0.86462  0.54593  1.0000
  H   H728      1.0  0.94909  0.53543  0.79813  1.0000
  H   H729      1.0  0.87410  0.58026  0.95604  1.0000
  C   C911      1.0  0.94039  0.64364  0.69558  1.0000
  S   S125      1.0  0.70235  0.80618  0.58581  1.0000
  H   H730      1.0  0.98475  0.62234  0.69677  1.0000
  H   H731      1.0  0.91409  0.69083  0.62852  1.0000
  H   H732      1.0  0.66111  0.68651  0.61152  1.0000
  C   C912      1.0  0.87268  0.49684  0.76410  1.0000
  C   C913      1.0  0.75221  0.73225  0.76476  1.0000
  C   C914      1.0  0.77471  0.73332  0.73734  1.0000
  C   C915      1.0  0.80097  0.71412  0.73931  1.0000
  C   C916      1.0  0.80555  0.69381  0.76892  1.0000
  C   C917      1.0  0.78316  0.69291  0.79652  1.0000
  C   C918      1.0  0.75674  0.71190  0.79435  1.0000
  H   H733      1.0  0.77187  0.74889  0.71452  1.0000
  H   H734      1.0  0.81801  0.71518  0.71777  1.0000
  H   H735      1.0  0.78610  0.67746  0.81943  1.0000
  H   H736      1.0  0.73964  0.71077  0.81581  1.0000
  H   H737      1.0  0.97979  0.58636  0.63412  1.0000
  Fe  Fe62      1.0  0.69649  0.79022  0.72292  1.0000
  H   H738      1.0  0.68152  0.91542  0.82050  1.0000
  C   C919      1.0  0.72791  0.91224  0.53622  1.0000
  C   C920      1.0  0.88090  0.59141  0.98128  1.0000
  H   H739      1.0  0.69053  0.71847  0.66228  1.0000
  S   S126      1.0  0.66322  0.77770  0.67784  1.0000
  C   C921      1.0  0.70637  0.87304  0.81878  1.0000
  C   C922      1.0  0.70550  0.84128  0.82452  1.0000
  C   C923      1.0  0.67861  0.82741  0.83753  1.0000
  C   C924      1.0  0.81855  0.71018  0.92220  1.0000
  C   C925      1.0  0.79445  0.49955  0.77725  1.0000
  C   C926      1.0  0.68050  0.89104  0.82637  1.0000
  C   C927      1.0  0.73179  0.94120  0.55279  1.0000
  C   C928      1.0  0.96438  0.51641  0.80414  1.0000
  H   H740      1.0  0.72279  0.79775  0.51189  1.0000
  C   C929      1.0  0.96962  0.63728  0.68150  1.0000
  C   C930      1.0  0.79555  0.53132  0.72298  1.0000
  H   H741      1.0  0.78651  0.50823  0.67212  1.0000
  H   H742      1.0  0.73861  0.96101  0.53690  1.0000
  H   H743      1.0  0.96629  0.54574  0.72108  1.0000
  C   C931      1.0  0.71455  0.89072  0.59563  1.0000
  H   H744      1.0  0.78326  0.74300  0.93540  1.0000
  C   C932      1.0  0.71851  0.91950  0.61195  1.0000
  H   H745      1.0  0.73024  0.96702  0.60333  1.0000
  H   H746      1.0  0.85532  0.67722  0.91744  1.0000
  Fe  Fe63      1.0  0.68592  0.85955  0.70945  1.0000
  C   C933      1.0  0.66963  0.67991  0.69080  1.0000
  H   H747      1.0  0.72219  0.96114  0.76657  1.0000
  Fe  Fe64      1.0  0.68539  0.81501  0.64429  1.0000
  S   S127      1.0  0.66340  0.82507  0.74683  1.0000
  C   C934      1.0  0.68302  0.81122  0.54327  1.0000
  C   C935      1.0  0.95896  0.66960  0.62912  1.0000
  H   H748      1.0  0.72526  0.82723  0.81751  1.0000
  H   H749      1.0  0.67773  0.80261  0.84056  1.0000
  C   C936      1.0  0.92967  0.67586  0.64326  1.0000
  H   H750      1.0  0.75400  0.65906  0.71680  1.0000
  S   S128      1.0  0.70485  0.90529  0.73039  1.0000
  C   C937      1.0  0.97330  0.52212  0.71655  1.0000
  H   H751      1.0  0.74353  0.70418  0.67746  1.0000
  H   H752      1.0  0.77823  0.87077  0.53134  1.0000
  H   H753      1.0  0.79865  0.55367  0.71038  1.0000
  H   H754      1.0  0.67053  0.89259  0.51008  1.0000
  C   C938      1.0  0.92043  0.66297  0.67654  1.0000
  H   H755      1.0  0.67618  0.49470  0.66935  1.0000
  H   H756      1.0  0.70815  0.87101  0.61218  1.0000
  C   C939      1.0  0.69857  0.96376  0.75776  1.0000
  C   C940      1.0  0.84210  0.69168  0.93586  1.0000
  C   C941      1.0  0.69915  0.80540  0.51058  1.0000
  C   C942      1.0  0.68386  0.93937  0.73938  1.0000
  H   H757      1.0  0.87528  0.52066  0.75612  1.0000
  C   C943      1.0  0.72464  0.68989  0.68685  1.0000
  H   H758      1.0  0.96549  0.67989  0.60336  1.0000
  C   C944      1.0  0.78900  0.50549  0.70143  1.0000
  H   H759      1.0  0.80402  0.54814  0.77770  1.0000
  C   C945      1.0  0.77361  0.85833  0.50624  1.0000
  H   H760      1.0  0.71073  0.62703  0.73951  1.0000
  H   H761      1.0  0.80300  0.82056  0.52134  1.0000
  C   C946      1.0  0.71912  0.88713  0.55800  1.0000
  H   H762      1.0  0.71506  0.92210  0.64126  1.0000
  C   C947      1.0  0.80804  0.72862  0.98363  1.0000
  H   H763      1.0  0.66454  0.72324  0.74188  1.0000
  H   H764      1.0  0.93326  0.63371  0.72149  1.0000
  C   C948      1.0  0.79833  0.52832  0.76090  1.0000
  C   C949      1.0  0.97929  0.65033  0.64827  1.0000
  C   C950      1.0  0.84867  0.69163  0.97331  1.0000
  C   C951      1.0  0.80154  0.72867  0.94608  1.0000
  C   C952      1.0  0.73053  0.66441  0.70896  1.0000
  H   H765      1.0  0.72675  0.88363  0.80711  1.0000
  C   C953      1.0  0.72707  0.94475  0.59051  1.0000
  C   C954      1.0  0.68306  0.99161  0.76465  1.0000
  C   C955      1.0  0.95142  0.49989  0.70729  1.0000
  C   C956      1.0  0.83172  0.71006  0.99760  1.0000
  C   C957      1.0  0.69439  0.69783  0.67810  1.0000
  H   H766      1.0  0.86696  0.67708  0.98328  1.0000
  C   C958      1.0  0.70610  0.64645  0.72181  1.0000
  H   H767      1.0  0.79706  0.49726  0.80665  1.0000
  H   H768      1.0  0.92751  0.50644  0.70480  1.0000
  C   C959      1.0  0.78792  0.82994  0.50057  1.0000
  C   C960      1.0  0.67576  0.65412  0.71278  1.0000
