data_image0
_chemical_formula_structural       CH4FeSCFeSFeS2CHC4SCHCSH2C2H3CFeS2FeH2SCH3CH2C2H2C4SH2C5HCH2C2H2C2HC6H7CHCFeC2HC4H3C2HC2SPC14SHPCSCSHCH3C2H5CSHCHCH5CH3CH2CH2C2FeC2HCHCHCH3SHC2HCHCHC3HCHC2H7SC7PC4HC5H2CHCHCH4SCSCH2CFeCH2SCFeSCSFeS2HCFeCHFeS2CSC2HCHC3HSCH2SCH2C4H2CHCH2C6H5CHC2HC6H4CHS2C9H4C2HC3HCH2CH2CHSCH2CH4C2H2C3SHC2HC2PCHCFeC4HC2HCHC2HCH4CHC3H2C4HC7HCHC3FeH3P2CH2CH2C2H5CH2CHPHC3HCFeCHPSC2SHCH2CSHCHC4HSH2SCFeHSC3SFeS2FeS2FeSFeS3HSH3FeSCSHSH3CHCHC7H3C6H4C6H4C3HC6H2SHFeH2C6H4C5H4CHSH2C5HCFeC4H3FeC7H5FeC3H2C2HCHC2H3CSC4PC16HC4H4C2H6SH5C4HCH2CH3CH2FeC6PC11H12C2HC2PC12H8CH2CHC4HPC2FeC2H2C2H6SHCHCHC2HC2HCH2CSCHC3H2FeCHCHCHCHC3H3CH2CH2C2HCSHSC4PC2H2CHC4HCHCPH4CH2C3SH3CHCSHCH3C5HCH2C3HC5SC3HCHSC3H2C2HC2HC2FeC2H4SH3C5H7CHCH2PHC3H2C2SFeS2HSCHCSFeS2FeS2FeSFeS3FeSHSCHCHFeHCSH3C6H4C6H4C7H5PHC2FeCFePHC6H4C4HC7HC9H3C2H4C4PC8HCSC7H10FeHCH7C2HCHC3HC8SH3CH2FeH6C2H2C5H2FeC3HCHCHC2HC3PH4FeHC10H3CH4C2FeC2H5CHCH4CSCH4CHC6PC17H17CHCHFeC6H2C13HCH4C6PC7SC2H2CHC2FeH4CH9SH3CHC8HC2H2SCHSHC2H3CHPCH3CFeS2H3CH2CHS2HSC3HSFeCH2C3HCHC2H2CSH4CH2CFeHCH2C3H3CH3CHCSHCHSFeS2FeS2FeSFeS3H2CHCHC2SHC2HSHC6HSCHC5H3C7H4C6H4C4HCHCPSHC6H4CHC2HPCHCH6CFeC2HCH2C2H2C2H3CHC4SC7H5CHCH2CH2C3PSC6HCH9C2HCFeCHC2HC2HC6SHCH3CH2CSHC2H2CH4CFeCHCHCFeC2HC7PC4SC13HCH2C3H5CH5C5HCHCHCHC4HCHCHCH4C3HC2HCHC4PC3HC3HC7HC3HCH2C3H5FeH3C4PC10H2C8HSHCH4C4H9C2HPCPH3C2H2SCH3C2HPH2C2HSH7C2H4C7HC2H2CH2CHC7HC2HC2H5CH2CHCH2C2H2CHCH3CSH5SCS2HC3HFeSHC3FeS2FeS2FeSFeS3FeHSFeHFeH2S4HC3H2CHCHC6HCH2C3H2C6H4C12FeH2C4H2CSHCSHC3SFeH3C5PC16SH19C2SH2C3HCHPFeH2PHCHC2FeCSCSCHC2HC2HFeHC2H2CHC2HCH2SH2SH2CH3C7H3C2H2C2H2SCH2C3PCH3CH2C4HCHC4PC15H3CH7CH3SHCHCHSH2CFeHFeC8H6SC2PH2PHC3HCHC5HCH2CHC3H3SC4HCH3CH2C3HC6H2PCH5C2H6C8PC4SC13H13FeHC4HCHCHC5H4CH2C6H3C2HC3H3C3HC2HC2HCH3CHCH2FeC3H4C10HFeSFeS2FeSFeHS2CSHSHCSHSFeSPFeSFeSCHCSC2HFeSFeH2CHC9H4CHSC2HC6H4C6H2CHCHCHC4HC2PH4C2HC2HC4H2C2H2C2HCH2CHC8H3C2H2CH2CHSHFeCSH4CHCH4C3H3PHCH2CH2C4HCH4SHCH2C2HCHC2HC2SH3FeSCFeS2FeSFeSH2SH2SHFeSHSFeCHCFeHSFeCSHC2S3HC2HC6H5C7FeH3C6H4C2H2C6H4CHC2H2CHC3PC2H2C4H2SHC4HCH2CH2C2HCHCHCHCHCH3PHCHCHCHC12PC18H20C4HCHFeCH2SHSC5HCSC5H2CH4C2H3CHCH2CH4CHSCHCSHCSC2H3C2H2CFeC3HSC4HC5H2C2FeH3CH2SFeC2SH3CSFeS2FeS2FeSFeS3HFeCSFe2SCSC2FeSC2H2FeHCSC6H4C6H4C6H5C3HCHC5SCHSHC6H2C2HC6SHPHCHCHC2HCH2C3H2FeH3CSHFeCH6CHC2FeHCPHC2PC4HC14HFeCH3CHCH4CH6C4HCH3C2HCHCHC4FeHCH4C2H3CH2C2H3SHC8HC3HPCHCHCH2C3HCPH3CH2CH2CHCH3SCHS2C3H2C2HC3HCHCH2CSH2CH2CH4SHC5H2C7H2CHC2HCFeCH2C3H3CHCHCHC2SH5C2PC2H2C2HC8H2C3HC4HCH4C4HFeHSC3H2CSHC2FeC3H2C4HC3H2C2PHC4H3SC4H2CH2CH3C2H2PHSCS2C2HC4H2C4HFeCH4C3HC2PHC2HC2HCHSCHPHCPCFeS2FeS2FeSFeS3C2HC2SC3SCHCSH3SFeHSCH5C7H4C6H5C4HC2HC4PH2C7H2C7H4C6PC3HCHC8H2SCHCH14CH2C6PHC3H4C2HC7H3CH6CHCH6C4H4C6PH5C3HCSCH4CFeH4C2H2C5H3CH5CSCHCH4CH3C3H2CHC4H2C2SC2H2C2HC3PHCH3C4H7CHC4H3C4HC6SCHCSCH2CH4C3H2C2HCPC2HC5HC2HFeC2HCHCH2CHCH4C5HCH2C2PH2C3FeHSC3H2CH2SH2CH2CHC3S3CSHCSCFeSFeSHCHSFeSC2SCSFeSCFeS2FeSFeHFeS3HC3H3CH2SC6H4C6H4C6H4C6H7SHCSCH2C2H2C3PHC2H3FeH3C3HCH2C2HC2HC2HPC2HC3PH2CHCH3C3H2SC2HFeHC4HCH4C3H3C3HCH2CH4CH2C2H2C3HC4H2C4HC3H2C3HCHC2HCH2C2HC3HC2H2C4H3CHCH2CHCHCH4C6PC16H18C2HC2SCH2CH3CHC2Fe2C3HCHC3SH3SCHCSFeS2FeHFeCFeS3FeCSFeCSC2H2SC2HSFe2SFeSCHCHPC2HC6H6C2HC6H3CHC4HCH2SH3CH2C2H2C3FeCHCHC2HCPCHC2SHC2SCH2C6HCHC2HC3HCH9C4HCHSHC2H2CSCH2SPHC3HCH4C3H3C3HC2H2C5H3CPC5H2C2HCHC4H5C3HC4HC3HCHCHCH3CSCH2C2H2C8H2C2HC2H2C2HC2HC3H2C4SFeS2C2SHFeSCHSCFeSFeS3CH2SH2CSCSPC6H2FeHCH2CHCHC6H5CHC3HC2HCHFeHC6H4CHCHCH2C4H2CHC2HCH7CH3C3HCH4CPSC2HC3H2C4H4C5H2C4HCHPC2H2C3FeC2H3C5H3CHCH2C2HFeC2H2CHC3H2CSC3HCHC6PC14HC3HCH2SH5SC3H3CH6CHSC3PCHCFe2S2HFeSCS3HFeC2FeCSH4SFeHSCHSHC3SHPHCHC6H4C2H2SCH3C8H4C2FeH2C2HC2H4CH2CHCHCHPCHC2H5CHSHCH3C2H3C2PHCH2SH2C5HC5HCHC8HC2HCHC4SCHC3H2CH4SHC4HCHCHCFeCHCH2C4PHC6H4C3H5CH2CHCFeCHCH3CHSC8HPC2H2CH3C2H2SC3H2SCH3CFeC2FeS2FeS2FeSFeS4HS2CSFeS2HFeSC2H4C3HCH4CHC2HSC3HCHC8H4C6H4CHC6H5SH2C8H4C6PC12HSH4C2H4C8H5CHPC3FeSH2S2H3C13H8C6PC2HC3H6PC2HC2H5SC3SHC3HCHCH2C3HC6PC3H2C13H8CH3SH7C6PC9HC8H20C2H5C6HCHCHPHSCSH2C2FeH2SH3CH2SC3HSC6HSHC5HCH2CHC2FeH2CH2C4H4CHCHC4H3C5FeH2CH3CH4CH2C2HC4HCFe2CH2CH3SFeC2FeCHC2H3C3H2FeCH3CHC10H2CFeH2SH3CSHC2PHCHCHCFeCH2C2SH2C4H2FeS2FeS2FeSFeS3H2SHCSC2H2C2HC2HC5H3CHCH2SC6H4CHCHC6H4CHC4HCHC7H4C2FeC3PC15H16C8PC3HC10HC3H5C3H2C3H5CH3CH3C2HC3HCSH2C2HCHCSCH2C2HCH2CHCHC2SFeC3HSHC2HCH3C8H6C2H5SC2H3C6PHFeSHSHCH3C2PCHC3H3CHPCH7SPC12H2CH3CH4CHFe2HCHC2SFeC3HCHC3HSC4H2C2HCH2CHC6HSCH3CH5C3HC2HCH3CFeC2Fe
_chemical_formula_sum              "C2880 H2304 Fe192 S384 P96"
_cell_length_a       55.9734
_cell_length_b       55.7737
_cell_length_c       55.7114
_cell_angle_alpha    84.8352
_cell_angle_beta     84.8968
_cell_angle_gamma    84.6434

_space_group_name_H-M_alt    "P 1"
_space_group_IT_number       1

loop_
  _space_group_symop_operation_xyz
  'x, y, z'

loop_
  _atom_site_type_symbol
  _atom_site_label
  _atom_site_symmetry_multiplicity
  _atom_site_fract_x
  _atom_site_fract_y
  _atom_site_fract_z
  _atom_site_occupancy
  C   C1        1.0  0.06310  0.04082  0.43900  1.0000
  H   H1        1.0  0.25601  0.20375  0.27582  1.0000
  H   H2        1.0  0.40068  0.07131  0.39916  1.0000
  H   H3        1.0  0.02135  0.02197  0.98107  1.0000
  H   H4        1.0  0.42793  0.14591  0.27736  1.0000
  Fe  Fe1       1.0  0.01713  0.15754  0.45816  1.0000
  S   S1        1.0  0.03668  0.14216  0.42536  1.0000
  C   C2        1.0  0.04325  0.02870  0.44869  1.0000
  Fe  Fe2       1.0  0.02439  0.10668  0.44220  1.0000
  S   S2        1.0  0.01069  0.07931  0.41993  1.0000
  Fe  Fe3       1.0  0.06802  0.13533  0.44850  1.0000
  S   S3        1.0  0.10705  0.14084  0.43442  1.0000
  S   S4        1.0  0.05760  0.09800  0.46264  1.0000
  C   C3        1.0  0.41578  0.06663  0.20923  1.0000
  H   H5        1.0  0.45375  0.21963  0.34015  1.0000
  C   C4        1.0  0.44350  0.10396  0.33427  1.0000
  C   C5        1.0  0.46149  0.10913  0.31595  1.0000
  C   C6        1.0  0.34374  0.02432  0.19350  1.0000
  C   C7        1.0  0.40623  0.05839  0.34003  1.0000
  S   S5        1.0  0.26851  0.19743  0.32470  1.0000
  C   C8        1.0  0.06375  0.19504  0.39024  1.0000
  H   H6        1.0  0.43073  0.06524  0.24374  1.0000
  C   C9        1.0  0.47423  0.09206  0.17974  1.0000
  S   S6        1.0  0.22896  0.20834  0.38730  1.0000
  H   H7        1.0  0.36951  0.15179  0.34621  1.0000
  H   H8        1.0  0.45697  0.16589  0.38328  1.0000
  C   C10       1.0  0.47726  0.10442  0.15683  1.0000
  C   C11       1.0  0.99155  0.98607  0.00666  1.0000
  H   H9        1.0  0.10465  0.01453  0.47630  1.0000
  H   H10       1.0  0.43758  0.12745  0.42324  1.0000
  H   H11       1.0  0.33882  0.17932  0.21761  1.0000
  C   C12       1.0  0.01029  0.98650  0.43507  1.0000
  Fe  Fe4       1.0  0.42504  0.18250  0.22375  1.0000
  S   S7        1.0  0.43562  0.20291  0.25380  1.0000
  S   S8        1.0  0.44257  0.14379  0.22244  1.0000
  Fe  Fe5       1.0  0.39607  0.21339  0.26130  1.0000
  H   H12       1.0  0.41650  0.02286  0.32805  1.0000
  H   H13       1.0  0.25024  0.19742  0.22736  1.0000
  S   S9        1.0  0.38530  0.19044  0.23381  1.0000
  C   C13       1.0  0.43232  0.13448  0.29347  1.0000
  H   H14       1.0  0.32212  0.21883  0.23004  1.0000
  H   H15       1.0  0.35935  0.06045  0.13216  1.0000
  H   H16       1.0  0.44698  0.15816  0.34237  1.0000
  C   C14       1.0  0.47607  0.22594  0.39680  1.0000
  H   H17       1.0  0.32909  0.16403  0.33295  1.0000
  H   H18       1.0  0.29984  0.16701  0.43790  1.0000
  C   C15       1.0  0.46441  0.10461  0.19975  1.0000
  C   C16       1.0  0.18612  0.21447  0.44910  1.0000
  H   H19       1.0  0.02895  0.19651  0.41021  1.0000
  H   H20       1.0  0.45855  0.02873  0.23651  1.0000
  C   C17       1.0  0.46052  0.14191  0.17425  1.0000
  C   C18       1.0  0.45704  0.12947  0.19706  1.0000
  C   C19       1.0  0.21941  0.21472  0.28744  1.0000
  C   C20       1.0  0.30984  0.20572  0.22718  1.0000
  S   S10       1.0  0.99136  0.19088  0.45547  1.0000
  H   H21       1.0  0.45519  0.16106  0.17188  1.0000
  H   H22       1.0  0.44808  0.09138  0.34950  1.0000
  C   C21       1.0  0.46483  0.03569  0.41766  1.0000
  C   C22       1.0  0.29884  0.20349  0.31710  1.0000
  C   C23       1.0  0.31040  0.19772  0.29465  1.0000
  C   C24       1.0  0.33474  0.20200  0.28865  1.0000
  C   C25       1.0  0.34775  0.21171  0.30524  1.0000
  H   H23       1.0  0.43629  0.11272  0.38326  1.0000
  C   C26       1.0  0.44666  0.03630  0.22287  1.0000
  H   H24       1.0  0.30054  0.18998  0.28186  1.0000
  H   H25       1.0  0.34345  0.19751  0.27135  1.0000
  C   C27       1.0  0.40237  0.19885  0.38222  1.0000
  C   C28       1.0  0.42436  0.18883  0.39068  1.0000
  H   H26       1.0  0.99090  0.01576  0.26640  1.0000
  H   H27       1.0  0.21797  0.19949  0.30089  1.0000
  C   C29       1.0  0.40173  0.07236  0.35999  1.0000
  C   C30       1.0  0.40354  0.06105  0.38342  1.0000
  H   H28       1.0  0.10045  0.04559  0.44172  1.0000
  C   C31       1.0  0.12096  0.16738  0.42265  1.0000
  C   C32       1.0  0.10976  0.19065  0.42502  1.0000
  C   C33       1.0  0.12156  0.21109  0.41525  1.0000
  C   C34       1.0  0.14469  0.20859  0.40310  1.0000
  C   C35       1.0  0.15608  0.18536  0.40116  1.0000
  C   C36       1.0  0.14428  0.16493  0.41090  1.0000
  H   H29       1.0  0.09189  0.19291  0.43412  1.0000
  H   H30       1.0  0.98190  0.21107  0.40009  1.0000
  H   H31       1.0  0.17389  0.18307  0.39195  1.0000
  H   H32       1.0  0.15323  0.14705  0.40912  1.0000
  H   H33       1.0  0.30372  0.21662  0.35132  1.0000
  H   H34       1.0  0.45877  0.00926  0.19819  1.0000
  H   H35       1.0  0.47822  0.22348  0.18437  1.0000
  C   C37       1.0  0.35121  0.19525  0.43797  1.0000
  H   H36       1.0  0.36075  0.14031  0.42991  1.0000
  C   C38       1.0  0.41252  0.03353  0.34346  1.0000
  Fe  Fe6       1.0  0.38802  0.22406  0.20841  1.0000
  C   C39       1.0  0.44691  0.02539  0.20124  1.0000
  C   C40       1.0  0.43096  0.05680  0.22693  1.0000
  H   H37       1.0  0.30300  0.13351  0.32310  1.0000
  C   C41       1.0  0.26961  0.19356  0.22570  1.0000
  C   C42       1.0  0.02937  0.21786  0.45867  1.0000
  C   C43       1.0  0.28478  0.21101  0.23041  1.0000
  C   C44       1.0  0.43476  0.16969  0.35335  1.0000
  H   H38       1.0  0.34599  0.19305  0.37770  1.0000
  H   H39       1.0  0.42288  0.02181  0.09325  1.0000
  H   H40       1.0  0.38041  0.20163  0.35183  1.0000
  C   C45       1.0  0.39701  0.19414  0.35904  1.0000
  C   C46       1.0  0.33495  0.03712  0.15231  1.0000
  H   H41       1.0  0.16097  0.18730  0.45079  1.0000
  C   C47       1.0  0.43178  0.03516  0.18352  1.0000
  C   C48       1.0  0.41647  0.05616  0.18711  1.0000
  S   S11       1.0  0.46646  0.99522  0.39211  1.0000
  P   P1        1.0  0.39608  0.06770  0.16450  1.0000
  C   C49       1.0  0.38687  0.09948  0.16717  1.0000
  C   C50       1.0  0.41183  0.06361  0.13510  1.0000
  C   C51       1.0  0.42684  0.08092  0.12397  1.0000
  C   C52       1.0  0.43989  0.07709  0.10183  1.0000
  C   C53       1.0  0.43819  0.05595  0.09064  1.0000
  C   C54       1.0  0.42346  0.03855  0.10161  1.0000
  C   C55       1.0  0.41047  0.04224  0.12382  1.0000
  C   C56       1.0  0.36292  0.10878  0.16456  1.0000
  C   C57       1.0  0.35591  0.13323  0.16721  1.0000
  C   C58       1.0  0.37268  0.14858  0.17262  1.0000
  C   C59       1.0  0.39650  0.13951  0.17520  1.0000
  C   C60       1.0  0.40360  0.11515  0.17232  1.0000
  C   C61       1.0  0.36992  0.05060  0.16845  1.0000
  C   C62       1.0  0.35518  0.05037  0.14935  1.0000
  S   S12       1.0  0.47143  0.99640  0.06577  1.0000
  H   H42       1.0  0.32371  0.03693  0.13747  1.0000
  P   P2        1.0  0.38087  0.21740  0.40053  1.0000
  C   C63       1.0  0.36398  0.03756  0.19061  1.0000
  S   S13       1.0  0.47396  0.02038  0.13199  1.0000
  C   C64       1.0  0.35845  0.13808  0.34188  1.0000
  S   S14       1.0  0.46476  0.16394  0.43893  1.0000
  H   H43       1.0  0.43200  0.02615  0.16712  1.0000
  C   C65       1.0  0.00451  0.21777  0.45756  1.0000
  H   H44       1.0  0.42919  0.09707  0.13255  1.0000
  H   H45       1.0  0.45201  0.09021  0.09379  1.0000
  H   H46       1.0  0.44887  0.05264  0.07385  1.0000
  C   C66       1.0  0.19934  0.22785  0.46235  1.0000
  C   C67       1.0  0.08755  0.01833  0.46843  1.0000
  H   H47       1.0  0.34953  0.09731  0.16054  1.0000
  H   H48       1.0  0.33747  0.14033  0.16507  1.0000
  H   H49       1.0  0.36730  0.16753  0.17478  1.0000
  H   H50       1.0  0.40946  0.15139  0.17957  1.0000
  H   H51       1.0  0.42213  0.10845  0.17430  1.0000
  C   C68       1.0  0.04219  0.20680  0.39945  1.0000
  S   S15       1.0  0.37873  0.21600  0.29935  1.0000
  H   H52       1.0  0.47323  0.20736  0.39484  1.0000
  C   C69       1.0  0.47198  0.02556  0.39562  1.0000
  H   H53       1.0  0.02967  0.98402  0.43156  1.0000
  C   C70       1.0  0.17104  0.19787  0.46107  1.0000
  H   H54       1.0  0.06739  0.17567  0.39392  1.0000
  H   H55       1.0  0.47116  0.18717  0.21252  1.0000
  H   H56       1.0  0.31186  0.14821  0.21076  1.0000
  H   H57       1.0  0.46272  0.06753  0.43764  1.0000
  H   H58       1.0  0.45653  0.02469  0.43249  1.0000
  C   C71       1.0  0.40538  0.21579  0.44256  1.0000
  H   H59       1.0  0.04090  0.20129  0.45763  1.0000
  H   H60       1.0  0.40494  0.19633  0.44368  1.0000
  H   H61       1.0  0.37493  0.03751  0.20569  1.0000
  C   C72       1.0  0.31949  0.18316  0.22009  1.0000
  H   H62       1.0  0.09807  0.19924  0.37040  1.0000
  H   H63       1.0  0.40540  0.06681  0.32180  1.0000
  C   C73       1.0  0.41643  0.22601  0.46024  1.0000
  H   H64       1.0  0.98867  0.04300  0.39837  1.0000
  H   H65       1.0  0.39998  0.02804  0.13243  1.0000
  C   C74       1.0  0.34235  0.19010  0.39707  1.0000
  C   C75       1.0  0.04531  0.01127  0.46837  1.0000
  Fe  Fe7       1.0  0.24711  0.22128  0.35136  1.0000
  C   C76       1.0  0.41441  0.02246  0.36679  1.0000
  C   C77       1.0  0.33552  0.14513  0.33439  1.0000
  H   H66       1.0  0.41995  0.00330  0.36944  1.0000
  C   C78       1.0  0.24105  0.21723  0.27326  1.0000
  H   H67       1.0  0.47963  0.10076  0.31738  1.0000
  C   C79       1.0  0.45590  0.12439  0.29554  1.0000
  H   H68       1.0  0.12267  0.22586  0.46388  1.0000
  C   C80       1.0  0.35701  0.19894  0.41291  1.0000
  H   H69       1.0  0.39609  0.13676  0.30905  1.0000
  H   H70       1.0  0.26750  0.15749  0.21554  1.0000
  H   H71       1.0  0.40012  0.14207  0.44647  1.0000
  S   S16       1.0  0.00236  0.12283  0.47312  1.0000
  H   H72       1.0  0.11259  0.22891  0.41697  1.0000
  C   C81       1.0  0.47061  0.12944  0.15431  1.0000
  C   C82       1.0  0.08523  0.03577  0.44895  1.0000
  H   H73       1.0  0.34591  0.22488  0.34052  1.0000
  C   C83       1.0  0.44036  0.17416  0.37637  1.0000
  H   H74       1.0  0.35787  0.07709  0.34041  1.0000
  C   C84       1.0  0.27934  0.17094  0.21881  1.0000
  H   H75       1.0  0.42929  0.19198  0.40828  1.0000
  C   C85       1.0  0.33086  0.18349  0.44692  1.0000
  C   C86       1.0  0.30428  0.16572  0.21608  1.0000
  C   C87       1.0  0.41324  0.17996  0.34459  1.0000
  H   H76       1.0  0.46212  0.09489  0.21737  1.0000
  C   C88       1.0  0.31195  0.21311  0.33361  1.0000
  H   H77       1.0  0.06108  0.05459  0.42410  1.0000
  C   C89       1.0  0.32194  0.17847  0.40607  1.0000
  C   C90       1.0  0.31608  0.17535  0.43098  1.0000
  H   H78       1.0  0.40899  0.17700  0.32654  1.0000
  H   H79       1.0  0.41214  0.02757  0.40472  1.0000
  H   H80       1.0  0.31361  0.01373  0.17663  1.0000
  H   H81       1.0  0.36177  0.20193  0.45079  1.0000
  H   H82       1.0  0.31024  0.17254  0.39368  1.0000
  H   H83       1.0  0.33934  0.01417  0.21060  1.0000
  H   H84       1.0  0.35870  0.12436  0.39056  1.0000
  S   S17       1.0  0.42668  0.21410  0.19558  1.0000
  C   C91       1.0  0.46834  0.05998  0.42061  1.0000
  C   C92       1.0  0.37719  0.13471  0.41939  1.0000
  C   C93       1.0  0.39935  0.13566  0.42875  1.0000
  C   C94       1.0  0.42049  0.12762  0.41559  1.0000
  C   C95       1.0  0.41965  0.11919  0.39282  1.0000
  C   C96       1.0  0.39752  0.11844  0.38306  1.0000
  C   C97       1.0  0.37620  0.12584  0.39683  1.0000
  P   P3        1.0  0.39621  0.10479  0.35496  1.0000
  C   C98       1.0  0.36694  0.11353  0.34398  1.0000
  C   C99       1.0  0.41968  0.11405  0.33239  1.0000
  C   C100      1.0  0.41424  0.12923  0.31167  1.0000
  C   C101      1.0  0.32925  0.02406  0.17436  1.0000
  H   H85       1.0  0.31759  0.08993  0.32683  1.0000
  C   C102      1.0  0.40990  0.03619  0.38673  1.0000
  C   C103      1.0  0.08106  0.20835  0.37689  1.0000
  C   C104      1.0  0.35204  0.09616  0.33855  1.0000
  C   C105      1.0  0.32908  0.10336  0.33094  1.0000
  C   C106      1.0  0.32083  0.12784  0.32886  1.0000
  H   H86       1.0  0.46965  0.12802  0.28102  1.0000
  H   H87       1.0  0.40363  0.08237  0.21288  1.0000
  C   C107      1.0  0.47882  0.07444  0.40139  1.0000
  H   H88       1.0  0.47941  0.07287  0.18206  1.0000
  C   C108      1.0  0.33617  0.21730  0.32763  1.0000
  H   H89       1.0  0.02611  0.03328  0.44110  1.0000
  C   C109      1.0  0.98069  0.07089  0.42299  1.0000
  H   H90       1.0  0.32621  0.18120  0.46625  1.0000
  H   H91       1.0  0.42502  0.21448  0.47420  1.0000
  H   H92       1.0  0.45932  0.22456  0.43303  1.0000
  H   H93       1.0  0.18782  0.21676  0.42952  1.0000
  S   S18       1.0  0.46466  0.11421  0.47480  1.0000
  C   C110      1.0  0.99995  0.99327  0.45764  1.0000
  S   S19       1.0  0.26554  0.22770  0.43531  1.0000
  C   C111      1.0  0.98258  0.98459  0.05029  1.0000
  H   H94       1.0  0.47309  0.13923  0.13672  1.0000
  H   H95       1.0  0.47186  0.99929  0.47517  1.0000
  C   C112      1.0  0.99566  0.98283  0.41691  1.0000
  Fe  Fe8       1.0  0.45123  0.15352  0.47748  1.0000
  C   C113      1.0  0.12527  0.01734  0.81820  1.0000
  H   H96       1.0  0.18458  0.11482  0.55946  1.0000
  H   H97       1.0  0.41795  0.22687  0.54598  1.0000
  S   S20       1.0  0.15663  0.20240  0.72509  1.0000
  C   C114      1.0  0.01528  0.16824  0.56325  1.0000
  Fe  Fe9       1.0  0.11975  0.19087  0.73835  1.0000
  S   S21       1.0  0.11843  0.15101  0.75261  1.0000
  C   C115      1.0  0.18369  0.15288  0.54825  1.0000
  S   S22       1.0  0.10242  0.21009  0.70604  1.0000
  Fe  Fe10      1.0  0.02676  0.05292  0.81432  1.0000
  S   S23       1.0  0.99385  0.03723  0.80387  1.0000
  S   S24       1.0  0.03045  0.09040  0.79491  1.0000
  H   H98       1.0  0.43261  0.02030  0.48717  1.0000
  C   C116      1.0  0.17329  0.13111  0.55469  1.0000
  Fe  Fe11      1.0  0.01724  0.00243  0.80301  1.0000
  C   C117      1.0  0.09103  0.02889  0.75288  1.0000
  H   H99       1.0  0.99281  0.16417  0.72501  1.0000
  Fe  Fe12      1.0  0.03785  0.00869  0.85038  1.0000
  S   S25       1.0  0.05061  0.01837  0.81145  1.0000
  S   S26       1.0  0.01714  0.04516  0.85432  1.0000
  C   C118      1.0  0.14841  0.13025  0.55469  1.0000
  S   S27       1.0  0.05453  0.99449  0.57060  1.0000
  C   C119      1.0  0.09086  0.06123  0.72072  1.0000
  C   C120      1.0  0.24390  0.20743  0.56616  1.0000
  H   H100      1.0  0.43045  0.05830  0.50771  1.0000
  C   C121      1.0  0.22494  0.21508  0.65784  1.0000
  H   H101      1.0  0.99337  0.01869  0.75509  1.0000
  C   C122      1.0  0.02282  0.03780  0.94445  1.0000
  C   C123      1.0  0.18281  0.20752  0.49978  1.0000
  C   C124      1.0  0.02121  0.16240  0.81299  1.0000
  H   H102      1.0  0.01286  0.04970  0.48393  1.0000
  S   S28       1.0  0.99076  0.99523  0.60406  1.0000
  C   C125      1.0  0.10034  0.20440  0.48911  1.0000
  H   H103      1.0  0.10017  0.01785  0.76687  1.0000
  H   H104      1.0  0.35613  0.22886  0.65519  1.0000
  S   S29       1.0  0.03041  0.10432  0.53253  1.0000
  C   C126      1.0  0.06139  0.10625  0.68709  1.0000
  H   H105      1.0  0.28066  0.21636  0.72649  1.0000
  H   H106      1.0  0.99437  0.15271  0.53889  1.0000
  C   C127      1.0  0.01863  0.01927  0.96253  1.0000
  C   C128      1.0  0.40037  0.18689  0.50953  1.0000
  C   C129      1.0  0.37533  0.19273  0.51295  1.0000
  C   C130      1.0  0.36563  0.21069  0.52829  1.0000
  H   H107      1.0  0.02350  0.03771  0.68209  1.0000
  H   H108      1.0  0.10448  0.18813  0.47964  1.0000
  C   C131      1.0  0.41561  0.19932  0.52164  1.0000
  H   H109      1.0  0.36336  0.18326  0.50371  1.0000
  C   C132      1.0  0.16935  0.19436  0.48629  1.0000
  H   H110      1.0  0.26942  0.17856  0.51784  1.0000
  H   H111      1.0  0.43489  0.19509  0.51925  1.0000
  C   C133      1.0  0.04659  0.02465  0.55946  1.0000
  C   C134      1.0  0.05723  0.03369  0.53711  1.0000
  C   C135      1.0  0.05189  0.05788  0.52827  1.0000
  C   C136      1.0  0.03645  0.07342  0.54216  1.0000
  C   C137      1.0  0.02597  0.06444  0.56460  1.0000
  C   C138      1.0  0.03074  0.04009  0.57307  1.0000
  H   H112      1.0  0.06972  0.02198  0.52664  1.0000
  H   H113      1.0  0.06014  0.06460  0.51099  1.0000
  H   H114      1.0  0.01407  0.07634  0.57547  1.0000
  H   H115      1.0  0.02272  0.03351  0.59047  1.0000
  H   H116      1.0  0.98817  0.09691  0.76006  1.0000
  C   C139      1.0  0.01976  0.08309  0.70716  1.0000
  H   H117      1.0  0.14045  0.11327  0.55928  1.0000
  C   C140      1.0  0.04008  0.02711  0.64807  1.0000
  C   C141      1.0  0.44776  0.04901  0.50253  1.0000
  H   H118      1.0  0.05819  0.01111  0.75983  1.0000
  C   C142      1.0  0.09385  0.13371  0.76314  1.0000
  C   C143      1.0  0.07003  0.14202  0.75931  1.0000
  C   C144      1.0  0.05115  0.12779  0.76821  1.0000
  C   C145      1.0  0.05559  0.10548  0.78157  1.0000
  C   C146      1.0  0.07944  0.09675  0.78478  1.0000
  C   C147      1.0  0.09845  0.11076  0.77546  1.0000
  H   H119      1.0  0.06612  0.15948  0.74971  1.0000
  H   H120      1.0  0.03285  0.13427  0.76523  1.0000
  H   H121      1.0  0.08318  0.07951  0.79485  1.0000
  H   H122      1.0  0.11683  0.10405  0.77830  1.0000
  C   C148      1.0  0.22086  0.21002  0.72716  1.0000
  H   H123      1.0  0.09035  0.14924  0.70999  1.0000
  S   S30       1.0  0.04896  0.15298  0.48046  1.0000
  S   S31       1.0  0.11147  0.22207  0.76174  1.0000
  C   C149      1.0  0.16345  0.22552  0.54678  1.0000
  C   C150      1.0  0.01114  0.99732  0.95664  1.0000
  C   C151      1.0  0.21338  0.20028  0.53979  1.0000
  C   C152      1.0  0.21985  0.20961  0.56069  1.0000
  C   C153      1.0  0.98572  0.22964  0.84437  1.0000
  C   C154      1.0  0.98044  0.19615  0.82073  1.0000
  C   C155      1.0  0.01042  0.98414  0.74590  1.0000
  C   C156      1.0  0.98906  0.00566  0.52286  1.0000
  C   C157      1.0  0.01179  0.22166  0.73268  1.0000
  H   H124      1.0  0.01099  0.20256  0.73160  1.0000
  H   H125      1.0  0.08892  0.05036  0.61725  1.0000
  H   H126      1.0  0.07003  0.99282  0.49322  1.0000
  H   H127      1.0  0.31514  0.21750  0.65015  1.0000
  C   C158      1.0  0.01219  0.01267  0.91451  1.0000
  C   C159      1.0  0.01966  0.03447  0.92042  1.0000
  H   H128      1.0  0.03683  0.03673  0.72907  1.0000
  C   C160      1.0  0.10761  0.00220  0.82756  1.0000
  C   C161      1.0  0.03041  0.18626  0.56598  1.0000
  C   C162      1.0  0.38091  0.22316  0.54031  1.0000
  H   H129      1.0  0.00050  0.19320  0.85252  1.0000
  C   C163      1.0  0.99125  0.16415  0.76377  1.0000
  H   H130      1.0  0.06047  0.01946  0.61457  1.0000
  H   H131      1.0  0.07483  0.10956  0.72185  1.0000
  C   C164      1.0  0.99007  0.05582  0.51609  1.0000
  H   H132      1.0  0.25167  0.18521  0.73437  1.0000
  H   H133      1.0  0.03777  0.18676  0.58322  1.0000
  C   C165      1.0  0.08110  0.14060  0.69726  1.0000
  H   H134      1.0  0.27954  0.21891  0.48339  1.0000
  S   S32       1.0  0.00625  0.99039  0.84163  1.0000
  C   C166      1.0  0.05738  0.11837  0.66438  1.0000
  H   H135      1.0  0.02925  0.21540  0.50953  1.0000
  H   H136      1.0  0.06266  0.15038  0.64044  1.0000
  C   C167      1.0  0.05298  0.05937  0.66908  1.0000
  H   H137      1.0  0.00982  0.00989  0.89592  1.0000
  H   H138      1.0  0.98452  0.11344  0.81445  1.0000
  H   H139      1.0  0.28032  0.19443  0.55520  1.0000
  H   H140      1.0  0.10048  0.07463  0.70950  1.0000
  C   C168      1.0  0.07198  0.06214  0.65105  1.0000
  C   C169      1.0  0.07450  0.04798  0.63133  1.0000
  H   H141      1.0  0.22711  0.18163  0.50817  1.0000
  H   H142      1.0  0.02308  0.04871  0.90637  1.0000
  C   C170      1.0  0.01005  0.18457  0.52217  1.0000
  C   C171      1.0  0.14328  0.00928  0.80109  1.0000
  C   C172      1.0  0.26171  0.19616  0.55080  1.0000
  S   S33       1.0  0.41172  0.16482  0.48913  1.0000
  H   H143      1.0  0.07643  0.18752  0.51629  1.0000
  C   C173      1.0  0.11061  0.22566  0.48023  1.0000
  C   C174      1.0  0.05848  0.03053  0.62980  1.0000
  H   H144      1.0  0.09369  0.00843  0.84094  1.0000
  C   C175      1.0  0.10013  0.18709  0.59740  1.0000
  C   C176      1.0  0.40593  0.21741  0.53678  1.0000
  P   P4        1.0  0.98867  0.16515  0.81415  1.0000
  C   C177      1.0  0.26171  0.22141  0.72467  1.0000
  H   H145      1.0  0.05703  0.98370  0.96586  1.0000
  C   C178      1.0  0.08600  0.19352  0.57793  1.0000
  Fe  Fe13      1.0  0.13863  0.22414  0.69480  1.0000
  C   C179      1.0  0.13384  0.15123  0.54851  1.0000
  C   C180      1.0  0.00264  0.01594  0.50278  1.0000
  C   C181      1.0  0.99706  0.00627  0.74116  1.0000
  C   C182      1.0  0.07767  0.15223  0.67442  1.0000
  H   H146      1.0  0.16739  0.20906  0.58317  1.0000
  C   C183      1.0  0.25554  0.18711  0.52985  1.0000
  C   C184      1.0  0.03621  0.20299  0.54641  1.0000
  H   H147      1.0  0.00905  0.17020  0.76340  1.0000
  C   C185      1.0  0.14412  0.17311  0.54239  1.0000
  H   H148      1.0  0.46814  0.07527  0.51589  1.0000
  C   C186      1.0  0.44899  0.02760  0.49102  1.0000
  C   C187      1.0  0.02542  0.20239  0.52470  1.0000
  H   H149      1.0  0.10837  0.16879  0.60026  1.0000
  C   C188      1.0  0.19769  0.22444  0.48758  1.0000
  H   H150      1.0  0.11463  0.15038  0.54811  1.0000
  H   H151      1.0  0.15792  0.18098  0.49489  1.0000
  H   H152      1.0  0.08333  0.17998  0.56589  1.0000
  H   H153      1.0  0.19295  0.20633  0.68028  1.0000
  C   C189      1.0  0.24537  0.20374  0.72919  1.0000
  H   H154      1.0  0.00239  0.18372  0.50511  1.0000
  C   C190      1.0  0.99318  0.99632  0.70004  1.0000
  C   C191      1.0  0.03419  0.18088  0.80075  1.0000
  C   C192      1.0  0.19996  0.21633  0.66407  1.0000
  H   H155      1.0  0.12490  0.03534  0.82423  1.0000
  H   H156      1.0  0.13260  0.18919  0.53744  1.0000
  C   C193      1.0  0.23436  0.22762  0.63666  1.0000
  C   C194      1.0  0.07529  0.21721  0.57410  1.0000
  C   C195      1.0  0.06736  0.02520  0.74910  1.0000
  C   C196      1.0  0.05522  0.03984  0.73161  1.0000
  H   H157      1.0  0.34636  0.21489  0.53081  1.0000
  C   C197      1.0  0.15935  0.22413  0.57208  1.0000
  C   C198      1.0  0.16918  0.17402  0.54188  1.0000
  C   C199      1.0  0.03373  0.14298  0.82569  1.0000
  C   C200      1.0  0.05877  0.14199  0.82598  1.0000
  C   C201      1.0  0.07152  0.16034  0.81365  1.0000
  C   C202      1.0  0.07838  0.22531  0.52189  1.0000
  C   C203      1.0  0.06670  0.05832  0.71764  1.0000
  H   H158      1.0  0.98827  0.98630  0.52574  1.0000
  C   C204      1.0  0.00048  0.08390  0.69252  1.0000
  H   H159      1.0  0.04784  0.11020  0.65158  1.0000
  C   C205      1.0  0.01508  0.08816  0.73144  1.0000
  C   C206      1.0  0.10283  0.04682  0.73861  1.0000
  C   C207      1.0  0.00807  0.99410  0.93247  1.0000
  Fe  Fe14      1.0  0.03601  0.11647  0.49267  1.0000
  H   H160      1.0  0.20302  0.15302  0.54815  1.0000
  H   H161      1.0  0.20819  0.19638  0.73092  1.0000
  H   H162      1.0  0.02500  0.19612  0.79086  1.0000
  P   P5        1.0  0.18235  0.20202  0.53233  1.0000
  P   P6        1.0  0.05050  0.07683  0.69509  1.0000
  C   C208      1.0  0.08433  0.20417  0.50988  1.0000
  H   H163      1.0  0.98632  0.22534  0.55453  1.0000
  H   H164      1.0  0.24879  0.21438  0.58246  1.0000
  C   C209      1.0  0.07262  0.11790  0.70378  1.0000
  H   H165      1.0  0.02443  0.12828  0.83503  1.0000
  H   H166      1.0  0.06839  0.12654  0.83510  1.0000
  C   C210      1.0  0.05924  0.17975  0.80101  1.0000
  C   C211      1.0  0.10375  0.20428  0.61317  1.0000
  H   H167      1.0  0.08496  0.07512  0.65225  1.0000
  H   H168      1.0  0.15695  0.02109  0.79381  1.0000
  H   H169      1.0  0.01165  0.15464  0.57796  1.0000
  H   H170      1.0  0.20668  0.21850  0.57298  1.0000
  H   H171      1.0  0.08419  0.16988  0.66959  1.0000
  C   C212      1.0  0.03751  0.04118  0.66783  1.0000
  H   H172      1.0  0.02784  0.01342  0.64698  1.0000
  H   H173      1.0  0.02973  0.08814  0.74291  1.0000
  C   C213      1.0  0.99146  0.09318  0.74120  1.0000
  H   H174      1.0  0.00365  0.08069  0.67358  1.0000
  P   P7        1.0  0.05738  0.22509  0.54855  1.0000
  H   H175      1.0  0.02859  0.05469  0.94902  1.0000
  C   C214      1.0  0.23150  0.18903  0.52441  1.0000
  C   C215      1.0  0.06563  0.14121  0.65803  1.0000
  C   C216      1.0  0.98202  0.16085  0.74189  1.0000
  H   H176      1.0  0.23701  0.20423  0.66945  1.0000
  C   C217      1.0  0.00281  0.04118  0.49934  1.0000
  Fe  Fe15      1.0  0.98617  0.02692  0.84364  1.0000
  C   C218      1.0  0.00535  0.16722  0.54127  1.0000
  H   H177      1.0  0.99086  0.07524  0.51365  1.0000
  P   P8        1.0  0.01898  0.99675  0.48133  1.0000
  S   S34       1.0  0.06070  0.98998  0.87957  1.0000
  C   C219      1.0  0.98839  0.01230  0.71828  1.0000
  C   C220      1.0  0.09364  0.22801  0.60919  1.0000
  S   S35       1.0  0.26567  0.22411  0.62852  1.0000
  H   H178      1.0  0.11481  0.19944  0.62824  1.0000
  C   C221      1.0  0.47138  0.01568  0.48427  1.0000
  H   H179      1.0  0.12121  0.04967  0.74145  1.0000
  H   H180      1.0  0.06932  0.19350  0.79084  1.0000
  C   C222      1.0  0.46893  0.05860  0.50709  1.0000
  S   S36       1.0  0.98218  0.00439  0.67157  1.0000
  H   H181      1.0  0.05063  0.21924  0.72963  1.0000
  C   C223      1.0  0.98967  0.20510  0.84048  1.0000
  H   H182      1.0  0.09101  0.15910  0.81312  1.0000
  C   C224      1.0  0.14377  0.98598  0.79351  1.0000
  C   C225      1.0  0.06772  0.00604  0.47806  1.0000
  C   C226      1.0  0.31782  0.22960  0.66369  1.0000
  C   C227      1.0  0.18413  0.22974  0.64889  1.0000
  H   H183      1.0  0.34848  0.22986  0.48172  1.0000
  S   S37       1.0  0.15256  0.22977  0.65522  1.0000
  H   H184      1.0  0.15794  0.98024  0.78033  1.0000
  H   H185      1.0  0.04159  0.98268  0.52606  1.0000
  S   S38       1.0  0.13767  0.41123  0.44131  1.0000
  C   C228      1.0  0.25548  0.42177  0.98325  1.0000
  Fe  Fe16      1.0  0.15830  0.46169  0.02182  1.0000
  H   H186      1.0  0.27135  0.24839  0.29062  1.0000
  S   S39       1.0  0.16417  0.43705  0.05641  1.0000
  C   C229      1.0  0.09093  0.43191  0.03915  1.0000
  C   C230      1.0  0.09086  0.29601  0.42624  1.0000
  C   C231      1.0  0.07180  0.27559  0.30292  1.0000
  S   S40       1.0  0.16272  0.44382  0.98674  1.0000
  Fe  Fe17      1.0  0.25576  0.40662  0.16389  1.0000
  S   S41       1.0  0.29495  0.40925  0.16850  1.0000
  S   S42       1.0  0.24111  0.43474  0.13506  1.0000
  Fe  Fe18      1.0  0.25175  0.36924  0.20767  1.0000
  S   S43       1.0  0.29027  0.36951  0.21544  1.0000
  S   S44       1.0  0.22654  0.34493  0.23036  1.0000
  Fe  Fe19      1.0  0.28417  0.40972  0.20801  1.0000
  S   S45       1.0  0.29999  0.43378  0.23181  1.0000
  Fe  Fe20      1.0  0.29825  0.36888  0.17537  1.0000
  S   S46       1.0  0.33324  0.34943  0.16083  1.0000
  S   S47       1.0  0.24480  0.40973  0.20357  1.0000
  S   S48       1.0  0.25989  0.36587  0.16745  1.0000
  H   H187      1.0  0.38032  0.41121  0.99762  1.0000
  S   S49       1.0  0.24104  0.31134  0.34084  1.0000
  H   H188      1.0  0.31686  0.26277  0.22504  1.0000
  H   H189      1.0  0.43602  0.31876  0.21914  1.0000
  H   H190      1.0  0.27786  0.47260  0.11738  1.0000
  Fe  Fe21      1.0  0.00698  0.37307  0.44499  1.0000
  S   S50       1.0  0.02786  0.40275  0.42482  1.0000
  C   C232      1.0  0.18809  0.38480  0.39648  1.0000
  S   S51       1.0  0.42982  0.45732  0.09956  1.0000
  H   H191      1.0  0.15580  0.26010  0.44363  1.0000
  S   S52       1.0  0.39672  0.24729  0.23657  1.0000
  H   H192      1.0  0.42935  0.23601  0.30658  1.0000
  H   H193      1.0  0.46982  0.35805  0.16619  1.0000
  H   H194      1.0  0.09709  0.42602  0.11159  1.0000
  C   C233      1.0  0.15925  0.35197  0.35477  1.0000
  H   H195      1.0  0.08437  0.46019  0.46469  1.0000
  C   C234      1.0  0.27842  0.47330  0.04767  1.0000
  H   H196      1.0  0.44555  0.26597  0.27505  1.0000
  C   C235      1.0  0.25689  0.29102  0.17061  1.0000
  C   C236      1.0  0.42373  0.45006  0.01881  1.0000
  C   C237      1.0  0.40591  0.46354  0.03238  1.0000
  C   C238      1.0  0.34277  0.25045  0.38698  1.0000
  C   C239      1.0  0.42872  0.45560  0.06811  1.0000
  C   C240      1.0  0.44699  0.44290  0.05438  1.0000
  C   C241      1.0  0.44438  0.43998  0.02990  1.0000
  H   H197      1.0  0.05838  0.35022  0.41631  1.0000
  H   H198      1.0  0.38236  0.38359  0.39883  1.0000
  H   H199      1.0  0.45830  0.42955  0.01960  1.0000
  C   C242      1.0  0.33893  0.31845  0.17024  1.0000
  C   C243      1.0  0.36192  0.30946  0.17682  1.0000
  C   C244      1.0  0.36738  0.28455  0.18246  1.0000
  C   C245      1.0  0.35009  0.26833  0.18075  1.0000
  C   C246      1.0  0.32716  0.27731  0.17402  1.0000
  C   C247      1.0  0.32150  0.30230  0.16912  1.0000
  H   H200      1.0  0.37562  0.32171  0.17738  1.0000
  H   H201      1.0  0.38520  0.27781  0.18734  1.0000
  H   H202      1.0  0.31378  0.26487  0.17251  1.0000
  H   H203      1.0  0.30394  0.30901  0.16356  1.0000
  C   C248      1.0  0.23224  0.33462  0.26053  1.0000
  C   C249      1.0  0.24810  0.34558  0.27326  1.0000
  C   C250      1.0  0.25080  0.33812  0.29779  1.0000
  C   C251      1.0  0.23835  0.31908  0.30957  1.0000
  C   C252      1.0  0.22297  0.30768  0.29664  1.0000
  C   C253      1.0  0.21964  0.31572  0.27236  1.0000
  H   H204      1.0  0.25771  0.36033  0.26446  1.0000
  H   H205      1.0  0.26254  0.34719  0.30770  1.0000
  H   H206      1.0  0.21311  0.29316  0.30553  1.0000
  H   H207      1.0  0.20710  0.30742  0.26274  1.0000
  C   C254      1.0  0.37714  0.34646  0.41087  1.0000
  C   C255      1.0  0.37831  0.37086  0.41419  1.0000
  C   C256      1.0  0.45602  0.25922  0.29010  1.0000
  H   H208      1.0  0.41689  0.44699  0.18905  1.0000
  C   C257      1.0  0.22045  0.43444  0.11260  1.0000
  C   C258      1.0  0.20818  0.41423  0.11003  1.0000
  C   C259      1.0  0.19138  0.41523  0.09243  1.0000
  C   C260      1.0  0.18669  0.43635  0.07713  1.0000
  C   C261      1.0  0.19912  0.45651  0.07959  1.0000
  C   C262      1.0  0.21586  0.45552  0.09723  1.0000
  H   H209      1.0  0.21143  0.39792  0.12174  1.0000
  H   H210      1.0  0.18171  0.39961  0.09080  1.0000
  S   S53       1.0  0.21507  0.24673  0.34138  1.0000
  H   H211      1.0  0.22519  0.47130  0.09906  1.0000
  Fe  Fe22      1.0  0.15449  0.44691  0.43835  1.0000
  H   H212      1.0  0.05867  0.23968  0.46152  1.0000
  H   H213      1.0  0.26550  0.29300  0.22995  1.0000
  C   C263      1.0  0.10667  0.41017  0.43807  1.0000
  C   C264      1.0  0.09554  0.38938  0.44730  1.0000
  C   C265      1.0  0.07117  0.38735  0.44422  1.0000
  C   C266      1.0  0.05785  0.40580  0.43121  1.0000
  C   C267      1.0  0.06895  0.42673  0.42216  1.0000
  C   C268      1.0  0.09321  0.42903  0.42577  1.0000
  H   H214      1.0  0.30552  0.27783  0.43490  1.0000
  H   H215      1.0  0.06290  0.37126  0.45146  1.0000
  H   H216      1.0  0.05877  0.44115  0.41220  1.0000
  H   H217      1.0  0.10160  0.44515  0.41862  1.0000
  C   C269      1.0  0.44700  0.24223  0.30777  1.0000
  C   C270      1.0  0.25997  0.38908  0.07430  1.0000
  C   C271      1.0  0.25681  0.37007  0.09214  1.0000
  C   C272      1.0  0.27607  0.36026  0.10525  1.0000
  C   C273      1.0  0.29849  0.36955  0.10068  1.0000
  H   H218      1.0  0.24465  0.39650  0.06471  1.0000
  H   H219      1.0  0.23928  0.36318  0.09598  1.0000
  H   H220      1.0  0.27357  0.34563  0.11916  1.0000
  H   H221      1.0  0.31322  0.36230  0.11132  1.0000
  C   C274      1.0  0.20495  0.38126  0.41377  1.0000
  H   H222      1.0  0.43474  0.39203  0.99620  1.0000
  S   S54       1.0  0.21538  0.26614  0.39546  1.0000
  H   H223      1.0  0.16311  0.28461  0.40502  1.0000
  H   H224      1.0  0.29978  0.26576  0.31369  1.0000
  C   C275      1.0  0.27246  0.41985  0.00046  1.0000
  C   C276      1.0  0.36681  0.24166  0.38140  1.0000
  C   C277      1.0  0.37195  0.33005  0.43073  1.0000
  C   C278      1.0  0.08565  0.29534  0.29833  1.0000
  C   C279      1.0  0.17024  0.31624  0.42185  1.0000
  H   H225      1.0  0.01409  0.28881  0.33750  1.0000
  C   C280      1.0  0.36274  0.41344  0.00745  1.0000
  Fe  Fe23      1.0  0.46509  0.45723  0.11657  1.0000
  C   C281      1.0  0.47152  0.33038  0.21978  1.0000
  C   C282      1.0  0.46235  0.40977  0.33086  1.0000
  C   C283      1.0  0.39583  0.25573  0.42322  1.0000
  C   C284      1.0  0.40677  0.26584  0.44111  1.0000
  H   H226      1.0  0.35714  0.37567  0.01001  1.0000
  H   H227      1.0  0.47307  0.35069  0.31945  1.0000
  H   H228      1.0  0.06993  0.26410  0.28862  1.0000
  Fe  Fe24      1.0  0.01006  0.32033  0.46326  1.0000
  C   C285      1.0  0.36846  0.26998  0.34559  1.0000
  C   C286      1.0  0.34438  0.27824  0.35099  1.0000
  C   C287      1.0  0.22401  0.25479  0.25394  1.0000
  C   C288      1.0  0.00434  0.28788  0.39885  1.0000
  C   C289      1.0  0.43885  0.41422  0.24848  1.0000
  C   C290      1.0  0.05442  0.31830  0.39862  1.0000
  C   C291      1.0  0.11305  0.43316  0.11678  1.0000
  H   H229      1.0  0.16016  0.37813  0.47715  1.0000
  H   H230      1.0  0.31287  0.27483  0.37585  1.0000
  H   H231      1.0  0.39245  0.33103  0.00131  1.0000
  H   H232      1.0  0.38808  0.26772  0.40909  1.0000
  H   H233      1.0  0.34331  0.47010  0.13522  1.0000
  Fe  Fe25      1.0  0.19876  0.23662  0.37919  1.0000
  C   C292      1.0  0.20579  0.46916  0.17939  1.0000
  C   C293      1.0  0.07240  0.44407  0.02641  1.0000
  C   C294      1.0  0.25989  0.26604  0.16906  1.0000
  H   H234      1.0  0.37824  0.27711  0.32924  1.0000
  H   H235      1.0  0.33548  0.29192  0.33898  1.0000
  C   C295      1.0  0.03781  0.23185  0.39515  1.0000
  C   C296      1.0  0.06053  0.27050  0.32600  1.0000
  H   H236      1.0  0.09071  0.33053  0.44100  1.0000
  C   C297      1.0  0.25262  0.28541  0.47561  1.0000
  H   H237      1.0  0.44907  0.33228  0.14202  1.0000
  C   C298      1.0  0.36904  0.36252  0.45726  1.0000
  C   C299      1.0  0.01719  0.28574  0.37623  1.0000
  H   H238      1.0  0.24067  0.36676  0.42173  1.0000
  H   H239      1.0  0.33241  0.24304  0.40283  1.0000
  H   H240      1.0  0.23340  0.45523  0.25171  1.0000
  C   C300      1.0  0.37681  0.44911  0.14123  1.0000
  S   S55       1.0  0.46862  0.44484  0.15573  1.0000
  C   C301      1.0  0.34059  0.44642  0.16782  1.0000
  C   C302      1.0  0.35272  0.42926  0.18328  1.0000
  C   C303      1.0  0.37726  0.42219  0.17808  1.0000
  C   C304      1.0  0.38912  0.43198  0.15662  1.0000
  P   P9        1.0  0.39371  0.40097  0.19849  1.0000
  C   C305      1.0  0.37322  0.38525  0.22021  1.0000
  C   C306      1.0  0.41169  0.37996  0.18005  1.0000
  C   C307      1.0  0.40030  0.36636  0.16520  1.0000
  C   C308      1.0  0.41366  0.34884  0.15206  1.0000
  C   C309      1.0  0.43868  0.34564  0.15254  1.0000
  C   C310      1.0  0.45033  0.35999  0.16633  1.0000
  C   C311      1.0  0.43692  0.37697  0.18021  1.0000
  C   C312      1.0  0.35922  0.39811  0.23781  1.0000
  C   C313      1.0  0.34233  0.38665  0.25380  1.0000
  C   C314      1.0  0.33962  0.36213  0.25276  1.0000
  C   C315      1.0  0.35406  0.34896  0.23593  1.0000
  C   C316      1.0  0.37095  0.36036  0.21990  1.0000
  C   C317      1.0  0.41342  0.41592  0.21511  1.0000
  C   C318      1.0  0.42255  0.43778  0.20576  1.0000
  C   C319      1.0  0.27866  0.47295  0.09783  1.0000
  C   C320      1.0  0.47875  0.26719  0.29158  1.0000
  H   H241      1.0  0.40748  0.28518  0.44055  1.0000
  C   C321      1.0  0.42164  0.40428  0.23662  1.0000
  C   C322      1.0  0.47145  0.25965  0.42188  1.0000
  C   C323      1.0  0.41693  0.25098  0.45972  1.0000
  C   C324      1.0  0.16026  0.27859  0.44381  1.0000
  H   H242      1.0  0.34260  0.42156  0.19903  1.0000
  H   H243      1.0  0.40789  0.42648  0.15174  1.0000
  H   H244      1.0  0.38090  0.36867  0.16455  1.0000
  H   H245      1.0  0.40441  0.33764  0.14178  1.0000
  C   C325      1.0  0.99966  0.43194  0.47318  1.0000
  C   C326      1.0  0.26288  0.24655  0.45921  1.0000
  H   H246      1.0  0.44644  0.38767  0.19085  1.0000
  H   H247      1.0  0.36057  0.41727  0.23852  1.0000
  H   H248      1.0  0.33068  0.39705  0.26640  1.0000
  H   H249      1.0  0.32598  0.35346  0.26464  1.0000
  H   H250      1.0  0.35175  0.33000  0.23485  1.0000
  H   H251      1.0  0.38182  0.34957  0.20725  1.0000
  S   S56       1.0  0.35694  0.23678  0.18579  1.0000
  H   H252      1.0  0.34562  0.27938  0.24863  1.0000
  H   H253      1.0  0.39008  0.47166  0.02413  1.0000
  H   H254      1.0  0.98836  0.27776  0.46079  1.0000
  H   H255      1.0  0.41520  0.38717  0.24389  1.0000
  H   H256      1.0  0.20020  0.38742  0.43154  1.0000
  C   C327      1.0  0.08291  0.32031  0.42848  1.0000
  C   C328      1.0  0.32696  0.39650  0.02687  1.0000
  C   C329      1.0  0.26483  0.25057  0.18955  1.0000
  C   C330      1.0  0.26421  0.28520  0.21301  1.0000
  H   H257      1.0  0.44742  0.46414  0.20995  1.0000
  C   C331      1.0  0.01535  0.47098  0.47335  1.0000
  H   H258      1.0  0.04706  0.46090  0.10024  1.0000
  H   H259      1.0  0.10585  0.37477  0.45686  1.0000
  C   C332      1.0  0.46204  0.38466  0.33419  1.0000
  H   H260      1.0  0.18225  0.42409  0.21663  1.0000
  H   H261      1.0  0.19524  0.43423  0.17339  1.0000
  H   H262      1.0  0.37547  0.39773  0.44007  1.0000
  C   C333      1.0  0.01851  0.44568  0.47651  1.0000
  H   H263      1.0  0.27815  0.47367  0.02821  1.0000
  H   H264      1.0  0.23559  0.43824  0.04855  1.0000
  Fe  Fe26      1.0  0.24627  0.23836  0.40152  1.0000
  C   C334      1.0  0.35959  0.31254  0.10843  1.0000
  C   C335      1.0  0.37659  0.29416  0.11608  1.0000
  C   C336      1.0  0.40113  0.29701  0.11121  1.0000
  C   C337      1.0  0.40870  0.31853  0.09931  1.0000
  C   C338      1.0  0.39171  0.33759  0.09262  1.0000
  C   C339      1.0  0.36708  0.33397  0.09634  1.0000
  P   P10       1.0  0.40122  0.36607  0.07843  1.0000
  C   C340      1.0  0.37908  0.39063  0.08591  1.0000
  C   C341      1.0  0.42950  0.37223  0.08899  1.0000
  C   C342      1.0  0.43034  0.38972  0.10549  1.0000
  C   C343      1.0  0.37622  0.41155  0.07004  1.0000
  C   C344      1.0  0.35949  0.43068  0.07624  1.0000
  C   C345      1.0  0.34539  0.42903  0.09819  1.0000
  C   C346      1.0  0.34853  0.40854  0.11435  1.0000
  C   C347      1.0  0.36552  0.38959  0.10842  1.0000
  C   C348      1.0  0.40576  0.36433  0.04611  1.0000
  C   C349      1.0  0.39587  0.34639  0.03491  1.0000
  C   C350      1.0  0.40012  0.34487  0.00992  1.0000
  H   H265      1.0  0.34056  0.31034  0.11234  1.0000
  H   H266      1.0  0.37072  0.27776  0.12592  1.0000
  H   H267      1.0  0.41427  0.28262  0.11704  1.0000
  H   H268      1.0  0.42777  0.32036  0.09608  1.0000
  H   H269      1.0  0.35358  0.34787  0.09040  1.0000
  H   H270      1.0  0.41421  0.40006  0.11220  1.0000
  H   H271      1.0  0.38706  0.41342  0.05303  1.0000
  H   H272      1.0  0.35764  0.44685  0.06402  1.0000
  H   H273      1.0  0.33222  0.44372  0.10279  1.0000
  H   H274      1.0  0.33794  0.40731  0.13161  1.0000
  H   H275      1.0  0.36802  0.37418  0.12150  1.0000
  H   H276      1.0  0.38490  0.33355  0.04533  1.0000
  C   C351      1.0  0.20234  0.25221  0.26813  1.0000
  C   C352      1.0  0.23374  0.36186  0.38509  1.0000
  H   H277      1.0  0.45342  0.37642  0.35069  1.0000
  C   C353      1.0  0.19429  0.37773  0.37303  1.0000
  C   C354      1.0  0.21709  0.36589  0.36757  1.0000
  P   P11       1.0  0.17216  0.38074  0.35113  1.0000
  C   C355      1.0  0.18668  0.38665  0.32117  1.0000
  C   C356      1.0  0.17923  0.37634  0.30130  1.0000
  C   C357      1.0  0.19082  0.38080  0.27824  1.0000
  C   C358      1.0  0.20960  0.39591  0.27477  1.0000
  C   C359      1.0  0.32629  0.25163  0.45698  1.0000
  C   C360      1.0  0.20524  0.40222  0.31746  1.0000
  C   C361      1.0  0.15115  0.40684  0.35608  1.0000
  C   C362      1.0  0.15940  0.42795  0.36322  1.0000
  C   C363      1.0  0.14329  0.44807  0.36763  1.0000
  C   C364      1.0  0.11883  0.44737  0.36478  1.0000
  C   C365      1.0  0.11058  0.42678  0.35684  1.0000
  C   C366      1.0  0.12674  0.40673  0.35206  1.0000
  H   H278      1.0  0.25117  0.35237  0.38073  1.0000
  H   H279      1.0  0.22193  0.35946  0.34986  1.0000
  H   H280      1.0  0.12921  0.36325  0.37980  1.0000
  H   H281      1.0  0.16470  0.36462  0.30356  1.0000
  H   H282      1.0  0.18571  0.37206  0.26307  1.0000
  H   H283      1.0  0.21892  0.39879  0.25697  1.0000
  H   H284      1.0  0.17826  0.42884  0.36573  1.0000
  H   H285      1.0  0.14976  0.46412  0.37356  1.0000
  C   C367      1.0  0.19632  0.44713  0.18662  1.0000
  H   H286      1.0  0.09159  0.42628  0.35465  1.0000
  H   H287      1.0  0.12008  0.39117  0.34546  1.0000
  C   C368      1.0  0.34976  0.39345  0.01454  1.0000
  H   H288      1.0  0.17555  0.34507  0.44318  1.0000
  C   C369      1.0  0.14961  0.42705  0.13758  1.0000
  C   C370      1.0  0.15400  0.45114  0.13124  1.0000
  C   C371      1.0  0.13804  0.46622  0.11753  1.0000
  C   C372      1.0  0.11779  0.45714  0.10953  1.0000
  H   H289      1.0  0.41279  0.32365  0.46419  1.0000
  P   P12       1.0  0.09633  0.47663  0.09276  1.0000
  C   C373      1.0  0.19144  0.45775  0.22810  1.0000
  C   C374      1.0  0.08671  0.46319  0.06731  1.0000
  Fe  Fe27      1.0  0.43528  0.23480  0.22624  1.0000
  C   C375      1.0  0.06116  0.46590  0.03386  1.0000
  C   C376      1.0  0.46094  0.23287  0.32664  1.0000
  H   H290      1.0  0.28444  0.47511  0.29764  1.0000
  H   H291      1.0  0.31748  0.23652  0.45195  1.0000
  C   C377      1.0  0.27943  0.46747  0.47538  1.0000
  C   C378      1.0  0.34371  0.24789  0.47370  1.0000
  H   H292      1.0  0.36629  0.36913  0.47506  1.0000
  H   H293      1.0  0.46277  0.43467  0.06280  1.0000
  H   H294      1.0  0.04031  0.32723  0.38807  1.0000
  H   H295      1.0  0.42150  0.33347  0.25903  1.0000
  H   H296      1.0  0.38584  0.45640  0.12459  1.0000
  H   H297      1.0  0.17010  0.45798  0.13650  1.0000
  S   S57       1.0  0.15841  0.23492  0.39035  1.0000
  H   H298      1.0  0.37408  0.46155  0.22332  1.0000
  C   C379      1.0  0.24355  0.23725  0.25638  1.0000
  H   H299      1.0  0.24533  0.30403  0.47331  1.0000
  C   C380      1.0  0.25907  0.30053  0.19258  1.0000
  H   H300      1.0  0.21184  0.47330  0.16056  1.0000
  C   C381      1.0  0.03943  0.23960  0.46078  1.0000
  C   C382      1.0  0.34828  0.29101  0.47071  1.0000
  H   H301      1.0  0.18613  0.45284  0.24695  1.0000
  C   C383      1.0  0.29209  0.25398  0.25601  1.0000
  C   C384      1.0  0.04933  0.47313  0.11373  1.0000
  H   H302      1.0  0.32463  0.31264  0.44685  1.0000
  C   C385      1.0  0.30176  0.38838  0.08269  1.0000
  H   H303      1.0  0.38028  0.34025  0.39289  1.0000
  H   H304      1.0  0.10032  0.41554  0.03269  1.0000
  C   C386      1.0  0.21670  0.40673  0.29434  1.0000
  S   S58       1.0  0.19014  0.45197  0.41736  1.0000
  C   C387      1.0  0.22775  0.36973  0.40816  1.0000
  H   H305      1.0  0.46574  0.26692  0.43908  1.0000
  C   C388      1.0  0.12911  0.32592  0.37342  1.0000
  C   C389      1.0  0.37435  0.37885  0.43739  1.0000
  C   C390      1.0  0.09819  0.44146  0.05944  1.0000
  H   H306      1.0  0.24601  0.27765  0.43954  1.0000
  H   H307      1.0  0.11333  0.43227  0.06822  1.0000
  Fe  Fe28      1.0  0.23366  0.27409  0.35822  1.0000
  C   C391      1.0  0.13825  0.34860  0.37002  1.0000
  H   H308      1.0  0.45402  0.42099  0.34476  1.0000
  C   C392      1.0  0.31293  0.26335  0.24438  1.0000
  H   H309      1.0  0.19565  0.47291  0.06807  1.0000
  C   C393      1.0  0.47370  0.42042  0.30976  1.0000
  H   H310      1.0  0.33745  0.28064  0.29310  1.0000
  C   C394      1.0  0.31960  0.27498  0.44729  1.0000
  H   H311      1.0  0.37138  0.31120  0.42781  1.0000
  C   C395      1.0  0.00477  0.29015  0.35522  1.0000
  C   C396      1.0  0.41407  0.36133  0.99597  1.0000
  C   C397      1.0  0.28254  0.39833  0.06933  1.0000
  H   H312      1.0  0.29100  0.41437  0.99486  1.0000
  H   H313      1.0  0.06735  0.43700  0.01024  1.0000
  H   H314      1.0  0.17026  0.39306  0.40149  1.0000
  C   C398      1.0  0.99981  0.26110  0.46043  1.0000
  H   H315      1.0  0.23135  0.41832  0.29167  1.0000
  H   H316      1.0  0.21104  0.41066  0.33246  1.0000
  C   C399      1.0  0.25295  0.27050  0.45650  1.0000
  H   H317      1.0  0.47783  0.32370  0.20245  1.0000
  H   H318      1.0  0.31691  0.38086  0.03176  1.0000
  C   C400      1.0  0.32988  0.43973  0.02445  1.0000
  C   C401      1.0  0.16430  0.29246  0.42194  1.0000
  H   H319      1.0  0.02110  0.24048  0.40276  1.0000
  C   C402      1.0  0.41997  0.38059  0.03198  1.0000
  S   S59       1.0  0.03732  0.28817  0.46451  1.0000
  H   H320      1.0  0.22543  0.27061  0.24136  1.0000
  S   S60       1.0  0.26630  0.24928  0.36624  1.0000
  C   C403      1.0  0.31701  0.41965  0.03228  1.0000
  C   C404      1.0  0.45111  0.35989  0.08021  1.0000
  C   C405      1.0  0.46768  0.23583  0.41845  1.0000
  C   C406      1.0  0.35278  0.43652  0.01243  1.0000
  P   P13       1.0  0.28693  0.42342  0.04685  1.0000
  C   C407      1.0  0.26538  0.42537  0.02432  1.0000
  C   C408      1.0  0.24034  0.46907  0.26086  1.0000
  H   H321      1.0  0.31923  0.39533  0.07932  1.0000
  H   H322      1.0  0.10629  0.46275  0.36886  1.0000
  C   C409      1.0  0.29662  0.46493  0.22305  1.0000
  H   H323      1.0  0.10478  0.28729  0.43712  1.0000
  C   C410      1.0  0.24128  0.43336  0.03045  1.0000
  C   C411      1.0  0.22433  0.43497  0.01331  1.0000
  C   C412      1.0  0.06474  0.33144  0.41460  1.0000
  C   C413      1.0  0.32459  0.27371  0.28271  1.0000
  H   H324      1.0  0.17281  0.29377  0.34032  1.0000
  C   C414      1.0  0.17168  0.32637  0.44369  1.0000
  H   H325      1.0  0.45103  0.34685  0.06695  1.0000
  C   C415      1.0  0.07686  0.23341  0.37272  1.0000
  P   P14       1.0  0.04933  0.27758  0.37476  1.0000
  H   H326      1.0  0.13457  0.28849  0.36557  1.0000
  H   H327      1.0  0.32233  0.45791  0.02724  1.0000
  H   H328      1.0  0.20571  0.44087  0.01832  1.0000
  H   H329      1.0  0.28522  0.43453  0.09805  1.0000
  C   C416      1.0  0.08819  0.31005  0.31680  1.0000
  H   H330      1.0  0.45285  0.40780  0.12612  1.0000
  H   H331      1.0  0.18746  0.26595  0.26637  1.0000
  C   C417      1.0  0.20003  0.23218  0.28487  1.0000
  C   C418      1.0  0.28268  0.45127  0.06154  1.0000
  C   C419      1.0  0.40823  0.46594  0.05699  1.0000
  S   S61       1.0  0.99874  0.33977  0.42853  1.0000
  H   H332      1.0  0.39402  0.47572  0.06753  1.0000
  H   H333      1.0  0.47423  0.43988  0.30732  1.0000
  H   H334      1.0  0.01361  0.28487  0.41524  1.0000
  C   C420      1.0  0.45233  0.39426  0.11348  1.0000
  H   H335      1.0  0.09905  0.32528  0.31329  1.0000
  C   C421      1.0  0.98978  0.23941  0.45826  1.0000
  S   S62       1.0  0.16579  0.45863  0.47285  1.0000
  H   H336      1.0  0.11283  0.32349  0.38501  1.0000
  C   C422      1.0  0.35271  0.45667  0.14705  1.0000
  H   H337      1.0  0.16232  0.41525  0.14769  1.0000
  H   H338      1.0  0.17371  0.32686  0.40483  1.0000
  H   H339      1.0  0.08678  0.26404  0.40884  1.0000
  C   C423      1.0  0.02462  0.26119  0.46174  1.0000
  C   C424      1.0  0.43991  0.44761  0.21761  1.0000
  C   C425      1.0  0.12906  0.41810  0.13048  1.0000
  C   C426      1.0  0.45547  0.34651  0.26500  1.0000
  C   C427      1.0  0.17179  0.33191  0.34439  1.0000
  H   H340      1.0  0.18885  0.33367  0.33380  1.0000
  C   C428      1.0  0.37974  0.25194  0.36086  1.0000
  H   H341      1.0  0.36260  0.45203  0.00631  1.0000
  H   H342      1.0  0.42786  0.39450  0.04023  1.0000
  C   C429      1.0  0.47936  0.34912  0.25574  1.0000
  C   C430      1.0  0.06223  0.29389  0.39630  1.0000
  C   C431      1.0  0.32923  0.27293  0.25771  1.0000
  H   H343      1.0  0.44522  0.40497  0.26490  1.0000
  C   C432      1.0  0.44821  0.43572  0.23883  1.0000
  C   C433      1.0  0.25971  0.46262  0.27502  1.0000
  C   C434      1.0  0.43982  0.33581  0.25173  1.0000
  C   C435      1.0  0.42403  0.37913  0.00702  1.0000
  C   C436      1.0  0.18911  0.44142  0.21097  1.0000
  S   S63       1.0  0.23658  0.45274  0.46432  1.0000
  C   C437      1.0  0.47319  0.37016  0.31647  1.0000
  C   C438      1.0  0.14132  0.30622  0.36243  1.0000
  C   C439      1.0  0.16281  0.30919  0.34814  1.0000
  H   H344      1.0  0.46218  0.44294  0.24755  1.0000
  C   C440      1.0  0.08056  0.28283  0.41020  1.0000
  H   H345      1.0  0.31392  0.47451  0.25344  1.0000
  S   S64       1.0  0.42010  0.44377  0.98872  1.0000
  C   C441      1.0  0.33045  0.29460  0.45416  1.0000
  C   C442      1.0  0.07686  0.30506  0.33989  1.0000
  C   C443      1.0  0.30346  0.26522  0.29431  1.0000
  H   H346      1.0  0.27865  0.46124  0.19113  1.0000
  H   H347      1.0  0.39834  0.24562  0.35626  1.0000
  C   C444      1.0  0.06295  0.28520  0.34469  1.0000
  C   C445      1.0  0.26694  0.26008  0.21170  1.0000
  H   H348      1.0  0.07923  0.31666  0.35387  1.0000
  C   C446      1.0  0.28565  0.47366  0.20203  1.0000
  C   C447      1.0  0.05495  0.24531  0.38134  1.0000
  H   H349      1.0  0.09450  0.29919  0.28047  1.0000
  C   C448      1.0  0.03010  0.47846  0.13077  1.0000
  C   C449      1.0  0.28276  0.45125  0.08674  1.0000
  Fe  Fe29      1.0  0.20032  0.46655  0.45105  1.0000
  C   C450      1.0  0.33161  0.26859  0.37176  1.0000
  C   C451      1.0  0.44789  0.32764  0.22920  1.0000
  H   H350      1.0  0.44887  0.35240  0.28249  1.0000
  H   H351      1.0  0.43308  0.47374  0.41802  1.0000
  H   H352      1.0  0.26772  0.44414  0.27629  1.0000
  H   H353      1.0  0.25667  0.31981  0.19397  1.0000
  S   S65       1.0  0.46272  0.26263  0.22076  1.0000
  H   H354      1.0  0.05005  0.25496  0.32936  1.0000
  H   H355      1.0  0.12569  0.39941  0.13535  1.0000
  H   H356      1.0  0.42542  0.25868  0.47365  1.0000
  C   C452      1.0  0.39499  0.23053  0.42378  1.0000
  C   C453      1.0  0.23141  0.42909  0.98974  1.0000
  C   C454      1.0  0.28728  0.25532  0.28106  1.0000
  C   C455      1.0  0.36759  0.33800  0.45408  1.0000
  C   C456      1.0  0.47304  0.36437  0.08843  1.0000
  H   H357      1.0  0.25296  0.30306  0.15482  1.0000
  H   H358      1.0  0.25838  0.25865  0.15199  1.0000
  H   H359      1.0  0.32176  0.45191  0.17214  1.0000
  H   H360      1.0  0.00229  0.41245  0.47576  1.0000
  H   H361      1.0  0.09079  0.24342  0.36282  1.0000
  H   H362      1.0  0.28660  0.44901  0.47340  1.0000
  H   H363      1.0  0.01320  0.47060  0.13010  1.0000
  C   C457      1.0  0.06833  0.47549  0.05417  1.0000
  H   H364      1.0  0.26698  0.23129  0.18800  1.0000
  C   C458      1.0  0.25513  0.47433  0.47180  1.0000
  H   H365      1.0  0.18758  0.41053  0.47285  1.0000
  H   H366      1.0  0.21133  0.24043  0.45295  1.0000
  P   P15       1.0  0.27190  0.24045  0.23863  1.0000
  H   H367      1.0  0.42423  0.47721  0.46208  1.0000
  C   C459      1.0  0.16201  0.28855  0.46569  1.0000
  C   C460      1.0  0.47363  0.38143  0.10519  1.0000
  C   C461      1.0  0.16782  0.31252  0.46580  1.0000
  H   H368      1.0  0.04737  0.47566  0.02345  1.0000
  H   H369      1.0  0.18342  0.23037  0.29619  1.0000
  C   C462      1.0  0.20084  0.48006  0.22097  1.0000
  C   C463      1.0  0.26928  0.48009  0.28690  1.0000
  S   S66       1.0  0.02096  0.35317  0.47809  1.0000
  Fe  Fe30      1.0  0.03352  0.44403  0.84566  1.0000
  S   S67       1.0  0.07216  0.44189  0.85571  1.0000
  S   S68       1.0  0.06337  0.26835  0.72989  1.0000
  H   H370      1.0  0.20191  0.47586  0.58042  1.0000
  S   S69       1.0  0.13126  0.25744  0.71499  1.0000
  C   C464      1.0  0.27188  0.23744  0.48120  1.0000
  H   H371      1.0  0.36190  0.25726  0.68565  1.0000
  C   C465      1.0  0.26136  0.29424  0.69564  1.0000
  S   S70       1.0  0.40029  0.44729  0.50480  1.0000
  Fe  Fe31      1.0  0.26118  0.42076  0.74832  1.0000
  S   S71       1.0  0.29854  0.41083  0.75938  1.0000
  S   S72       1.0  0.24865  0.45599  0.72840  1.0000
  Fe  Fe32      1.0  0.24307  0.37144  0.76689  1.0000
  S   S73       1.0  0.27902  0.35828  0.78080  1.0000
  S   S74       1.0  0.20955  0.35350  0.75960  1.0000
  Fe  Fe33      1.0  0.28004  0.39558  0.79422  1.0000
  S   S75       1.0  0.28743  0.40531  0.83232  1.0000
  Fe  Fe34      1.0  0.29469  0.37490  0.74501  1.0000
  S   S76       1.0  0.32210  0.35416  0.72020  1.0000
  S   S77       1.0  0.24237  0.40719  0.78325  1.0000
  S   S78       1.0  0.25908  0.38643  0.73107  1.0000
  Fe  Fe35      1.0  0.98269  0.46462  0.85982  1.0000
  S   S79       1.0  0.35924  0.45555  0.95329  1.0000
  H   H372      1.0  0.46883  0.38584  0.50764  1.0000
  S   S80       1.0  0.99993  0.45692  0.67301  1.0000
  C   C466      1.0  0.00544  0.34232  0.71035  1.0000
  H   H373      1.0  0.25158  0.47726  0.52191  1.0000
  C   C467      1.0  0.08931  0.24642  0.51322  1.0000
  H   H374      1.0  0.22206  0.27009  0.71125  1.0000
  Fe  Fe36      1.0  0.99061  0.41957  0.83013  1.0000
  H   H375      1.0  0.98031  0.32160  0.73323  1.0000
  C   C468      1.0  0.46907  0.44267  0.52503  1.0000
  S   S81       1.0  0.29851  0.33678  0.61356  1.0000
  H   H376      1.0  0.28128  0.34233  0.51894  1.0000
  H   H377      1.0  0.12491  0.45477  0.91875  1.0000
  H   H378      1.0  0.11257  0.45231  0.69272  1.0000
  C   C469      1.0  0.30941  0.42082  0.84506  1.0000
  C   C470      1.0  0.33191  0.42475  0.83299  1.0000
  C   C471      1.0  0.34896  0.43638  0.84412  1.0000
  C   C472      1.0  0.34382  0.44454  0.86744  1.0000
  C   C473      1.0  0.32125  0.44070  0.87950  1.0000
  C   C474      1.0  0.30431  0.42884  0.86844  1.0000
  H   H379      1.0  0.33634  0.41836  0.81527  1.0000
  H   H380      1.0  0.00085  0.31545  0.55304  1.0000
  H   H381      1.0  0.31686  0.44676  0.89739  1.0000
  H   H382      1.0  0.28706  0.42586  0.87810  1.0000
  C   C475      1.0  0.31385  0.34824  0.69136  1.0000
  C   C476      1.0  0.32437  0.32762  0.68039  1.0000
  C   C477      1.0  0.31897  0.32317  0.65701  1.0000
  C   C478      1.0  0.30382  0.33992  0.64398  1.0000
  C   C479      1.0  0.29367  0.36070  0.65477  1.0000
  C   C480      1.0  0.29817  0.36457  0.67851  1.0000
  H   H383      1.0  0.33681  0.31508  0.68999  1.0000
  H   H384      1.0  0.32710  0.30717  0.64884  1.0000
  H   H385      1.0  0.28241  0.37398  0.64462  1.0000
  H   H386      1.0  0.29038  0.38078  0.68642  1.0000
  C   C481      1.0  0.43034  0.43704  0.51056  1.0000
  C   C482      1.0  0.43899  0.41330  0.50601  1.0000
  C   C483      1.0  0.46258  0.40429  0.51083  1.0000
  C   C484      1.0  0.21794  0.38760  0.48491  1.0000
  C   C485      1.0  0.02855  0.26095  0.57247  1.0000
  C   C486      1.0  0.44558  0.45179  0.51986  1.0000
  C   C487      1.0  0.35466  0.26743  0.48059  1.0000
  H   H387      1.0  0.14265  0.24150  0.60301  1.0000
  H   H388      1.0  0.12230  0.27545  0.57847  1.0000
  H   H389      1.0  0.43917  0.47007  0.52348  1.0000
  H   H390      1.0  0.99517  0.44938  0.76134  1.0000
  H   H391      1.0  0.11414  0.39214  0.69611  1.0000
  P   P16       1.0  0.36161  0.31678  0.47995  1.0000
  H   H392      1.0  0.28234  0.46376  0.76340  1.0000
  C   C488      1.0  0.05666  0.46737  0.52097  1.0000
  C   C489      1.0  0.35478  0.44285  0.71729  1.0000
  Fe  Fe37      1.0  0.14701  0.23512  0.74608  1.0000
  C   C490      1.0  0.26214  0.27639  0.49746  1.0000
  Fe  Fe38      1.0  0.30143  0.30071  0.59686  1.0000
  P   P17       1.0  0.16662  0.32653  0.49396  1.0000
  H   H393      1.0  0.12272  0.29042  0.88291  1.0000
  C   C491      1.0  0.18631  0.27618  0.76503  1.0000
  C   C492      1.0  0.18115  0.29247  0.74522  1.0000
  C   C493      1.0  0.19011  0.31543  0.74283  1.0000
  C   C494      1.0  0.20415  0.32251  0.76026  1.0000
  C   C495      1.0  0.21046  0.30573  0.77935  1.0000
  C   C496      1.0  0.20155  0.28268  0.78170  1.0000
  H   H394      1.0  0.16970  0.28765  0.73210  1.0000
  H   H395      1.0  0.18539  0.32814  0.72784  1.0000
  H   H396      1.0  0.22115  0.31092  0.79297  1.0000
  H   H397      1.0  0.20583  0.27014  0.79699  1.0000
  C   C497      1.0  0.21861  0.24165  0.62183  1.0000
  C   C498      1.0  0.03549  0.25594  0.73201  1.0000
  C   C499      1.0  0.01418  0.27119  0.73435  1.0000
  C   C500      1.0  0.99165  0.26169  0.73597  1.0000
  H   H398      1.0  0.01517  0.29032  0.73521  1.0000
  C   C501      1.0  0.35336  0.42706  0.75929  1.0000
  C   C502      1.0  0.07790  0.44680  0.88563  1.0000
  C   C503      1.0  0.05948  0.44704  0.90430  1.0000
  C   C504      1.0  0.06475  0.44940  0.92819  1.0000
  C   C505      1.0  0.08836  0.45201  0.93362  1.0000
  C   C506      1.0  0.10665  0.45284  0.91479  1.0000
  C   C507      1.0  0.10145  0.45002  0.89092  1.0000
  H   H399      1.0  0.04125  0.44476  0.90049  1.0000
  C   C508      1.0  0.28223  0.27685  0.74134  1.0000
  C   C509      1.0  0.24863  0.31308  0.70781  1.0000
  C   C510      1.0  0.23685  0.33260  0.69485  1.0000
  C   C511      1.0  0.23761  0.33341  0.66964  1.0000
  C   C512      1.0  0.27320  0.26522  0.76328  1.0000
  C   C513      1.0  0.27880  0.27256  0.78533  1.0000
  C   C514      1.0  0.29353  0.29140  0.78566  1.0000
  C   C515      1.0  0.30236  0.30316  0.76394  1.0000
  C   C516      1.0  0.29626  0.29631  0.74193  1.0000
  H   H400      1.0  0.24742  0.31258  0.72737  1.0000
  H   H401      1.0  0.22704  0.34694  0.70453  1.0000
  H   H402      1.0  0.22837  0.34839  0.65957  1.0000
  C   C517      1.0  0.38962  0.30759  0.49349  1.0000
  C   C518      1.0  0.25358  0.24547  0.71797  1.0000
  H   H403      1.0  0.29777  0.29721  0.80272  1.0000
  H   H404      1.0  0.31355  0.31799  0.76405  1.0000
  H   H405      1.0  0.03544  0.43642  0.48145  1.0000
  H   H406      1.0  0.15842  0.27772  0.48246  1.0000
  C   C519      1.0  0.02177  0.29017  0.79225  1.0000
  C   C520      1.0  0.10644  0.30060  0.84943  1.0000
  C   C521      1.0  0.10795  0.29828  0.82442  1.0000
  C   C522      1.0  0.12685  0.28313  0.81404  1.0000
  P   P18       1.0  0.08591  0.31428  0.80561  1.0000
  C   C523      1.0  0.06271  0.29492  0.80136  1.0000
  C   C524      1.0  0.07236  0.34087  0.81975  1.0000
  C   C525      1.0  0.05391  0.33841  0.83843  1.0000
  C   C526      1.0  0.04403  0.35843  0.85043  1.0000
  C   C527      1.0  0.05270  0.38100  0.84416  1.0000
  C   C528      1.0  0.07067  0.38377  0.82536  1.0000
  C   C529      1.0  0.08030  0.36390  0.81297  1.0000
  C   C530      1.0  0.03950  0.30503  0.79652  1.0000
  H   H407      1.0  0.20131  0.36962  0.54286  1.0000
  C   C531      1.0  0.05026  0.25504  0.79703  1.0000
  S   S82       1.0  0.21381  0.47629  0.94548  1.0000
  C   C532      1.0  0.06801  0.26981  0.80140  1.0000
  C   C533      1.0  0.10220  0.32213  0.77699  1.0000
  C   C534      1.0  0.09580  0.31381  0.75562  1.0000
  C   C535      1.0  0.10937  0.31869  0.73373  1.0000
  C   C536      1.0  0.12947  0.33188  0.73305  1.0000
  C   C537      1.0  0.13609  0.34001  0.75433  1.0000
  C   C538      1.0  0.12287  0.33468  0.77627  1.0000
  H   H408      1.0  0.36789  0.26384  0.49374  1.0000
  H   H409      1.0  0.30166  0.47626  0.94449  1.0000
  H   H410      1.0  0.09216  0.31207  0.85799  1.0000
  H   H411      1.0  0.12849  0.28080  0.79482  1.0000
  H   H412      1.0  0.04729  0.32095  0.84392  1.0000
  H   H413      1.0  0.02967  0.35653  0.86468  1.0000
  H   H414      1.0  0.04556  0.39638  0.85390  1.0000
  H   H415      1.0  0.07723  0.40140  0.82064  1.0000
  H   H416      1.0  0.09396  0.36681  0.79839  1.0000
  H   H417      1.0  0.03512  0.32440  0.79582  1.0000
  Fe  Fe39      1.0  0.28355  0.25061  0.60107  1.0000
  H   H418      1.0  0.39929  0.46312  0.70020  1.0000
  C   C539      1.0  0.26580  0.45548  0.58756  1.0000
  H   H419      1.0  0.08594  0.26160  0.80422  1.0000
  H   H420      1.0  0.08060  0.30319  0.75580  1.0000
  H   H421      1.0  0.10458  0.31164  0.71745  1.0000
  H   H422      1.0  0.14036  0.33512  0.71623  1.0000
  H   H423      1.0  0.15207  0.34963  0.75412  1.0000
  H   H424      1.0  0.12909  0.33998  0.79274  1.0000
  H   H425      1.0  0.00501  0.38969  0.56678  1.0000
  C   C540      1.0  0.98249  0.33697  0.72010  1.0000
  C   C541      1.0  0.17697  0.42589  0.60809  1.0000
  H   H426      1.0  0.26100  0.41790  0.96476  1.0000
  C   C542      1.0  0.34113  0.33204  0.50175  1.0000
  H   H427      1.0  0.15878  0.25951  0.82008  1.0000
  C   C543      1.0  0.38930  0.29485  0.51642  1.0000
  C   C544      1.0  0.41083  0.28735  0.52692  1.0000
  C   C545      1.0  0.43282  0.29305  0.51493  1.0000
  H   H428      1.0  0.36630  0.43910  0.83456  1.0000
  C   C546      1.0  0.07365  0.46392  0.78683  1.0000
  C   C547      1.0  0.35018  0.34583  0.51823  1.0000
  C   C548      1.0  0.33449  0.35829  0.53468  1.0000
  C   C549      1.0  0.30969  0.35715  0.53484  1.0000
  C   C550      1.0  0.30049  0.34368  0.51842  1.0000
  C   C551      1.0  0.31610  0.33105  0.50198  1.0000
  C   C552      1.0  0.99405  0.40346  0.55686  1.0000
  C   C553      1.0  0.14265  0.27352  0.85315  1.0000
  S   S83       1.0  0.00207  0.42758  0.86655  1.0000
  H   H429      1.0  0.32733  0.27393  0.71096  1.0000
  H   H430      1.0  0.42173  0.46740  0.62445  1.0000
  H   H431      1.0  0.23577  0.33926  0.55053  1.0000
  C   C554      1.0  0.40854  0.47195  0.63910  1.0000
  H   H432      1.0  0.11292  0.43424  0.48864  1.0000
  H   H433      1.0  0.37239  0.29041  0.52611  1.0000
  Fe  Fe40      1.0  0.33074  0.25911  0.57087  1.0000
  H   H434      1.0  0.07810  0.32992  0.48990  1.0000
  H   H435      1.0  0.00399  0.29806  0.78824  1.0000
  H   H436      1.0  0.11283  0.26318  0.48519  1.0000
  H   H437      1.0  0.36935  0.34707  0.51836  1.0000
  H   H438      1.0  0.34156  0.36863  0.54750  1.0000
  H   H439      1.0  0.29767  0.36629  0.54804  1.0000
  C   C555      1.0  0.21094  0.34564  0.49560  1.0000
  C   C556      1.0  0.34407  0.25207  0.68361  1.0000
  H   H440      1.0  0.30234  0.30637  0.72536  1.0000
  H   H441      1.0  0.02116  0.33089  0.71565  1.0000
  C   C557      1.0  0.19356  0.24246  0.62775  1.0000
  C   C558      1.0  0.18016  0.29532  0.56129  1.0000
  C   C559      1.0  0.41184  0.31345  0.48164  1.0000
  C   C560      1.0  0.01506  0.28334  0.57356  1.0000
  C   C561      1.0  0.13054  0.35774  0.51569  1.0000
  H   H442      1.0  0.30843  0.32028  0.48995  1.0000
  H   H443      1.0  0.05046  0.44885  0.94259  1.0000
  Fe  Fe41      1.0  0.09653  0.24192  0.72863  1.0000
  C   C562      1.0  0.07281  0.45232  0.53448  1.0000
  C   C563      1.0  0.03427  0.26801  0.52893  1.0000
  C   C564      1.0  0.35563  0.42317  0.73472  1.0000
  H   H444      1.0  0.98611  0.26451  0.63202  1.0000
  C   C565      1.0  0.13665  0.26243  0.54436  1.0000
  H   H445      1.0  0.18152  0.25308  0.61603  1.0000
  C   C566      1.0  0.10511  0.24665  0.49228  1.0000
  H   H446      1.0  0.12505  0.47108  0.55757  1.0000
  C   C567      1.0  0.23937  0.40194  0.66536  1.0000
  C   C568      1.0  0.08006  0.23465  0.58934  1.0000
  H   H447      1.0  0.05462  0.23579  0.79648  1.0000
  C   C569      1.0  0.18672  0.35046  0.49040  1.0000
  C   C570      1.0  0.23230  0.42544  0.62739  1.0000
  C   C571      1.0  0.23605  0.40297  0.64068  1.0000
  P   P19       1.0  0.22597  0.42787  0.59600  1.0000
  H   H448      1.0  0.27038  0.44935  0.60568  1.0000
  H   H449      1.0  0.24020  0.42232  0.69623  1.0000
  H   H450      1.0  0.00739  0.28925  0.59081  1.0000
  H   H451      1.0  0.34692  0.45353  0.78551  1.0000
  Fe  Fe42      1.0  0.39392  0.46666  0.96516  1.0000
  H   H452      1.0  0.22581  0.25146  0.60562  1.0000
  C   C572      1.0  0.43331  0.30621  0.49238  1.0000
  C   C573      1.0  0.35197  0.46659  0.72434  1.0000
  C   C574      1.0  0.23089  0.44670  0.63944  1.0000
  C   C575      1.0  0.41262  0.46347  0.66287  1.0000
  C   C576      1.0  0.22905  0.39957  0.58192  1.0000
  C   C577      1.0  0.24896  0.38268  0.58541  1.0000
  C   C578      1.0  0.25112  0.36094  0.57430  1.0000
  C   C579      1.0  0.23391  0.35614  0.55912  1.0000
  C   C580      1.0  0.21448  0.37316  0.55493  1.0000
  C   C581      1.0  0.21210  0.39482  0.56615  1.0000
  H   H453      1.0  0.24278  0.38470  0.67562  1.0000
  H   H454      1.0  0.18165  0.40751  0.61528  1.0000
  H   H455      1.0  0.08529  0.26282  0.52236  1.0000
  C   C582      1.0  0.00185  0.46793  0.70124  1.0000
  H   H456      1.0  0.23612  0.38623  0.63234  1.0000
  H   H457      1.0  0.22994  0.40199  0.48267  1.0000
  H   H458      1.0  0.41713  0.36040  0.97656  1.0000
  H   H459      1.0  0.26146  0.25084  0.76357  1.0000
  C   C583      1.0  0.25562  0.47109  0.54018  1.0000
  C   C584      1.0  0.05802  0.43481  0.66186  1.0000
  Fe  Fe43      1.0  0.00178  0.46916  0.80723  1.0000
  C   C585      1.0  0.07967  0.44479  0.77223  1.0000
  C   C586      1.0  0.23815  0.42316  0.67705  1.0000
  H   H460      1.0  0.26284  0.38615  0.59672  1.0000
  H   H461      1.0  0.26620  0.34770  0.57743  1.0000
  H   H462      1.0  0.03069  0.24947  0.58900  1.0000
  H   H463      1.0  0.11581  0.44990  0.87658  1.0000
  H   H464      1.0  0.19710  0.40790  0.56227  1.0000
  C   C587      1.0  0.30100  0.25528  0.69517  1.0000
  H   H465      1.0  0.01724  0.30143  0.51353  1.0000
  C   C588      1.0  0.10675  0.36737  0.52039  1.0000
  H   H466      1.0  0.12781  0.27726  0.53364  1.0000
  H   H467      1.0  0.20197  0.28395  0.49493  1.0000
  H   H468      1.0  0.04261  0.43033  0.65321  1.0000
  H   H469      1.0  0.21974  0.25863  0.52851  1.0000
  C   C589      1.0  0.34867  0.47029  0.74907  1.0000
  S   S84       1.0  0.31695  0.29703  0.55858  1.0000
  C   C590      1.0  0.34086  0.23605  0.66650  1.0000
  H   H470      1.0  0.35654  0.43951  0.69834  1.0000
  H   H471      1.0  0.44747  0.42210  0.58279  1.0000
  H   H472      1.0  0.35377  0.41178  0.77278  1.0000
  H   H473      1.0  0.45047  0.31079  0.48333  1.0000
  C   C591      1.0  0.08026  0.43325  0.69753  1.0000
  H   H474      1.0  0.98686  0.36683  0.62812  1.0000
  C   C592      1.0  0.30023  0.41605  0.55360  1.0000
  C   C593      1.0  0.30819  0.42756  0.53140  1.0000
  C   C594      1.0  0.33221  0.43270  0.52706  1.0000
  C   C595      1.0  0.34818  0.42653  0.54496  1.0000
  C   C596      1.0  0.34014  0.41582  0.56764  1.0000
  C   C597      1.0  0.31614  0.41001  0.57165  1.0000
  P   P20       1.0  0.36117  0.40665  0.59016  1.0000
  C   C598      1.0  0.37009  0.37523  0.58587  1.0000
  C   C599      1.0  0.38608  0.42545  0.58584  1.0000
  C   C600      1.0  0.40990  0.41545  0.58760  1.0000
  C   C601      1.0  0.42904  0.43005  0.58250  1.0000
  C   C602      1.0  0.40080  0.46505  0.57565  1.0000
  C   C603      1.0  0.38165  0.45049  0.58055  1.0000
  C   C604      1.0  0.35731  0.35705  0.59879  1.0000
  C   C605      1.0  0.36282  0.33285  0.59415  1.0000
  C   C606      1.0  0.38100  0.32657  0.57643  1.0000
  C   C607      1.0  0.39356  0.34457  0.56313  1.0000
  C   C608      1.0  0.38787  0.36886  0.56753  1.0000
  C   C609      1.0  0.34707  0.41129  0.62005  1.0000
  C   C610      1.0  0.32890  0.43013  0.62340  1.0000
  C   C611      1.0  0.31764  0.43343  0.64646  1.0000
  C   C612      1.0  0.32468  0.41819  0.66637  1.0000
  C   C613      1.0  0.34330  0.39994  0.66330  1.0000
  C   C614      1.0  0.35461  0.39661  0.64027  1.0000
  H   H475      1.0  0.28171  0.41176  0.55670  1.0000
  H   H476      1.0  0.29577  0.43244  0.51755  1.0000
  H   H477      1.0  0.33860  0.44139  0.50978  1.0000
  H   H478      1.0  0.36685  0.43005  0.54100  1.0000
  H   H479      1.0  0.30985  0.40058  0.58858  1.0000
  H   H480      1.0  0.41385  0.39638  0.59251  1.0000
  H   H481      1.0  0.36341  0.45875  0.57965  1.0000
  H   H482      1.0  0.34266  0.36150  0.61211  1.0000
  H   H483      1.0  0.35267  0.31898  0.60411  1.0000
  H   H484      1.0  0.38509  0.30776  0.57285  1.0000
  H   H485      1.0  0.40747  0.33971  0.54916  1.0000
  H   H486      1.0  0.39710  0.38264  0.55635  1.0000
  H   H487      1.0  0.32337  0.44223  0.60821  1.0000
  H   H488      1.0  0.30334  0.44769  0.64890  1.0000
  H   H489      1.0  0.31561  0.42031  0.68419  1.0000
  H   H490      1.0  0.34858  0.38799  0.67876  1.0000
  H   H491      1.0  0.36898  0.38234  0.63827  1.0000
  C   C615      1.0  0.13572  0.33815  0.50132  1.0000
  H   H492      1.0  0.15391  0.24573  0.51347  1.0000
  C   C616      1.0  0.98786  0.37742  0.68721  1.0000
  H   H493      1.0  0.20611  0.26581  0.57083  1.0000
  Fe  Fe44      1.0  0.12797  0.46491  0.97758  1.0000
  C   C617      1.0  0.14413  0.27091  0.82836  1.0000
  C   C618      1.0  0.23381  0.44552  0.66417  1.0000
  C   C619      1.0  0.15294  0.43541  0.61041  1.0000
  C   C620      1.0  0.28048  0.47128  0.57349  1.0000
  C   C621      1.0  0.19399  0.39248  0.47957  1.0000
  C   C622      1.0  0.22892  0.25165  0.71600  1.0000
  H   H494      1.0  0.02598  0.36727  0.68716  1.0000
  H   H495      1.0  0.42735  0.40173  0.49886  1.0000
  C   C623      1.0  0.20525  0.27242  0.53230  1.0000
  C   C624      1.0  0.21606  0.47492  0.87858  1.0000
  C   C625      1.0  0.21041  0.45119  0.88507  1.0000
  C   C626      1.0  0.21778  0.43310  0.86955  1.0000
  C   C627      1.0  0.23051  0.43883  0.84737  1.0000
  C   C628      1.0  0.23624  0.46252  0.84084  1.0000
  C   C629      1.0  0.01125  0.29807  0.55235  1.0000
  C   C630      1.0  0.24565  0.44767  0.57806  1.0000
  C   C631      1.0  0.15164  0.24460  0.53298  1.0000
  C   C632      1.0  0.22645  0.36414  0.49280  1.0000
  C   C633      1.0  0.34949  0.45058  0.76645  1.0000
  C   C634      1.0  0.02716  0.26518  0.79251  1.0000
  C   C635      1.0  0.29798  0.23933  0.67776  1.0000
  H   H496      1.0  0.00290  0.43221  0.57718  1.0000
  C   C636      1.0  0.06045  0.42724  0.68623  1.0000
  H   H497      1.0  0.20048  0.44681  0.90229  1.0000
  H   H498      1.0  0.21366  0.41464  0.87466  1.0000
  H   H499      1.0  0.23627  0.42477  0.83535  1.0000
  H   H500      1.0  0.24613  0.46653  0.82352  1.0000
  C   C637      1.0  0.15466  0.40581  0.74525  1.0000
  C   C638      1.0  0.16425  0.39226  0.72624  1.0000
  C   C639      1.0  0.14953  0.38732  0.70866  1.0000
  C   C640      1.0  0.12523  0.39605  0.71001  1.0000
  C   C641      1.0  0.11547  0.41016  0.72879  1.0000
  C   C642      1.0  0.13044  0.41486  0.74651  1.0000
  P   P21       1.0  0.08448  0.42304  0.72870  1.0000
  C   C643      1.0  0.21267  0.23392  0.72048  1.0000
  C   C644      1.0  0.06349  0.40105  0.74002  1.0000
  C   C645      1.0  0.06856  0.37645  0.73635  1.0000
  C   C646      1.0  0.05170  0.35990  0.74468  1.0000
  C   C647      1.0  0.02990  0.36770  0.75699  1.0000
  C   C648      1.0  0.02475  0.39209  0.76070  1.0000
  C   C649      1.0  0.04134  0.40871  0.75208  1.0000
  S   S85       1.0  0.17337  0.24803  0.77014  1.0000
  C   C650      1.0  0.24100  0.45519  0.55407  1.0000
  C   C651      1.0  0.19490  0.44013  0.59692  1.0000
  H   H501      1.0  0.24508  0.36023  0.49678  1.0000
  H   H502      1.0  0.22585  0.44911  0.54617  1.0000
  C   C652      1.0  0.07856  0.44847  0.74705  1.0000
  H   H503      1.0  0.42896  0.45226  0.66661  1.0000
  C   C653      1.0  0.11656  0.32799  0.49232  1.0000
  C   C654      1.0  0.08102  0.45836  0.48417  1.0000
  Fe  Fe45      1.0  0.98301  0.35742  0.49434  1.0000
  H   H504      1.0  0.31112  0.46375  0.69889  1.0000
  H   H505      1.0  0.16618  0.40938  0.75897  1.0000
  H   H506      1.0  0.18307  0.38542  0.72533  1.0000
  H   H507      1.0  0.15701  0.37666  0.69404  1.0000
  C   C655      1.0  0.27530  0.47920  0.54985  1.0000
  H   H508      1.0  0.12386  0.42580  0.76109  1.0000
  H   H509      1.0  0.08538  0.37001  0.72705  1.0000
  H   H510      1.0  0.05543  0.34100  0.74157  1.0000
  H   H511      1.0  0.01689  0.35493  0.76365  1.0000
  H   H512      1.0  0.00788  0.39811  0.77039  1.0000
  H   H513      1.0  0.03682  0.42757  0.75494  1.0000
  H   H514      1.0  0.04668  0.41704  0.69616  1.0000
  H   H515      1.0  0.99504  0.43387  0.72091  1.0000
  H   H516      1.0  0.28015  0.47517  0.84859  1.0000
  S   S86       1.0  0.29740  0.24262  0.56311  1.0000
  H   H517      1.0  0.08462  0.42699  0.78070  1.0000
  H   H518      1.0  0.15671  0.32450  0.54671  1.0000
  H   H519      1.0  0.13913  0.42443  0.61908  1.0000
  C   C656      1.0  0.03915  0.25358  0.55019  1.0000
  H   H520      1.0  0.31330  0.47921  0.48382  1.0000
  C   C657      1.0  0.27155  0.25231  0.50024  1.0000
  C   C658      1.0  0.39570  0.46957  0.68183  1.0000
  C   C659      1.0  0.19782  0.27667  0.55623  1.0000
  C   C660      1.0  0.08790  0.35736  0.51107  1.0000
  C   C661      1.0  0.12379  0.28831  0.86369  1.0000
  C   C662      1.0  0.17721  0.30559  0.51821  1.0000
  C   C663      1.0  0.09719  0.44340  0.49773  1.0000
  C   C664      1.0  0.09278  0.33755  0.49722  1.0000
  H   H521      1.0  0.22710  0.46420  0.62978  1.0000
  C   C665      1.0  0.99828  0.45251  0.72229  1.0000
  C   C666      1.0  0.42449  0.45480  0.57637  1.0000
  H   H522      1.0  0.15620  0.26415  0.86413  1.0000
  H   H523      1.0  0.06983  0.45044  0.55403  1.0000
  S   S87       1.0  0.02383  0.43359  0.80983  1.0000
  C   C667      1.0  0.99841  0.46122  0.74514  1.0000
  H   H524      1.0  0.27871  0.24512  0.51699  1.0000
  S   S88       1.0  0.36590  0.46006  0.88002  1.0000
  H   H525      1.0  0.35768  0.40485  0.72925  1.0000
  C   C668      1.0  0.16990  0.30978  0.54237  1.0000
  C   C669      1.0  0.25035  0.31483  0.65739  1.0000
  H   H526      1.0  0.19365  0.23888  0.71910  1.0000
  H   H527      1.0  0.04095  0.26216  0.51139  1.0000
  H   H528      1.0  0.27147  0.26379  0.80216  1.0000
  C   C670      1.0  0.98088  0.39712  0.53840  1.0000
  H   H529      1.0  0.44954  0.28734  0.52311  1.0000
  P   P22       1.0  0.27481  0.26813  0.71258  1.0000
  C   C671      1.0  0.26214  0.29525  0.67031  1.0000
  H   H530      1.0  0.25129  0.31561  0.63783  1.0000
  H   H531      1.0  0.10288  0.38283  0.53099  1.0000
  H   H532      1.0  0.41042  0.27696  0.54436  1.0000
  C   C672      1.0  0.19504  0.28680  0.51332  1.0000
  Fe  Fe46      1.0  0.28279  0.28088  0.55309  1.0000
  S   S89       1.0  0.26616  0.28729  0.59038  1.0000
  S   S90       1.0  0.26170  0.29536  0.52113  1.0000
  H   H533      1.0  0.17469  0.29871  0.57992  1.0000
  H   H534      1.0  0.14489  0.36589  0.52292  1.0000
  H   H535      1.0  0.27164  0.28094  0.66043  1.0000
  C   C673      1.0  0.13352  0.26143  0.56958  1.0000
  H   H536      1.0  0.06950  0.36511  0.51438  1.0000
  H   H537      1.0  0.10600  0.42946  0.53348  1.0000
  C   C674      1.0  0.09316  0.44049  0.52290  1.0000
  H   H538      1.0  0.01366  0.25373  0.78849  1.0000
  S   S91       1.0  0.02324  0.46586  0.60650  1.0000
  S   S92       1.0  0.09422  0.45266  0.96432  1.0000
  H   H539      1.0  0.43933  0.46602  0.57198  1.0000
  S   S93       1.0  0.31811  0.26430  0.60991  1.0000
  C   C675      1.0  0.32426  0.26162  0.69793  1.0000
  C   C676      1.0  0.99046  0.23687  0.73505  1.0000
  C   C677      1.0  0.02060  0.29024  0.53004  1.0000
  H   H540      1.0  0.26376  0.46641  0.92885  1.0000
  S   S94       1.0  0.36983  0.24624  0.55962  1.0000
  Fe  Fe47      1.0  0.36939  0.47484  0.91700  1.0000
  C   C678      1.0  0.00813  0.36271  0.69415  1.0000
  H   H541      1.0  0.21808  0.32769  0.50181  1.0000
  H   H542      1.0  0.07445  0.46091  0.80624  1.0000
  C   C679      1.0  0.06076  0.47066  0.49571  1.0000
  C   C680      1.0  0.09729  0.44726  0.68424  1.0000
  C   C681      1.0  0.17849  0.37400  0.48204  1.0000
  H   H543      1.0  0.06791  0.47467  0.71779  1.0000
  C   C682      1.0  0.99302  0.42762  0.56269  1.0000
  H   H544      1.0  0.21832  0.43061  0.97635  1.0000
  C   C683      1.0  0.18848  0.46416  0.58843  1.0000
  C   C684      1.0  0.16439  0.47355  0.59065  1.0000
  H   H545      1.0  0.04110  0.47646  0.53035  1.0000
  H   H546      1.0  0.47768  0.25174  0.50181  1.0000
  C   C685      1.0  0.07493  0.44885  0.64881  1.0000
  S   S95       1.0  0.98313  0.38139  0.82147  1.0000
  H   H547      1.0  0.99046  0.39338  0.67507  1.0000
  H   H548      1.0  0.32150  0.47709  0.83034  1.0000
  H   H549      1.0  0.23235  0.46187  0.67357  1.0000
  H   H550      1.0  0.07266  0.45519  0.63009  1.0000
  C   C686      1.0  0.09454  0.45513  0.66001  1.0000
  H   H551      1.0  0.99299  0.23645  0.85957  1.0000
  H   H552      1.0  0.28021  0.23455  0.67482  1.0000
  C   C687      1.0  0.07035  0.47143  0.73689  1.0000
  Fe  Fe48      1.0  0.18053  0.47723  0.97184  1.0000
  H   H553      1.0  0.07360  0.25342  0.58595  1.0000
  C   C688      1.0  0.47769  0.41888  0.52052  1.0000
  H   H554      1.0  0.29591  0.47744  0.58083  1.0000
  H   H555      1.0  0.27250  0.47389  0.68113  1.0000
  C   C689      1.0  0.14667  0.45923  0.60171  1.0000
  C   C690      1.0  0.14497  0.24234  0.58341  1.0000
  C   C691      1.0  0.03427  0.23112  0.73136  1.0000
  H   H556      1.0  0.99333  0.23483  0.66696  1.0000
  H   H557      1.0  0.10742  0.46633  0.64992  1.0000
  H   H558      1.0  0.11978  0.31296  0.48118  1.0000
  C   C692      1.0  0.26299  0.47614  0.94490  1.0000
  H   H559      1.0  0.20867  0.23446  0.49745  1.0000
  H   H560      1.0  0.09697  0.24138  0.62122  1.0000
  H   H561      1.0  0.12806  0.46666  0.60351  1.0000
  C   C693      1.0  0.43819  0.62527  0.36444  1.0000
  H   H562      1.0  0.05662  0.51552  0.16368  1.0000
  C   C694      1.0  0.06388  0.58714  0.99695  1.0000
  S   S96       1.0  0.17678  0.50921  0.36952  1.0000
  H   H563      1.0  0.18362  0.53913  0.32494  1.0000
  C   C695      1.0  0.25965  0.50411  0.28444  1.0000
  H   H564      1.0  0.33559  0.57297  0.99032  1.0000
  S   S97       1.0  0.18763  0.50502  0.43996  1.0000
  Fe  Fe49      1.0  0.27211  0.58070  0.28164  1.0000
  S   S98       1.0  0.30759  0.57198  0.26028  1.0000
  S   S99       1.0  0.26786  0.56070  0.31921  1.0000
  Fe  Fe50      1.0  0.25507  0.61706  0.24109  1.0000
  S   S100      1.0  0.28896  0.61059  0.21757  1.0000
  S   S101      1.0  0.22726  0.64487  0.22595  1.0000
  Fe  Fe51      1.0  0.28555  0.57150  0.22887  1.0000
  S   S102      1.0  0.29113  0.54572  0.19941  1.0000
  Fe  Fe52      1.0  0.30767  0.61211  0.25112  1.0000
  S   S103      1.0  0.34263  0.63024  0.24656  1.0000
  S   S104      1.0  0.25004  0.57767  0.25051  1.0000
  S   S105      1.0  0.27389  0.62112  0.27454  1.0000
  H   H565      1.0  0.08666  0.52089  0.38760  1.0000
  H   H566      1.0  0.40993  0.56922  0.13440  1.0000
  C   C696      1.0  0.15821  0.56079  0.43216  1.0000
  H   H567      1.0  0.21878  0.55921  0.30463  1.0000
  C   C697      1.0  0.16964  0.56327  0.40885  1.0000
  H   H568      1.0  0.38982  0.53385  0.04238  1.0000
  C   C698      1.0  0.13759  0.49391  0.29910  1.0000
  C   C699      1.0  0.32237  0.59546  0.36063  1.0000
  S   S106      1.0  0.01881  0.57992  0.01931  1.0000
  H   H569      1.0  0.25869  0.49276  0.42141  1.0000
  C   C700      1.0  0.35397  0.61001  0.09931  1.0000
  C   C701      1.0  0.07114  0.72347  0.00744  1.0000
  H   H570      1.0  0.31275  0.53791  0.38880  1.0000
  S   S107      1.0  0.98736  0.64456  0.99790  1.0000
  H   H571      1.0  0.37332  0.61125  0.04671  1.0000
  C   C702      1.0  0.42853  0.55283  0.43942  1.0000
  C   C703      1.0  0.41543  0.53917  0.42632  1.0000
  C   C704      1.0  0.42384  0.53400  0.40266  1.0000
  C   C705      1.0  0.44580  0.54173  0.39216  1.0000
  C   C706      1.0  0.45926  0.55496  0.40543  1.0000
  C   C707      1.0  0.45044  0.56081  0.42885  1.0000
  H   H572      1.0  0.39859  0.53299  0.43428  1.0000
  S   S108      1.0  0.30980  0.50096  0.98662  1.0000
  C   C708      1.0  0.20804  0.48559  0.19642  1.0000
  H   H573      1.0  0.47298  0.69574  0.26872  1.0000
  C   C709      1.0  0.08468  0.54257  0.01580  1.0000
  C   C710      1.0  0.06016  0.54945  0.02150  1.0000
  C   C711      1.0  0.04961  0.57164  0.01187  1.0000
  C   C712      1.0  0.41587  0.51499  0.16711  1.0000
  C   C713      1.0  0.34230  0.60804  0.36375  1.0000
  H   H574      1.0  0.09259  0.52541  0.02326  1.0000
  H   H575      1.0  0.04927  0.53741  0.03312  1.0000
  H   H576      1.0  0.34405  0.52721  0.18744  1.0000
  C   C714      1.0  0.44270  0.52591  0.07509  1.0000
  C   C715      1.0  0.34529  0.66084  0.25130  1.0000
  C   C716      1.0  0.33002  0.67323  0.26820  1.0000
  C   C717      1.0  0.33537  0.69612  0.27420  1.0000
  C   C718      1.0  0.35594  0.70679  0.26334  1.0000
  C   C719      1.0  0.37050  0.69470  0.24573  1.0000
  C   C720      1.0  0.36509  0.67199  0.23966  1.0000
  H   H577      1.0  0.31466  0.66486  0.27729  1.0000
  H   H578      1.0  0.32390  0.70535  0.28776  1.0000
  H   H579      1.0  0.38645  0.70236  0.23740  1.0000
  H   H580      1.0  0.37664  0.66275  0.22623  1.0000
  C   C721      1.0  0.23200  0.65359  0.19465  1.0000
  C   C722      1.0  0.22305  0.67664  0.18552  1.0000
  C   C723      1.0  0.22687  0.68406  0.16075  1.0000
  C   C724      1.0  0.23893  0.66816  0.14478  1.0000
  C   C725      1.0  0.24735  0.64489  0.15380  1.0000
  C   C726      1.0  0.24414  0.63771  0.17866  1.0000
  H   H581      1.0  0.21349  0.68896  0.19770  1.0000
  H   H582      1.0  0.22009  0.70195  0.15400  1.0000
  H   H583      1.0  0.25636  0.63237  0.14152  1.0000
  H   H584      1.0  0.25050  0.61968  0.18535  1.0000
  C   C727      1.0  0.29243  0.51482  0.20928  1.0000
  C   C728      1.0  0.30272  0.50616  0.23069  1.0000
  C   C729      1.0  0.40443  0.51003  0.12706  1.0000
  C   C730      1.0  0.28408  0.49851  0.19487  1.0000
  H   H585      1.0  0.30936  0.51863  0.24179  1.0000
  C   C731      1.0  0.33908  0.50922  0.08728  1.0000
  H   H586      1.0  0.27605  0.50516  0.17833  1.0000
  C   C732      1.0  0.40958  0.54995  0.13854  1.0000
  P   P23       1.0  0.23702  0.58083  0.42080  1.0000
  S   S109      1.0  0.24269  0.67642  0.11336  1.0000
  H   H587      1.0  0.32488  0.50220  0.09967  1.0000
  C   C733      1.0  0.20237  0.52299  0.35538  1.0000
  C   C734      1.0  0.22439  0.52030  0.36575  1.0000
  C   C735      1.0  0.24433  0.53148  0.35408  1.0000
  C   C736      1.0  0.24249  0.54570  0.33206  1.0000
  C   C737      1.0  0.22053  0.54824  0.32152  1.0000
  C   C738      1.0  0.20059  0.53689  0.33312  1.0000
  H   H588      1.0  0.22603  0.50951  0.38274  1.0000
  H   H589      1.0  0.26124  0.52930  0.36228  1.0000
  H   H590      1.0  0.99755  0.61832  0.06033  1.0000
  H   H591      1.0  0.37553  0.51931  0.34287  1.0000
  C   C739      1.0  0.23024  0.49310  0.25871  1.0000
  H   H592      1.0  0.15924  0.52361  0.04827  1.0000
  C   C740      1.0  0.38422  0.49446  0.23570  1.0000
  C   C741      1.0  0.37035  0.62766  0.09706  1.0000
  H   H593      1.0  0.36606  0.58452  0.01541  1.0000
  P   P24       1.0  0.41416  0.66978  0.98885  1.0000
  C   C742      1.0  0.40372  0.71967  0.98067  1.0000
  H   H594      1.0  0.32150  0.61614  0.99402  1.0000
  C   C743      1.0  0.35590  0.51814  0.20040  1.0000
  H   H595      1.0  0.20188  0.57068  0.38718  1.0000
  H   H596      1.0  0.03016  0.51617  0.99027  1.0000
  H   H597      1.0  0.42107  0.65830  0.37761  1.0000
  H   H598      1.0  0.43528  0.50397  0.23682  1.0000
  H   H599      1.0  0.45218  0.57250  0.01976  1.0000
  H   H600      1.0  0.16027  0.55981  0.39346  1.0000
  C   C744      1.0  0.43592  0.50542  0.25603  1.0000
  Fe  Fe53      1.0  0.00086  0.60615  0.99178  1.0000
  C   C745      1.0  0.09462  0.52636  0.07996  1.0000
  C   C746      1.0  0.39930  0.69930  0.14788  1.0000
  H   H601      1.0  0.14827  0.66183  0.06142  1.0000
  C   C747      1.0  0.11936  0.65564  0.02614  1.0000
  H   H602      1.0  0.27075  0.51152  0.09257  1.0000
  H   H603      1.0  0.28564  0.57438  0.39748  1.0000
  C   C748      1.0  0.43908  0.66730  0.00783  1.0000
  C   C749      1.0  0.41046  0.50005  0.14989  1.0000
  H   H604      1.0  0.16212  0.56096  0.47018  1.0000
  H   H605      1.0  0.10306  0.62173  0.03086  1.0000
  C   C750      1.0  0.41533  0.53994  0.16148  1.0000
  C   C751      1.0  0.37107  0.52709  0.36000  1.0000
  H   H606      1.0  0.35545  0.51078  0.41928  1.0000
  H   H607      1.0  0.41573  0.69818  0.13606  1.0000
  H   H608      1.0  0.25356  0.70953  0.21319  1.0000
  C   C752      1.0  0.46412  0.52440  0.06013  1.0000
  H   H609      1.0  0.38189  0.64170  0.38891  1.0000
  C   C753      1.0  0.47226  0.60481  0.25602  1.0000
  C   C754      1.0  0.47661  0.66003  0.28754  1.0000
  C   C755      1.0  0.36539  0.51221  0.38089  1.0000
  C   C756      1.0  0.35974  0.52227  0.40299  1.0000
  S   S110      1.0  0.37759  0.50168  0.97801  1.0000
  C   C757      1.0  0.39335  0.60645  0.37642  1.0000
  C   C758      1.0  0.24152  0.61355  0.35186  1.0000
  C   C759      1.0  0.24331  0.63777  0.35533  1.0000
  C   C760      1.0  0.24387  0.64481  0.37871  1.0000
  C   C761      1.0  0.24230  0.62769  0.39866  1.0000
  C   C762      1.0  0.24030  0.60328  0.39534  1.0000
  C   C763      1.0  0.24031  0.59639  0.37172  1.0000
  H   H610      1.0  0.24121  0.60795  0.33373  1.0000
  H   H611      1.0  0.24425  0.65105  0.33989  1.0000
  H   H612      1.0  0.24530  0.66361  0.38138  1.0000
  H   H613      1.0  0.24269  0.63372  0.41647  1.0000
  H   H614      1.0  0.23934  0.57769  0.36858  1.0000
  C   C764      1.0  0.43535  0.60130  0.36078  1.0000
  H   H615      1.0  0.31717  0.61312  0.40735  1.0000
  C   C765      1.0  0.39677  0.64401  0.99689  1.0000
  H   H616      1.0  0.32664  0.49541  0.05605  1.0000
  H   H617      1.0  0.19341  0.69696  0.01272  1.0000
  C   C766      1.0  0.15448  0.49842  0.25752  1.0000
  H   H618      1.0  0.45055  0.58975  0.35372  1.0000
  H   H619      1.0  0.41341  0.52373  0.39253  1.0000
  C   C767      1.0  0.24014  0.51060  0.27051  1.0000
  C   C768      1.0  0.13470  0.62000  0.00595  1.0000
  C   C769      1.0  0.35644  0.52212  0.09580  1.0000
  P   P25       1.0  0.14073  0.69935  0.02076  1.0000
  S   S111      1.0  0.45491  0.53584  0.36188  1.0000
  C   C770      1.0  0.20406  0.53187  0.22968  1.0000
  C   C771      1.0  0.18497  0.54951  0.23429  1.0000
  C   C772      1.0  0.18611  0.57321  0.22382  1.0000
  C   C773      1.0  0.20614  0.57944  0.20854  1.0000
  C   C774      1.0  0.22516  0.56199  0.20384  1.0000
  C   C775      1.0  0.22436  0.53846  0.21476  1.0000
  H   H620      1.0  0.09075  0.50615  0.13371  1.0000
  C   C776      1.0  0.42474  0.54472  0.07072  1.0000
  H   H621      1.0  0.14275  0.48613  0.06690  1.0000
  H   H622      1.0  0.23247  0.52917  0.26945  1.0000
  H   H623      1.0  0.26722  0.51772  0.29342  1.0000
  H   H624      1.0  0.21553  0.50239  0.19020  1.0000
  H   H625      1.0  0.16939  0.54527  0.24625  1.0000
  H   H626      1.0  0.17164  0.58693  0.22784  1.0000
  H   H627      1.0  0.20725  0.59795  0.20089  1.0000
  H   H628      1.0  0.24099  0.56696  0.19250  1.0000
  H   H629      1.0  0.23973  0.52547  0.21173  1.0000
  C   C777      1.0  0.46746  0.48845  0.41657  1.0000
  C   C778      1.0  0.46749  0.64247  0.03224  1.0000
  H   H630      1.0  0.44039  0.62821  0.01429  1.0000
  C   C779      1.0  0.40407  0.53503  0.12111  1.0000
  Fe  Fe54      1.0  0.17514  0.49011  0.40759  1.0000
  C   C780      1.0  0.27438  0.49497  0.05879  1.0000
  H   H631      1.0  0.20426  0.57091  0.46451  1.0000
  C   C781      1.0  0.28088  0.65746  0.99645  1.0000
  C   C782      1.0  0.43932  0.50954  0.30525  1.0000
  H   H632      1.0  0.33491  0.61507  0.10306  1.0000
  C   C783      1.0  0.04499  0.49475  0.42740  1.0000
  C   C784      1.0  0.30706  0.62815  0.33309  1.0000
  H   H633      1.0  0.36820  0.68279  0.01739  1.0000
  C   C785      1.0  0.27441  0.49480  0.08389  1.0000
  C   C786      1.0  0.26609  0.58170  0.45924  1.0000
  C   C787      1.0  0.26766  0.68775  0.02467  1.0000
  C   C788      1.0  0.26232  0.66961  0.04275  1.0000
  C   C789      1.0  0.26608  0.64538  0.03776  1.0000
  C   C790      1.0  0.27514  0.63927  0.01464  1.0000
  S   S112      1.0  0.13022  0.55089  0.99526  1.0000
  H   H634      1.0  0.13354  0.60123  0.00291  1.0000
  C   C791      1.0  0.98611  0.66864  0.14651  1.0000
  H   H635      1.0  0.44032  0.51232  0.09000  1.0000
  H   H636      1.0  0.42107  0.50718  0.18461  1.0000
  H   H637      1.0  0.35479  0.51135  0.27706  1.0000
  C   C792      1.0  0.16601  0.67828  0.08724  1.0000
  H   H638      1.0  0.29356  0.63580  0.32112  1.0000
  H   H639      1.0  0.21467  0.61833  0.45106  1.0000
  C   C793      1.0  0.24593  0.49818  0.47449  1.0000
  S   S113      1.0  0.47824  0.72982  0.22802  1.0000
  H   H640      1.0  0.29952  0.49712  0.40127  1.0000
  C   C794      1.0  0.15334  0.69937  0.04963  1.0000
  C   C795      1.0  0.13806  0.66849  0.01427  1.0000
  H   H641      1.0  0.37513  0.59830  0.47060  1.0000
  H   H642      1.0  0.41415  0.57534  0.04593  1.0000
  C   C796      1.0  0.47581  0.57963  0.25694  1.0000
  H   H643      1.0  0.26456  0.70654  0.02847  1.0000
  H   H644      1.0  0.25501  0.67440  0.06058  1.0000
  H   H645      1.0  0.26149  0.63139  0.05176  1.0000
  H   H646      1.0  0.27694  0.62046  0.01092  1.0000
  C   C797      1.0  0.37270  0.48110  0.22080  1.0000
  Fe  Fe55      1.0  0.24373  0.71635  0.10198  1.0000
  C   C798      1.0  0.11762  0.63155  0.02183  1.0000
  H   H647      1.0  0.16759  0.66199  0.09936  1.0000
  C   C799      1.0  0.09293  0.70916  0.00893  1.0000
  H   H648      1.0  0.02916  0.48504  0.42732  1.0000
  C   C800      1.0  0.37840  0.61632  0.02788  1.0000
  Fe  Fe56      1.0  0.14213  0.51092  0.99602  1.0000
  C   C801      1.0  0.35818  0.51460  0.04672  1.0000
  C   C802      1.0  0.47506  0.66598  0.22850  1.0000
  H   H649      1.0  0.35939  0.64121  0.35325  1.0000
  C   C803      1.0  0.99217  0.71053  0.13430  1.0000
  C   C804      1.0  0.33479  0.70275  0.08253  1.0000
  C   C805      1.0  0.32010  0.68857  0.07180  1.0000
  C   C806      1.0  0.30870  0.67023  0.08579  1.0000
  C   C807      1.0  0.31228  0.66574  0.11036  1.0000
  C   C808      1.0  0.32777  0.67921  0.12113  1.0000
  C   C809      1.0  0.33829  0.69839  0.10717  1.0000
  P   P26       1.0  0.33319  0.67244  0.15271  1.0000
  C   C810      1.0  0.35873  0.68767  0.15920  1.0000
  C   C811      1.0  0.30720  0.68346  0.17134  1.0000
  C   C812      1.0  0.29333  0.70457  0.16365  1.0000
  C   C813      1.0  0.35969  0.54721  0.40423  1.0000
  S   S114      1.0  0.17798  0.49395  0.00730  1.0000
  C   C814      1.0  0.28258  0.68157  0.20954  1.0000
  C   C815      1.0  0.30198  0.67227  0.19459  1.0000
  C   C816      1.0  0.38037  0.68565  0.14434  1.0000
  C   C817      1.0  0.47507  0.67559  0.20444  1.0000
  C   C818      1.0  0.20607  0.57315  0.42524  1.0000
  C   C819      1.0  0.15336  0.63259  0.99409  1.0000
  C   C820      1.0  0.35657  0.70317  0.17794  1.0000
  C   C821      1.0  0.33855  0.63996  0.15868  1.0000
  C   C822      1.0  0.31909  0.62551  0.16085  1.0000
  C   C823      1.0  0.32294  0.60037  0.16472  1.0000
  C   C824      1.0  0.34620  0.58943  0.16686  1.0000
  C   C825      1.0  0.36566  0.60362  0.16519  1.0000
  C   C826      1.0  0.36189  0.62879  0.16119  1.0000
  H   H650      1.0  0.16657  0.62347  0.98186  1.0000
  C   C827      1.0  0.45725  0.49280  0.46608  1.0000
  H   H651      1.0  0.29628  0.66006  0.07793  1.0000
  H   H652      1.0  0.30237  0.65218  0.12094  1.0000
  C   C828      1.0  0.40321  0.59681  0.09086  1.0000
  C   C829      1.0  0.44794  0.64454  0.01798  1.0000
  C   C830      1.0  0.45665  0.49496  0.29243  1.0000
  H   H653      1.0  0.00894  0.68978  0.16375  1.0000
  H   H654      1.0  0.27827  0.67261  0.22727  1.0000
  H   H655      1.0  0.31305  0.65660  0.20138  1.0000
  H   H656      1.0  0.38226  0.67409  0.12957  1.0000
  H   H657      1.0  0.34018  0.70543  0.18970  1.0000
  C   C831      1.0  0.08851  0.58050  0.99171  1.0000
  H   H658      1.0  0.30078  0.63367  0.16013  1.0000
  H   H659      1.0  0.30773  0.58941  0.16680  1.0000
  H   H660      1.0  0.34900  0.57000  0.17029  1.0000
  H   H661      1.0  0.38362  0.59514  0.16737  1.0000
  H   H662      1.0  0.37719  0.63931  0.16045  1.0000
  C   C832      1.0  0.05678  0.50254  0.40525  1.0000
  C   C833      1.0  0.07747  0.51487  0.40472  1.0000
  C   C834      1.0  0.08652  0.51919  0.42635  1.0000
  C   C835      1.0  0.07506  0.51098  0.44846  1.0000
  C   C836      1.0  0.05396  0.49916  0.44923  1.0000
  H   H663      1.0  0.15190  0.50000  0.23837  1.0000
  C   C837      1.0  0.16049  0.49439  0.30704  1.0000
  H   H664      1.0  0.22077  0.71611  0.98087  1.0000
  C   C838      1.0  0.43204  0.67313  0.20588  1.0000
  H   H665      1.0  0.05603  0.60447  0.98984  1.0000
  C   C839      1.0  0.37115  0.55202  0.36122  1.0000
  H   H666      1.0  0.11677  0.49576  0.26819  1.0000
  C   C840      1.0  0.32672  0.64092  0.33612  1.0000
  C   C841      1.0  0.37412  0.60134  0.01023  1.0000
  C   C842      1.0  0.26867  0.70242  0.20163  1.0000
  C   C843      1.0  0.42804  0.56122  0.05031  1.0000
  H   H667      1.0  0.10621  0.66421  0.03886  1.0000
  C   C844      1.0  0.38987  0.63745  0.02130  1.0000
  H   H668      1.0  0.08273  0.51370  0.46505  1.0000
  C   C845      1.0  0.37462  0.69893  0.00782  1.0000
  H   H669      1.0  0.40070  0.49817  0.11377  1.0000
  C   C846      1.0  0.46764  0.54143  0.04049  1.0000
  H   H670      1.0  0.10273  0.52847  0.42612  1.0000
  H   H671      1.0  0.39643  0.70563  0.31750  1.0000
  H   H672      1.0  0.35540  0.52497  0.11486  1.0000
  H   H673      1.0  0.26027  0.51087  0.00238  1.0000
  C   C847      1.0  0.17519  0.69919  0.09326  1.0000
  C   C848      1.0  0.27960  0.55663  0.40251  1.0000
  C   C849      1.0  0.30533  0.48120  0.23723  1.0000
  H   H674      1.0  0.16976  0.66602  0.98889  1.0000
  C   C850      1.0  0.27658  0.68177  0.00155  1.0000
  C   C851      1.0  0.44592  0.48099  0.42820  1.0000
  H   H675      1.0  0.47813  0.51005  0.06383  1.0000
  C   C852      1.0  0.45033  0.57662  0.29434  1.0000
  H   H676      1.0  0.04986  0.49892  0.38851  1.0000
  C   C853      1.0  0.26114  0.50103  0.98643  1.0000
  C   C854      1.0  0.11169  0.71682  0.02082  1.0000
  C   C855      1.0  0.45728  0.61608  0.27402  1.0000
  C   C856      1.0  0.44698  0.60182  0.29362  1.0000
  P   P27       1.0  0.45303  0.64862  0.27289  1.0000
  C   C857      1.0  0.24911  0.53112  0.42075  1.0000
  C   C858      1.0  0.45343  0.66027  0.24155  1.0000
  C   C859      1.0  0.34435  0.63094  0.35134  1.0000
  H   H677      1.0  0.98978  0.65246  0.15837  1.0000
  C   C860      1.0  0.99326  0.48227  0.46636  1.0000
  C   C861      1.0  0.43202  0.66353  0.22993  1.0000
  C   C862      1.0  0.25650  0.55426  0.41396  1.0000
  H   H678      1.0  0.23154  0.52884  0.42991  1.0000
  C   C863      1.0  0.37568  0.52735  0.05517  1.0000
  C   C864      1.0  0.42424  0.65843  0.28785  1.0000
  C   C865      1.0  0.40424  0.64504  0.28738  1.0000
  C   C866      1.0  0.38193  0.65298  0.29855  1.0000
  C   C867      1.0  0.37928  0.67459  0.30980  1.0000
  C   C868      1.0  0.39890  0.68824  0.30992  1.0000
  C   C869      1.0  0.42130  0.68022  0.29905  1.0000
  H   H679      1.0  0.44259  0.56567  0.30963  1.0000
  C   C870      1.0  0.39625  0.69811  0.99291  1.0000
  C   C871      1.0  0.19469  0.56968  0.44870  1.0000
  C   C872      1.0  0.24553  0.59197  0.44811  1.0000
  H   H680      1.0  0.43650  0.61013  0.30843  1.0000
  C   C873      1.0  0.15506  0.65675  0.99817  1.0000
  H   H681      1.0  0.41523  0.67628  0.19741  1.0000
  H   H682      1.0  0.41523  0.65908  0.23954  1.0000
  C   C874      1.0  0.44950  0.55964  0.03535  1.0000
  C   C875      1.0  0.28756  0.51306  0.40470  1.0000
  C   C876      1.0  0.33999  0.50543  0.06275  1.0000
  H   H683      1.0  0.40561  0.62888  0.27775  1.0000
  H   H684      1.0  0.36643  0.64299  0.29739  1.0000
  H   H685      1.0  0.36180  0.68158  0.31732  1.0000
  H   H686      1.0  0.32818  0.65858  0.32654  1.0000
  H   H687      1.0  0.43595  0.69155  0.29886  1.0000
  Fe  Fe57      1.0  0.15199  0.49576  0.45896  1.0000
  H   H688      1.0  0.12222  0.49203  0.31219  1.0000
  H   H689      1.0  0.35883  0.51160  0.02771  1.0000
  H   H690      1.0  0.05667  0.71728  0.99856  1.0000
  C   C877      1.0  0.10404  0.54746  0.06919  1.0000
  C   C878      1.0  0.42039  0.52227  0.29349  1.0000
  C   C879      1.0  0.41848  0.52027  0.26875  1.0000
  C   C880      1.0  0.38175  0.51987  0.23290  1.0000
  P   P28       1.0  0.39456  0.53757  0.25333  1.0000
  C   C881      1.0  0.27410  0.71396  0.17874  1.0000
  C   C882      1.0  0.37067  0.54552  0.27598  1.0000
  C   C883      1.0  0.35402  0.52871  0.28448  1.0000
  C   C884      1.0  0.33590  0.53431  0.30254  1.0000
  C   C885      1.0  0.33417  0.55673  0.31212  1.0000
  C   C886      1.0  0.35069  0.57355  0.30385  1.0000
  C   C887      1.0  0.36919  0.56780  0.28621  1.0000
  C   C888      1.0  0.36734  0.53157  0.21523  1.0000
  C   C889      1.0  0.39672  0.71508  0.16622  1.0000
  C   C890      1.0  0.30487  0.60547  0.34542  1.0000
  H   H691      1.0  0.42006  0.55139  0.17472  1.0000
  H   H692      1.0  0.39393  0.64839  0.03530  1.0000
  C   C891      1.0  0.40559  0.56388  0.23591  1.0000
  C   C892      1.0  0.42963  0.56347  0.22615  1.0000
  C   C893      1.0  0.43800  0.58362  0.21228  1.0000
  C   C894      1.0  0.42247  0.60438  0.20805  1.0000
  C   C895      1.0  0.39842  0.60479  0.21725  1.0000
  C   C896      1.0  0.38993  0.58457  0.23087  1.0000
  C   C897      1.0  0.16084  0.71392  0.99796  1.0000
  C   C898      1.0  0.18589  0.70901  0.99841  1.0000
  H   H693      1.0  0.40758  0.53389  0.30378  1.0000
  S   S115      1.0  0.41707  0.56161  0.46825  1.0000
  H   H694      1.0  0.32263  0.52163  0.30859  1.0000
  C   C899      1.0  0.36213  0.58575  0.09706  1.0000
  H   H695      1.0  0.31957  0.56118  0.32546  1.0000
  H   H696      1.0  0.34898  0.59118  0.31088  1.0000
  H   H697      1.0  0.38208  0.58091  0.28045  1.0000
  H   H698      1.0  0.36415  0.55104  0.21337  1.0000
  C   C900      1.0  0.39658  0.63034  0.38070  1.0000
  C   C901      1.0  0.15502  0.67835  0.06560  1.0000
  C   C902      1.0  0.09898  0.55817  0.00106  1.0000
  C   C903      1.0  0.39498  0.62105  0.09294  1.0000
  H   H699      1.0  0.44200  0.54763  0.22906  1.0000
  H   H700      1.0  0.45660  0.58311  0.20489  1.0000
  H   H701      1.0  0.42904  0.62010  0.19758  1.0000
  H   H702      1.0  0.38618  0.62075  0.21385  1.0000
  H   H703      1.0  0.37107  0.58516  0.23740  1.0000
  H   H704      1.0  0.46060  0.57153  0.43881  1.0000
  H   H705      1.0  0.37570  0.56332  0.34495  1.0000
  H   H706      1.0  0.09288  0.56442  0.06862  1.0000
  H   H707      1.0  0.44085  0.51134  0.32424  1.0000
  C   C904      1.0  0.19343  0.56943  0.40537  1.0000
  C   C905      1.0  0.38680  0.57900  0.09238  1.0000
  H   H708      1.0  0.19790  0.49737  0.29710  1.0000
  P   P29       1.0  0.39763  0.54752  0.09100  1.0000
  C   C906      1.0  0.37500  0.53116  0.07983  1.0000
  P   P30       1.0  0.20320  0.50121  0.24334  1.0000
  H   H709      1.0  0.42243  0.59194  0.08827  1.0000
  H   H710      1.0  0.36398  0.64643  0.09874  1.0000
  H   H711      1.0  0.34914  0.57236  0.09919  1.0000
  C   C907      1.0  0.29504  0.53608  0.39780  1.0000
  C   C908      1.0  0.26456  0.51060  0.41604  1.0000
  H   H712      1.0  0.46722  0.54603  0.27644  1.0000
  H   H713      1.0  0.38909  0.59160  0.42837  1.0000
  S   S116      1.0  0.37330  0.50876  0.47698  1.0000
  C   C909      1.0  0.41881  0.63978  0.37445  1.0000
  H   H714      1.0  0.28970  0.59548  0.34296  1.0000
  H   H715      1.0  0.30377  0.62004  0.44962  1.0000
  H   H716      1.0  0.40775  0.63468  0.09151  1.0000
  C   C910      1.0  0.47025  0.68560  0.02584  1.0000
  C   C911      1.0  0.99690  0.68965  0.14957  1.0000
  H   H717      1.0  0.35512  0.55440  0.42162  1.0000
  P   P31       1.0  0.36426  0.59480  0.38418  1.0000
  H   H718      1.0  0.32038  0.57780  0.36984  1.0000
  H   H719      1.0  0.09939  0.59265  0.98024  1.0000
  C   C912      1.0  0.37543  0.71685  0.18129  1.0000
  C   C913      1.0  0.17761  0.49871  0.26537  1.0000
  H   H720      1.0  0.27099  0.51182  0.04785  1.0000
  S   S117      1.0  0.47604  0.50407  0.18729  1.0000
  H   H721      1.0  0.34862  0.71051  0.11532  1.0000
  H   H722      1.0  0.98965  0.65629  0.08052  1.0000
  H   H723      1.0  0.41161  0.57319  0.36401  1.0000
  H   H724      1.0  0.37305  0.72949  0.19517  1.0000
  H   H725      1.0  0.31643  0.69274  0.05302  1.0000
  H   H726      1.0  0.07300  0.50074  0.98244  1.0000
  H   H727      1.0  0.29759  0.71412  0.14626  1.0000
  C   C914      1.0  0.36561  0.56230  0.38334  1.0000
  C   C915      1.0  0.13199  0.50325  0.06818  1.0000
  H   H728      1.0  0.36552  0.49287  0.38003  1.0000
  H   H729      1.0  0.27964  0.69621  0.98756  1.0000
  H   H730      1.0  0.34872  0.48279  0.19246  1.0000
  H   H731      1.0  0.09510  0.69239  0.00032  1.0000
  C   C916      1.0  0.41305  0.59192  0.36666  1.0000
  C   C917      1.0  0.33858  0.60975  0.46278  1.0000
  C   C918      1.0  0.37049  0.59825  0.43265  1.0000
  C   C919      1.0  0.12743  0.54649  0.05805  1.0000
  C   C920      1.0  0.35429  0.60219  0.41456  1.0000
  C   C921      1.0  0.35854  0.49297  0.20323  1.0000
  C   C922      1.0  0.36262  0.60196  0.45665  1.0000
  H   H732      1.0  0.14174  0.48485  0.11313  1.0000
  C   C923      1.0  0.47878  0.66294  0.03599  1.0000
  C   C924      1.0  0.16290  0.72018  0.05579  1.0000
  H   H733      1.0  0.27751  0.56696  0.45180  1.0000
  H   H734      1.0  0.44491  0.70543  0.00344  1.0000
  C   C925      1.0  0.33016  0.61017  0.42080  1.0000
  H   H735      1.0  0.45549  0.63248  0.35985  1.0000
  H   H736      1.0  0.13443  0.56267  0.04893  1.0000
  C   C926      1.0  0.45052  0.68781  0.01179  1.0000
  H   H737      1.0  0.46838  0.48165  0.25800  1.0000
  C   C927      1.0  0.46439  0.56554  0.27576  1.0000
  C   C928      1.0  0.45354  0.67938  0.19318  1.0000
  C   C929      1.0  0.45474  0.49267  0.26795  1.0000
  C   C930      1.0  0.20144  0.71977  0.98040  1.0000
  C   C931      1.0  0.36067  0.72086  0.01026  1.0000
  C   C932      1.0  0.14138  0.52441  0.05754  1.0000
  C   C933      1.0  0.32241  0.61403  0.44483  1.0000
  H   H738      1.0  0.34243  0.71792  0.07202  1.0000
  C   C934      1.0  0.39178  0.62915  0.97919  1.0000
  C   C935      1.0  0.18043  0.49691  0.29031  1.0000
  H   H739      1.0  0.32395  0.68082  0.98357  1.0000
  C   C936      1.0  0.23087  0.61048  0.45905  1.0000
  C   C937      1.0  0.10871  0.50414  0.07991  1.0000
  H   H740      1.0  0.07615  0.52740  0.08765  1.0000
  H   H741      1.0  0.18389  0.69911  0.10993  1.0000
  H   H742      1.0  0.41162  0.48065  0.15393  1.0000
  H   H743      1.0  0.05986  0.49274  0.05932  1.0000
  H   H744      1.0  0.98971  0.72619  0.01623  1.0000
  C   C938      1.0  0.03268  0.49382  0.14869  1.0000
  H   H745      1.0  0.47615  0.56116  0.39747  1.0000
  H   H746      1.0  0.13992  0.55559  0.43495  1.0000
  C   C939      1.0  0.13456  0.49601  0.27434  1.0000
  H   H747      1.0  0.16284  0.49290  0.32624  1.0000
  C   C940      1.0  0.17077  0.56388  0.45207  1.0000
  H   H748      1.0  0.47466  0.62481  0.03951  1.0000
  H   H749      1.0  0.45345  0.68764  0.17484  1.0000
  C   C941      1.0  0.07381  0.49847  0.13267  1.0000
  C   C942      1.0  0.17338  0.72018  0.07765  1.0000
  H   H750      1.0  0.47724  0.50194  0.99305  1.0000
  H   H751      1.0  0.99054  0.50178  0.46368  1.0000
  C   C943      1.0  0.44084  0.48314  0.45295  1.0000
  H   H752      1.0  0.47944  0.70141  0.02816  1.0000
  C   C944      1.0  0.15164  0.72973  0.97926  1.0000
  H   H753      1.0  0.34392  0.72142  0.02163  1.0000
  H   H754      1.0  0.22715  0.50353  0.47226  1.0000
  H   H755      1.0  0.47189  0.48590  0.30134  1.0000
  C   C945      1.0  0.05456  0.50375  0.14969  1.0000
  S   S118      1.0  0.13837  0.48357  0.42571  1.0000
  H   H756      1.0  0.47132  0.48709  0.39731  1.0000
  H   H757      1.0  0.41103  0.72628  0.16860  1.0000
  H   H758      1.0  0.01775  0.49793  0.16187  1.0000
  H   H759      1.0  0.22281  0.50138  0.98662  1.0000
  H   H760      1.0  0.39432  0.48490  0.24981  1.0000
  S   S119      1.0  0.28047  0.72955  0.09802  1.0000
  C   C946      1.0  0.38070  0.60781  0.98589  1.0000
  S   S120      1.0  0.47957  0.49272  0.11993  1.0000
  S   S121      1.0  0.12203  0.48041  0.01374  1.0000
  H   H761      1.0  0.00055  0.72683  0.13666  1.0000
  C   C947      1.0  0.31584  0.60687  0.97951  1.0000
  C   C948      1.0  0.07120  0.48342  0.11436  1.0000
  C   C949      1.0  0.47894  0.50043  0.45454  1.0000
  H   H762      1.0  0.01754  0.56046  0.79788  1.0000
  Fe  Fe58      1.0  0.04468  0.49821  0.59996  1.0000
  S   S122      1.0  0.30368  0.53074  0.48989  1.0000
  H   H763      1.0  0.29794  0.57318  0.92675  1.0000
  C   C950      1.0  0.30717  0.48179  0.69056  1.0000
  C   C951      1.0  0.00248  0.48530  0.74694  1.0000
  C   C952      1.0  0.31732  0.57042  0.95856  1.0000
  Fe  Fe59      1.0  0.28638  0.60821  0.68193  1.0000
  S   S123      1.0  0.25603  0.58998  0.70315  1.0000
  S   S124      1.0  0.29266  0.60307  0.64146  1.0000
  Fe  Fe60      1.0  0.29529  0.63601  0.72545  1.0000
  S   S125      1.0  0.26631  0.61914  0.74957  1.0000
  S   S126      1.0  0.31581  0.66541  0.73759  1.0000
  Fe  Fe61      1.0  0.28062  0.58489  0.73317  1.0000
  S   S127      1.0  0.28688  0.55144  0.75838  1.0000
  Fe  Fe62      1.0  0.24441  0.62597  0.71758  1.0000
  S   S128      1.0  0.20531  0.63983  0.72394  1.0000
  S   S129      1.0  0.31190  0.60102  0.71133  1.0000
  S   S130      1.0  0.27251  0.64484  0.69409  1.0000
  Fe  Fe63      1.0  0.37054  0.52623  0.54382  1.0000
  H   H764      1.0  0.98725  0.52208  0.85802  1.0000
  S   S131      1.0  0.37099  0.53414  0.58338  1.0000
  Fe  Fe64      1.0  0.39179  0.53772  0.49137  1.0000
  H   H765      1.0  0.39394  0.68837  0.94341  1.0000
  Fe  Fe65      1.0  0.34134  0.52126  0.50136  1.0000
  H   H766      1.0  0.16169  0.50728  0.88308  1.0000
  H   H767      1.0  0.23141  0.70466  0.92052  1.0000
  S   S132      1.0  0.35885  0.55247  0.51328  1.0000
  S   S133      1.0  0.40544  0.51414  0.52299  1.0000
  S   S134      1.0  0.39990  0.55549  0.93990  1.0000
  S   S135      1.0  0.31003  0.69028  0.84727  1.0000
  H   H768      1.0  0.32437  0.49577  0.88283  1.0000
  C   C953      1.0  0.43079  0.56040  0.93955  1.0000
  C   C954      1.0  0.43714  0.58278  0.94557  1.0000
  C   C955      1.0  0.46145  0.58768  0.94466  1.0000
  H   H769      1.0  0.33249  0.61222  0.48149  1.0000
  H   H770      1.0  0.27025  0.69398  0.93750  1.0000
  C   C956      1.0  0.44905  0.54291  0.93259  1.0000
  H   H771      1.0  0.24700  0.62416  0.96472  1.0000
  C   C957      1.0  0.00041  0.55926  0.76495  1.0000
  H   H772      1.0  0.44443  0.52563  0.92781  1.0000
  C   C958      1.0  0.31160  0.67377  0.76774  1.0000
  C   C959      1.0  0.32213  0.69406  0.77385  1.0000
  C   C960      1.0  0.32059  0.70010  0.79801  1.0000
  C   C961      1.0  0.30895  0.68554  0.81635  1.0000
  C   C962      1.0  0.29781  0.66570  0.81010  1.0000
  C   C963      1.0  0.29875  0.66011  0.78590  1.0000
  H   H773      1.0  0.33197  0.70486  0.75992  1.0000
  C   C964      1.0  0.03073  0.54217  0.95927  1.0000
  H   H774      1.0  0.28854  0.65448  0.82395  1.0000
  H   H775      1.0  0.29017  0.64476  0.78148  1.0000
  C   C965      1.0  0.27629  0.52488  0.75003  1.0000
  C   C966      1.0  0.28443  0.50238  0.76112  1.0000
  C   C967      1.0  0.25947  0.52595  0.73282  1.0000
  H   H776      1.0  0.29742  0.50137  0.77447  1.0000
  H   H777      1.0  0.25283  0.54312  0.72440  1.0000
  C   C968      1.0  0.31459  0.58356  0.62592  1.0000
  C   C969      1.0  0.33451  0.57182  0.63690  1.0000
  C   C970      1.0  0.35157  0.55674  0.62369  1.0000
  C   C971      1.0  0.34899  0.55329  0.59933  1.0000
  C   C972      1.0  0.32914  0.56515  0.58834  1.0000
  C   C973      1.0  0.31213  0.58023  0.60155  1.0000
  H   H778      1.0  0.33687  0.57458  0.65547  1.0000
  H   H779      1.0  0.36694  0.54785  0.63232  1.0000
  H   H780      1.0  0.32690  0.56273  0.56965  1.0000
  H   H781      1.0  0.29688  0.58931  0.59282  1.0000
  C   C974      1.0  0.09482  0.49798  0.55689  1.0000
  C   C975      1.0  0.04095  0.52379  0.97487  1.0000
  C   C976      1.0  0.06568  0.48669  0.77655  1.0000
  C   C977      1.0  0.21832  0.70176  0.65441  1.0000
  C   C978      1.0  0.00509  0.55258  0.52111  1.0000
  C   C979      1.0  0.38584  0.52370  0.71168  1.0000
  C   C980      1.0  0.15352  0.52107  0.89448  1.0000
  C   C981      1.0  0.16737  0.70524  0.71797  1.0000
  C   C982      1.0  0.17383  0.68037  0.72224  1.0000
  C   C983      1.0  0.19809  0.67135  0.72045  1.0000
  C   C984      1.0  0.21594  0.68746  0.71540  1.0000
  C   C985      1.0  0.20949  0.71239  0.71118  1.0000
  Fe  Fe66      1.0  0.38513  0.48586  0.50989  1.0000
  H   H782      1.0  0.15996  0.66801  0.72635  1.0000
  H   H783      1.0  0.23467  0.68068  0.71438  1.0000
  C   C986      1.0  0.31272  0.66819  0.95092  1.0000
  C   C987      1.0  0.33383  0.68368  0.91360  1.0000
  C   C988      1.0  0.02262  0.71194  0.74403  1.0000
  C   C989      1.0  0.27183  0.58987  0.48086  1.0000
  H   H784      1.0  0.02766  0.69442  0.75301  1.0000
  H   H785      1.0  0.08442  0.53890  0.50893  1.0000
  C   C990      1.0  0.18632  0.53912  0.78933  1.0000
  S   S136      1.0  0.01888  0.61519  0.95524  1.0000
  H   H786      1.0  0.99880  0.49362  0.51484  1.0000
  C   C991      1.0  0.11440  0.51172  0.50960  1.0000
  S   S137      1.0  0.00198  0.49681  0.77527  1.0000
  H   H787      1.0  0.33619  0.68501  0.89399  1.0000
  C   C992      1.0  0.34318  0.69630  0.95186  1.0000
  C   C993      1.0  0.08317  0.51682  0.54282  1.0000
  C   C994      1.0  0.09313  0.52387  0.51940  1.0000
  S   S138      1.0  0.02938  0.68086  0.94773  1.0000
  Fe  Fe67      1.0  0.99458  0.48885  0.58783  1.0000
  H   H788      1.0  0.06682  0.52636  0.55016  1.0000
  H   H789      1.0  0.35871  0.51237  0.85796  1.0000
  H   H790      1.0  0.28746  0.58150  0.48958  1.0000
  C   C995      1.0  0.18432  0.71261  0.89328  1.0000
  C   C996      1.0  0.16719  0.69730  0.88865  1.0000
  C   C997      1.0  0.16775  0.68840  0.86589  1.0000
  C   C998      1.0  0.18564  0.69454  0.84760  1.0000
  C   C999      1.0  0.20327  0.70932  0.85274  1.0000
  P   P32       1.0  0.18399  0.68588  0.81720  1.0000
  C   C1000     1.0  0.19187  0.65392  0.81461  1.0000
  C   C1001     1.0  0.15323  0.69270  0.80958  1.0000
  C   C1002     1.0  0.13876  0.71163  0.81997  1.0000
  C   C1003     1.0  0.11462  0.71620  0.81513  1.0000
  C   C1004     1.0  0.10481  0.70211  0.79966  1.0000
  C   C1005     1.0  0.11931  0.68385  0.78847  1.0000
  C   C1006     1.0  0.14348  0.67916  0.79334  1.0000
  C   C1007     1.0  0.20233  0.64583  0.79256  1.0000
  C   C1008     1.0  0.20658  0.62111  0.78971  1.0000
  C   C1009     1.0  0.20016  0.60420  0.80864  1.0000
  C   C1010     1.0  0.18944  0.61202  0.83054  1.0000
  C   C1011     1.0  0.18544  0.63677  0.83358  1.0000
  C   C1012     1.0  0.20368  0.70324  0.79644  1.0000
  C   C1013     1.0  0.22867  0.69708  0.79506  1.0000
  C   C1014     1.0  0.24413  0.71114  0.77991  1.0000
  C   C1015     1.0  0.98863  0.55235  0.87922  1.0000
  S   S139      1.0  0.06797  0.72301  0.75112  1.0000
  H   H791      1.0  0.99546  0.65177  0.66389  1.0000
  H   H792      1.0  0.98022  0.52736  0.53736  1.0000
  H   H793      1.0  0.99720  0.56720  0.53162  1.0000
  H   H794      1.0  0.15308  0.69286  0.90249  1.0000
  H   H795      1.0  0.15356  0.67765  0.86221  1.0000
  H   H796      1.0  0.35298  0.70737  0.96186  1.0000
  H   H797      1.0  0.25380  0.53368  0.48206  1.0000
  H   H798      1.0  0.33730  0.71502  0.62087  1.0000
  H   H799      1.0  0.08620  0.70596  0.79562  1.0000
  H   H800      1.0  0.11191  0.67376  0.77556  1.0000
  H   H801      1.0  0.15452  0.66523  0.78415  1.0000
  H   H802      1.0  0.20659  0.65851  0.77717  1.0000
  H   H803      1.0  0.21434  0.61512  0.77247  1.0000
  H   H804      1.0  0.20326  0.58507  0.80611  1.0000
  H   H805      1.0  0.18405  0.59888  0.84506  1.0000
  H   H806      1.0  0.17686  0.64239  0.85052  1.0000
  H   H807      1.0  0.23629  0.68166  0.80596  1.0000
  H   H808      1.0  0.26343  0.70649  0.77920  1.0000
  H   H809      1.0  0.17422  0.54529  0.77547  1.0000
  C   C1016     1.0  0.21485  0.67842  0.64901  1.0000
  C   C1017     1.0  0.30275  0.58263  0.94151  1.0000
  S   S140      1.0  0.35112  0.49568  0.53318  1.0000
  H   H810      1.0  0.32930  0.71541  0.80256  1.0000
  H   H811      1.0  0.01686  0.72305  0.88393  1.0000
  C   C1018     1.0  0.26167  0.69320  0.64719  1.0000
  C   C1019     1.0  0.09822  0.68059  0.70784  1.0000
  C   C1020     1.0  0.34689  0.69741  0.92666  1.0000
  H   H812      1.0  0.05648  0.72200  0.94803  1.0000
  C   C1021     1.0  0.46217  0.53287  0.54428  1.0000
  H   H813      1.0  0.99573  0.68212  0.90100  1.0000
  P   P33       1.0  0.35270  0.49192  0.70169  1.0000
  Fe  Fe68      1.0  0.00133  0.53313  0.61529  1.0000
  H   H814      1.0  0.26197  0.51538  0.66276  1.0000
  H   H815      1.0  0.18350  0.72014  0.91064  1.0000
  P   P34       1.0  0.28964  0.65031  0.96575  1.0000
  H   H816      1.0  0.39935  0.51319  0.70103  1.0000
  C   C1022     1.0  0.04003  0.61083  0.62955  1.0000
  H   H817      1.0  0.08361  0.65890  0.90350  1.0000
  C   C1023     1.0  0.45537  0.54440  0.52232  1.0000
  C   C1024     1.0  0.32641  0.68147  0.96405  1.0000
  Fe  Fe69      1.0  0.30472  0.72889  0.85777  1.0000
  C   C1025     1.0  0.00964  0.62069  0.76422  1.0000
  S   S141      1.0  0.08392  0.48949  0.58703  1.0000
  C   C1026     1.0  0.36186  0.51774  0.71482  1.0000
  S   S142      1.0  0.14619  0.49641  0.95962  1.0000
  C   C1027     1.0  0.00614  0.51101  0.51150  1.0000
  H   H818      1.0  0.33467  0.51501  0.80890  1.0000
  C   C1028     1.0  0.47334  0.54809  0.93097  1.0000
  C   C1029     1.0  0.02069  0.71047  0.95545  1.0000
  H   H819      1.0  0.03270  0.57322  0.50238  1.0000
  C   C1030     1.0  0.00657  0.50059  0.72589  1.0000
  C   C1031     1.0  0.04134  0.58207  0.66469  1.0000
  H   H820      1.0  0.19686  0.67246  0.65052  1.0000
  Fe  Fe70      1.0  0.00723  0.48259  0.64006  1.0000
  H   H821      1.0  0.35947  0.70934  0.91717  1.0000
  C   C1032     1.0  0.28522  0.48747  0.68034  1.0000
  C   C1033     1.0  0.99552  0.53017  0.52435  1.0000
  H   H822      1.0  0.01197  0.54871  0.96251  1.0000
  H   H823      1.0  0.35445  0.50388  0.64883  1.0000
  C   C1034     1.0  0.26197  0.65773  0.95140  1.0000
  H   H824      1.0  0.34554  0.48828  0.75511  1.0000
  C   C1035     1.0  0.23463  0.66264  0.64214  1.0000
  C   C1036     1.0  0.98807  0.71305  0.65970  1.0000
  H   H825      1.0  0.21672  0.53163  0.76374  1.0000
  C   C1037     1.0  0.25716  0.68062  0.93924  1.0000
  H   H826      1.0  0.12507  0.65559  0.65775  1.0000
  H   H827      1.0  0.35791  0.55615  0.84584  1.0000
  S   S143      1.0  0.40589  0.48289  0.92794  1.0000
  H   H828      1.0  0.45305  0.49390  0.48528  1.0000
  H   H829      1.0  0.06749  0.63648  0.94085  1.0000
  S   S144      1.0  0.01686  0.52051  0.57921  1.0000
  H   H830      1.0  0.26369  0.54961  0.82215  1.0000
  H   H831      1.0  0.04133  0.59675  0.69886  1.0000
  C   C1038     1.0  0.99953  0.67013  0.66558  1.0000
  H   H832      1.0  0.30660  0.65892  0.91520  1.0000
  H   H833      1.0  0.03626  0.56585  0.92712  1.0000
  H   H834      1.0  0.12330  0.56663  0.93896  1.0000
  C   C1039     1.0  0.00332  0.64243  0.72538  1.0000
  C   C1040     1.0  0.42590  0.66968  0.95755  1.0000
  C   C1041     1.0  0.37563  0.55738  0.73638  1.0000
  C   C1042     1.0  0.39265  0.54348  0.72241  1.0000
  C   C1043     1.0  0.02003  0.67472  0.67670  1.0000
  C   C1044     1.0  0.42022  0.67855  0.91477  1.0000
  C   C1045     1.0  0.99675  0.71747  0.96284  1.0000
  H   H835      1.0  0.38095  0.57262  0.74474  1.0000
  H   H836      1.0  0.41116  0.54802  0.71991  1.0000
  H   H837      1.0  0.03972  0.64817  0.63608  1.0000
  C   C1046     1.0  0.04122  0.60101  0.67957  1.0000
  C   C1047     1.0  0.44860  0.65804  0.95138  1.0000
  H   H838      1.0  0.20802  0.63518  0.94738  1.0000
  H   H839      1.0  0.00906  0.50391  0.68689  1.0000
  C   C1048     1.0  0.31632  0.51432  0.81676  1.0000
  C   C1049     1.0  0.26105  0.51523  0.48014  1.0000
  H   H840      1.0  0.23588  0.60801  0.84346  1.0000
  H   H841      1.0  0.07942  0.50794  0.89534  1.0000
  S   S145      1.0  0.98707  0.57289  0.61625  1.0000
  C   C1050     1.0  0.27588  0.48105  0.75488  1.0000
  H   H842      1.0  0.00244  0.61279  0.78148  1.0000
  H   H843      1.0  0.37298  0.65948  0.87527  1.0000
  C   C1051     1.0  0.00130  0.68231  0.86193  1.0000
  C   C1052     1.0  0.44301  0.66712  0.90882  1.0000
  C   C1053     1.0  0.34489  0.53189  0.72876  1.0000
  P   P35       1.0  0.03928  0.48909  0.47812  1.0000
  C   C1054     1.0  0.28539  0.50850  0.48341  1.0000
  H   H844      1.0  0.42321  0.59646  0.95073  1.0000
  H   H845      1.0  0.01677  0.56132  0.75332  1.0000
  H   H846      1.0  0.33845  0.56226  0.75037  1.0000
  C   C1055     1.0  0.35176  0.55157  0.73956  1.0000
  H   H847      1.0  0.14213  0.48311  0.51619  1.0000
  H   H848      1.0  0.98321  0.63522  0.81497  1.0000
  C   C1056     1.0  0.31738  0.52288  0.67998  1.0000
  C   C1057     1.0  0.11618  0.67434  0.68989  1.0000
  C   C1058     1.0  0.32351  0.49943  0.69028  1.0000
  C   C1059     1.0  0.04060  0.58699  0.63973  1.0000
  H   H849      1.0  0.02295  0.64558  0.90877  1.0000
  C   C1060     1.0  0.99914  0.71724  0.73682  1.0000
  H   H850      1.0  0.06003  0.50120  0.78802  1.0000
  C   C1061     1.0  0.27624  0.53378  0.82455  1.0000
  C   C1062     1.0  0.30011  0.53486  0.81503  1.0000
  C   C1063     1.0  0.12909  0.52891  0.89347  1.0000
  C   C1064     1.0  0.11794  0.54561  0.90932  1.0000
  P   P36       1.0  0.08639  0.55611  0.90893  1.0000
  C   C1065     1.0  0.08548  0.58871  0.90737  1.0000
  C   C1066     1.0  0.07248  0.54604  0.88398  1.0000
  C   C1067     1.0  0.06054  0.56263  0.86760  1.0000
  C   C1068     1.0  0.04947  0.55450  0.84869  1.0000
  C   C1069     1.0  0.04982  0.52978  0.84623  1.0000
  C   C1070     1.0  0.06074  0.51313  0.86305  1.0000
  C   C1071     1.0  0.07171  0.52119  0.88205  1.0000
  C   C1072     1.0  0.07594  0.60147  0.92712  1.0000
  C   C1073     1.0  0.07537  0.62669  0.92568  1.0000
  C   C1074     1.0  0.08461  0.63933  0.90464  1.0000
  C   C1075     1.0  0.09498  0.62671  0.88519  1.0000
  C   C1076     1.0  0.09565  0.60146  0.88664  1.0000
  C   C1077     1.0  0.06909  0.54399  0.93534  1.0000
  C   C1078     1.0  0.07917  0.52534  0.95092  1.0000
  C   C1079     1.0  0.24400  0.64150  0.95452  1.0000
  H   H851      1.0  0.44021  0.55802  0.52200  1.0000
  H   H852      1.0  0.45238  0.53769  0.56108  1.0000
  H   H853      1.0  0.11910  0.52152  0.88060  1.0000
  C   C1080     1.0  0.41164  0.67969  0.93905  1.0000
  H   H854      1.0  0.05908  0.58175  0.86969  1.0000
  H   H855      1.0  0.04011  0.56735  0.83629  1.0000
  H   H856      1.0  0.04114  0.52349  0.83166  1.0000
  H   H857      1.0  0.20002  0.67526  0.92538  1.0000
  H   H858      1.0  0.00983  0.51921  0.72721  1.0000
  H   H859      1.0  0.06894  0.59203  0.94370  1.0000
  H   H860      1.0  0.06139  0.67823  0.72149  1.0000
  C   C1081     1.0  0.02510  0.55592  0.50469  1.0000
  H   H861      1.0  0.10230  0.63651  0.86893  1.0000
  H   H862      1.0  0.10381  0.59182  0.87153  1.0000
  H   H863      1.0  0.09770  0.51818  0.94781  1.0000
  S   S146      1.0  0.01468  0.48092  0.84073  1.0000
  H   H864      1.0  0.10210  0.69163  0.72185  1.0000
  C   C1082     1.0  0.45717  0.65686  0.92713  1.0000
  H   H865      1.0  0.14858  0.71186  0.71844  1.0000
  C   C1083     1.0  0.03550  0.53688  0.49145  1.0000
  H   H866      1.0  0.03895  0.61455  0.61023  1.0000
  S   S147      1.0  0.03129  0.51312  0.63562  1.0000
  H   H867      1.0  0.08451  0.64228  0.65677  1.0000
  H   H868      1.0  0.01007  0.67636  0.82412  1.0000
  C   C1084     1.0  0.06510  0.51526  0.97058  1.0000
  Fe  Fe71      1.0  0.34399  0.49233  0.96347  1.0000
  H   H869      1.0  0.30588  0.55139  0.80552  1.0000
  Fe  Fe72      1.0  0.38753  0.51764  0.94062  1.0000
  C   C1085     1.0  0.03444  0.61836  0.75795  1.0000
  C   C1086     1.0  0.00626  0.49193  0.70305  1.0000
  C   C1087     1.0  0.23398  0.53022  0.87297  1.0000
  C   C1088     1.0  0.22540  0.55467  0.86942  1.0000
  C   C1089     1.0  0.22307  0.56943  0.88868  1.0000
  C   C1090     1.0  0.22979  0.56004  0.91144  1.0000
  C   C1091     1.0  0.23899  0.53596  0.91492  1.0000
  C   C1092     1.0  0.24119  0.52112  0.89576  1.0000
  H   H870      1.0  0.42043  0.71959  0.96917  1.0000
  H   H871      1.0  0.34512  0.64257  0.85078  1.0000
  H   H872      1.0  0.22064  0.56237  0.85178  1.0000
  H   H873      1.0  0.21612  0.58816  0.88598  1.0000
  H   H874      1.0  0.22795  0.57136  0.92643  1.0000
  H   H875      1.0  0.24436  0.52866  0.93252  1.0000
  S   S148      1.0  0.35212  0.51131  0.92694  1.0000
  C   C1093     1.0  0.29529  0.52858  0.67004  1.0000
  C   C1094     1.0  0.04464  0.55203  0.93939  1.0000
  P   P37       1.0  0.29170  0.70289  0.64663  1.0000
  H   H876      1.0  0.05690  0.50783  0.74380  1.0000
  H   H877      1.0  0.37785  0.59589  0.97221  1.0000
  P   P38       1.0  0.23746  0.51115  0.84811  1.0000
  H   H878      1.0  0.32972  0.53676  0.67950  1.0000
  C   C1095     1.0  0.04022  0.62980  0.64431  1.0000
  C   C1096     1.0  0.98308  0.56177  0.90178  1.0000
  C   C1097     1.0  0.25073  0.50472  0.72678  1.0000
  H   H879      1.0  0.28812  0.56671  0.88512  1.0000
  C   C1098     1.0  0.21732  0.67040  0.93248  1.0000
  H   H880      1.0  0.18676  0.52901  0.85037  1.0000
  C   C1099     1.0  0.98100  0.58075  0.66524  1.0000
  C   C1100     1.0  0.04055  0.62507  0.66950  1.0000
  C   C1101     1.0  0.00817  0.71779  0.67108  1.0000
  C   C1102     1.0  0.17791  0.53828  0.81376  1.0000
  C   C1103     1.0  0.02612  0.51420  0.49477  1.0000
  H   H881      1.0  0.13401  0.68040  0.69004  1.0000
  C   C1104     1.0  0.28268  0.71146  0.69522  1.0000
  H   H882      1.0  0.04333  0.62391  0.87489  1.0000
  H   H883      1.0  0.28658  0.49154  0.53893  1.0000
  C   C1105     1.0  0.01307  0.67006  0.84267  1.0000
  H   H884      1.0  0.28376  0.61617  0.92973  1.0000
  C   C1106     1.0  0.15623  0.54704  0.92648  1.0000
  C   C1107     1.0  0.23495  0.68685  0.92970  1.0000
  C   C1108     1.0  0.13169  0.55445  0.92594  1.0000
  H   H885      1.0  0.29061  0.54680  0.66230  1.0000
  H   H886      1.0  0.16643  0.55325  0.94001  1.0000
  H   H887      1.0  0.32634  0.52755  0.73140  1.0000
  S   S149      1.0  0.98857  0.59208  0.90478  1.0000
  C   C1109     1.0  0.29871  0.72117  0.61891  1.0000
  C   C1110     1.0  0.03191  0.64033  0.87113  1.0000
  C   C1111     1.0  0.00492  0.67330  0.88579  1.0000
  C   C1112     1.0  0.02030  0.65248  0.89031  1.0000
  H   H888      1.0  0.04136  0.56357  0.67251  1.0000
  C   C1113     1.0  0.25792  0.67007  0.64089  1.0000
  H   H889      1.0  0.24857  0.50252  0.89878  1.0000
  H   H890      1.0  0.26273  0.66340  0.87989  1.0000
  H   H891      1.0  0.39713  0.63344  0.96027  1.0000
  C   C1114     1.0  0.31688  0.66906  0.92566  1.0000
  H   H892      1.0  0.27849  0.71546  0.73337  1.0000
  H   H893      1.0  0.23767  0.50572  0.71345  1.0000
  C   C1115     1.0  0.02844  0.64919  0.84729  1.0000
  C   C1116     1.0  0.25722  0.60834  0.49153  1.0000
  C   C1117     1.0  0.24644  0.63685  0.86233  1.0000
  H   H894      1.0  0.32357  0.55152  0.95712  1.0000
  C   C1118     1.0  0.31371  0.67696  0.64811  1.0000
  C   C1119     1.0  0.31975  0.66391  0.62768  1.0000
  C   C1120     1.0  0.33601  0.64329  0.62886  1.0000
  C   C1121     1.0  0.34649  0.63561  0.65038  1.0000
  C   C1122     1.0  0.34102  0.64878  0.67063  1.0000
  C   C1123     1.0  0.32481  0.66942  0.66950  1.0000
  H   H895      1.0  0.23205  0.64439  0.63826  1.0000
  H   H896      1.0  0.22335  0.72472  0.70685  1.0000
  P   P39       1.0  0.03975  0.64979  0.68860  1.0000
  C   C1124     1.0  0.19441  0.72348  0.78226  1.0000
  H   H897      1.0  0.27283  0.65722  0.63595  1.0000
  H   H898      1.0  0.40924  0.68650  0.90056  1.0000
  H   H899      1.0  0.27319  0.69531  0.69716  1.0000
  H   H900      1.0  0.04650  0.60886  0.77046  1.0000
  H   H901      1.0  0.22892  0.64693  0.86260  1.0000
  C   C1125     1.0  0.06979  0.65912  0.68915  1.0000
  C   C1126     1.0  0.28544  0.72308  0.71585  1.0000
  H   H902      1.0  0.28977  0.52292  0.89708  1.0000
  H   H903      1.0  0.31129  0.66919  0.61104  1.0000
  H   H904      1.0  0.33975  0.63267  0.61338  1.0000
  H   H905      1.0  0.35847  0.61920  0.65144  1.0000
  H   H906      1.0  0.34890  0.64277  0.68746  1.0000
  H   H907      1.0  0.32075  0.67901  0.68557  1.0000
  C   C1127     1.0  0.25907  0.48222  0.73758  1.0000
  C   C1128     1.0  0.12569  0.49250  0.52344  1.0000
  C   C1129     1.0  0.32882  0.60599  0.78145  1.0000
  C   C1130     1.0  0.35324  0.60890  0.77611  1.0000
  C   C1131     1.0  0.36860  0.60694  0.79475  1.0000
  C   C1132     1.0  0.35937  0.60279  0.81880  1.0000
  C   C1133     1.0  0.33453  0.60123  0.82447  1.0000
  C   C1134     1.0  0.31945  0.60223  0.80546  1.0000
  P   P40       1.0  0.32258  0.59684  0.85576  1.0000
  C   C1135     1.0  0.34205  0.60973  0.87445  1.0000
  C   C1136     1.0  0.29253  0.61191  0.85960  1.0000
  C   C1137     1.0  0.28836  0.63369  0.87081  1.0000
  C   C1138     1.0  0.26542  0.64607  0.87219  1.0000
  S   S150      1.0  0.12705  0.52176  0.48057  1.0000
  C   C1139     1.0  0.25034  0.61500  0.85154  1.0000
  C   C1140     1.0  0.27315  0.60242  0.85047  1.0000
  C   C1141     1.0  0.34901  0.59724  0.89610  1.0000
  C   C1142     1.0  0.36430  0.60730  0.91023  1.0000
  C   C1143     1.0  0.37306  0.62964  0.90273  1.0000
  C   C1144     1.0  0.36622  0.64217  0.88121  1.0000
  C   C1145     1.0  0.35055  0.63242  0.86726  1.0000
  C   C1146     1.0  0.32261  0.56475  0.86390  1.0000
  C   C1147     1.0  0.34263  0.54920  0.85661  1.0000
  C   C1148     1.0  0.34322  0.52442  0.86346  1.0000
  C   C1149     1.0  0.32387  0.51500  0.87757  1.0000
  C   C1150     1.0  0.30419  0.53037  0.88541  1.0000
  C   C1151     1.0  0.30346  0.55517  0.87861  1.0000
  H   H908      1.0  0.31698  0.60736  0.76693  1.0000
  H   H909      1.0  0.36013  0.61285  0.75751  1.0000
  H   H910      1.0  0.38762  0.60892  0.79060  1.0000
  H   H911      1.0  0.37166  0.60115  0.83291  1.0000
  H   H912      1.0  0.30039  0.60061  0.80885  1.0000
  H   H913      1.0  0.30288  0.64190  0.87752  1.0000
  H   H914      1.0  0.06036  0.49391  0.86166  1.0000
  H   H915      1.0  0.27582  0.58558  0.84193  1.0000
  H   H916      1.0  0.34303  0.57960  0.90203  1.0000
  H   H917      1.0  0.36980  0.59744  0.92675  1.0000
  H   H918      1.0  0.38533  0.63708  0.91348  1.0000
  H   H919      1.0  0.03738  0.63970  0.83242  1.0000
  H   H920      1.0  0.44975  0.66618  0.89005  1.0000
  Fe  Fe73      1.0  0.00298  0.65301  0.95977  1.0000
  H   H921      1.0  0.39724  0.48429  0.57105  1.0000
  C   C1152     1.0  0.46744  0.53771  0.50058  1.0000
  C   C1153     1.0  0.22183  0.64776  0.94490  1.0000
  C   C1154     1.0  0.38753  0.48648  0.63427  1.0000
  C   C1155     1.0  0.30029  0.61896  0.96306  1.0000
  H   H922      1.0  0.22524  0.63278  0.48906  1.0000
  C   C1156     1.0  0.26850  0.51217  0.83629  1.0000
  H   H923      1.0  0.03989  0.57237  0.62828  1.0000
  C   C1157     1.0  0.19357  0.53004  0.83155  1.0000
  H   H924      1.0  0.45985  0.65009  0.96525  1.0000
  C   C1158     1.0  0.11110  0.66042  0.67165  1.0000
  C   C1159     1.0  0.98342  0.52878  0.87563  1.0000
  C   C1160     1.0  0.29456  0.60691  0.94348  1.0000
  C   C1161     1.0  0.23676  0.61868  0.48060  1.0000
  C   C1162     1.0  0.08800  0.65288  0.67120  1.0000
  H   H925      1.0  0.47490  0.64801  0.92264  1.0000
  H   H926      1.0  0.18581  0.52351  0.91223  1.0000
  H   H927      1.0  0.99089  0.65139  0.71296  1.0000
  H   H928      1.0  0.38444  0.49331  0.61589  1.0000
  C   C1163     1.0  0.99411  0.63282  0.74798  1.0000
  H   H929      1.0  0.06288  0.62539  0.73042  1.0000
  H   H930      1.0  0.26160  0.61436  0.50845  1.0000
  C   C1164     1.0  0.02815  0.63987  0.71878  1.0000
  C   C1165     1.0  0.04369  0.62787  0.73529  1.0000
  C   C1166     1.0  0.24060  0.48280  0.95701  1.0000
  C   C1167     1.0  0.16713  0.53025  0.91083  1.0000
  C   C1168     1.0  0.18516  0.72130  0.71209  1.0000
  C   C1169     1.0  0.27923  0.51085  0.67015  1.0000
  H   H931      1.0  0.15936  0.49203  0.58387  1.0000
  H   H932      1.0  0.46146  0.54613  0.48368  1.0000
  H   H933      1.0  0.14619  0.72324  0.83144  1.0000
  C   C1170     1.0  0.30886  0.49290  0.82874  1.0000
  C   C1171     1.0  0.07514  0.67296  0.70755  1.0000
  H   H934      1.0  0.98625  0.70383  0.74010  1.0000
  C   C1172     1.0  0.11609  0.48588  0.54706  1.0000
  C   C1173     1.0  0.21029  0.53148  0.78270  1.0000
  C   C1174     1.0  0.02406  0.69874  0.67965  1.0000
  H   H935      1.0  0.21706  0.71491  0.83907  1.0000
  H   H936      1.0  0.46607  0.60500  0.94920  1.0000
  H   H937      1.0  0.03918  0.70298  0.68880  1.0000
  C   C1175     1.0  0.20252  0.71830  0.87548  1.0000
  C   C1176     1.0  0.24162  0.70908  0.65372  1.0000
  C   C1177     1.0  0.06401  0.49043  0.75161  1.0000
  H   H938      1.0  0.98330  0.70459  0.96394  1.0000
  C   C1178     1.0  0.37049  0.49248  0.65313  1.0000
  C   C1179     1.0  0.29455  0.48452  0.48125  1.0000
  H   H939      1.0  0.20978  0.48853  0.89084  1.0000
  C   C1180     1.0  0.29311  0.71991  0.67256  1.0000
  C   C1181     1.0  0.98382  0.68922  0.65686  1.0000
  H   H940      1.0  0.17531  0.72888  0.78311  1.0000
  C   C1182     1.0  0.21782  0.52287  0.82502  1.0000
  H   H941      1.0  0.02602  0.72072  0.83281  1.0000
  H   H942      1.0  0.20296  0.71394  0.65993  1.0000
  H   H943      1.0  0.99675  0.56347  0.86439  1.0000
  C   C1183     1.0  0.03798  0.72735  0.95387  1.0000
  H   H944      1.0  0.10177  0.72295  0.93436  1.0000
  C   C1184     1.0  0.22594  0.52312  0.80042  1.0000
  H   H945      1.0  0.12180  0.72823  0.89272  1.0000
  H   H946      1.0  0.24396  0.72702  0.65862  1.0000
  Fe  Fe74      1.0  0.98425  0.60926  0.94054  1.0000
  C   C1185     1.0  0.28349  0.49401  0.97467  1.0000
  C   C1186     1.0  0.00082  0.55884  0.79004  1.0000
  C   C1187     1.0  0.22969  0.48065  0.85673  1.0000
  H   H947      1.0  0.24423  0.51661  0.79478  1.0000
  H   H948      1.0  0.15918  0.54362  0.81887  1.0000
  H   H949      1.0  0.05093  0.54005  0.47896  1.0000
  H   H950      1.0  0.99118  0.56349  0.66853  1.0000
  C   C1188     1.0  0.32285  0.72385  0.61069  1.0000
  C   C1189     1.0  0.98782  0.72446  0.82785  1.0000
  C   C1190     1.0  0.01205  0.72859  0.82153  1.0000
  C   C1191     1.0  0.28519  0.49187  0.83889  1.0000
  C   C1192     1.0  0.28444  0.48170  0.95373  1.0000
  C   C1193     1.0  0.03935  0.72943  0.74019  1.0000
  C   C1194     1.0  0.37441  0.48401  0.67708  1.0000
  C   C1195     1.0  0.47966  0.57050  0.93696  1.0000
  C   C1196     1.0  0.32403  0.58257  0.97741  1.0000
  C   C1197     1.0  0.23982  0.49545  0.97764  1.0000
  H   H951      1.0  0.36646  0.88307  0.12826  1.0000
  Fe  Fe75      1.0  0.39266  0.75612  0.25277  1.0000
  S   S151      1.0  0.41221  0.74114  0.22006  1.0000
  Fe  Fe76      1.0  0.41870  0.80337  0.24423  1.0000
  S   S152      1.0  0.43889  0.79084  0.20998  1.0000
  S   S153      1.0  0.42250  0.84248  0.25314  1.0000
  Fe  Fe77      1.0  0.40387  0.77770  0.20137  1.0000
  S   S154      1.0  0.39106  0.77803  0.16349  1.0000
  Fe  Fe78      1.0  0.44481  0.75545  0.23190  1.0000
  H   H952      1.0  0.33185  0.77742  0.06788  1.0000
  S   S155      1.0  0.38302  0.79274  0.23370  1.0000
  S   S156      1.0  0.42624  0.76795  0.26661  1.0000
  C   C1198     1.0  0.42258  0.83863  0.17164  1.0000
  S   S157      1.0  0.23397  0.73242  0.06520  1.0000
  H   H953      1.0  0.37444  0.77739  0.05079  1.0000
  S   S158      1.0  0.45189  0.83176  0.01180  1.0000
  H   H954      1.0  0.27029  0.88177  0.99697  1.0000
  C   C1199     1.0  0.35498  0.83738  0.12536  1.0000
  S   S159      1.0  0.29739  0.74582  0.03129  1.0000
  H   H955      1.0  0.42531  0.91371  0.15498  1.0000
  S   S160      1.0  0.22685  0.74815  0.12112  1.0000
  Fe  Fe79      1.0  0.26959  0.74830  0.06301  1.0000
  S   S161      1.0  0.25523  0.78268  0.07930  1.0000
  P   P41       1.0  0.00634  0.97327  0.97992  1.0000
  Fe  Fe80      1.0  0.26351  0.76236  0.11479  1.0000
  S   S162      1.0  0.28033  0.77661  0.14578  1.0000
  Fe  Fe81      1.0  0.21979  0.76567  0.08384  1.0000
  S   S163      1.0  0.18346  0.78753  0.07892  1.0000
  C   C1200     1.0  0.05774  0.92300  0.00568  1.0000
  H   H956      1.0  0.26125  0.81329  0.98621  1.0000
  C   C1201     1.0  0.36613  0.80226  0.02016  1.0000
  S   S164      1.0  0.04069  0.81927  0.01167  1.0000
  C   C1202     1.0  0.34801  0.81649  0.00850  1.0000
  C   C1203     1.0  0.07932  0.93237  0.99661  1.0000
  H   H957      1.0  0.35691  0.75896  0.99942  1.0000
  Fe  Fe82      1.0  0.07545  0.82578  0.98927  1.0000
  S   S165      1.0  0.11244  0.80466  0.99364  1.0000
  Fe  Fe83      1.0  0.02995  0.85892  0.00295  1.0000
  H   H958      1.0  0.45478  0.76673  0.08540  1.0000
  H   H959      1.0  0.47090  0.86623  0.18391  1.0000
  C   C1204     1.0  0.44849  0.80430  0.07308  1.0000
  H   H960      1.0  0.12263  0.74655  0.03879  1.0000
  C   C1205     1.0  0.31830  0.80271  0.03976  1.0000
  C   C1206     1.0  0.23220  0.81613  0.01345  1.0000
  C   C1207     1.0  0.36806  0.74210  0.99779  1.0000
  C   C1208     1.0  0.16416  0.79200  0.05478  1.0000
  C   C1209     1.0  0.14143  0.80478  0.05866  1.0000
  C   C1210     1.0  0.12546  0.80897  0.04018  1.0000
  C   C1211     1.0  0.13202  0.80039  0.01750  1.0000
  C   C1212     1.0  0.15479  0.78763  0.01356  1.0000
  C   C1213     1.0  0.17084  0.78357  0.03200  1.0000
  H   H961      1.0  0.13611  0.81150  0.07614  1.0000
  H   H962      1.0  0.10806  0.81878  0.04356  1.0000
  H   H963      1.0  0.16009  0.78092  0.99609  1.0000
  H   H964      1.0  0.18829  0.77385  0.02864  1.0000
  C   C1214     1.0  0.25031  0.75724  0.97958  1.0000
  H   H965      1.0  0.46510  0.80447  0.06146  1.0000
  S   S166      1.0  0.36399  0.73402  0.27367  1.0000
  C   C1215     1.0  0.46791  0.87993  0.30254  1.0000
  C   C1216     1.0  0.47095  0.85465  0.30133  1.0000
  H   H966      1.0  0.34774  0.84922  0.06522  1.0000
  C   C1217     1.0  0.36042  0.77458  0.15955  1.0000
  C   C1218     1.0  0.35388  0.76884  0.13704  1.0000
  C   C1219     1.0  0.32945  0.76808  0.13285  1.0000
  C   C1220     1.0  0.31133  0.77338  0.15108  1.0000
  C   C1221     1.0  0.31797  0.77819  0.17380  1.0000
  C   C1222     1.0  0.34235  0.77861  0.17809  1.0000
  H   H967      1.0  0.36769  0.76535  0.12267  1.0000
  H   H968      1.0  0.32458  0.76434  0.11530  1.0000
  H   H969      1.0  0.30412  0.78220  0.18805  1.0000
  H   H970      1.0  0.34705  0.78287  0.19555  1.0000
  C   C1223     1.0  0.43990  0.85614  0.27291  1.0000
  C   C1224     1.0  0.43680  0.88141  0.27417  1.0000
  C   C1225     1.0  0.45070  0.89324  0.28878  1.0000
  C   C1226     1.0  0.46234  0.95956  0.03898  1.0000
  C   C1227     1.0  0.47464  0.94697  0.07900  1.0000
  C   C1228     1.0  0.45714  0.84284  0.28664  1.0000
  H   H971      1.0  0.42358  0.89197  0.26368  1.0000
  H   H972      1.0  0.38465  0.80212  0.01243  1.0000
  C   C1229     1.0  0.44262  0.78296  0.08645  1.0000
  H   H973      1.0  0.45989  0.82347  0.28591  1.0000
  C   C1230     1.0  0.33646  0.78847  0.05139  1.0000
  H   H974      1.0  0.98515  0.97580  0.06812  1.0000
  C   C1231     1.0  0.45989  0.93533  0.03492  1.0000
  H   H975      1.0  0.98020  0.92511  0.04608  1.0000
  C   C1232     1.0  0.08675  0.75397  0.02840  1.0000
  C   C1233     1.0  0.23907  0.83605  0.04869  1.0000
  C   C1234     1.0  0.46960  0.96554  0.06106  1.0000
  C   C1235     1.0  0.27118  0.83118  0.01657  1.0000
  H   H976      1.0  0.13247  0.73407  0.97860  1.0000
  C   C1236     1.0  0.32557  0.87444  0.01921  1.0000
  C   C1237     1.0  0.36039  0.78837  0.04171  1.0000
  P   P42       1.0  0.39118  0.85257  0.09110  1.0000
  H   H977      1.0  0.22039  0.80698  0.00362  1.0000
  H   H978      1.0  0.01919  0.92759  0.00678  1.0000
  H   H979      1.0  0.47520  0.90867  0.08920  1.0000
  H   H980      1.0  0.41656  0.76625  0.11193  1.0000
  C   C1238     1.0  0.33189  0.83075  0.13303  1.0000
  C   C1239     1.0  0.41873  0.90205  0.14293  1.0000
  H   H981      1.0  0.45387  0.89236  0.12593  1.0000
  C   C1240     1.0  0.42108  0.78263  0.10115  1.0000
  C   C1241     1.0  0.34364  0.84426  0.08418  1.0000
  H   H982      1.0  0.30737  0.83686  0.07900  1.0000
  C   C1242     1.0  0.43485  0.88995  0.12660  1.0000
  C   C1243     1.0  0.43649  0.85311  0.18290  1.0000
  C   C1244     1.0  0.46442  0.91684  0.05302  1.0000
  C   C1245     1.0  0.28482  0.74887  0.00334  1.0000
  H   H983      1.0  0.45372  0.93103  0.01812  1.0000
  H   H984      1.0  0.34369  0.90309  0.03119  1.0000
  C   C1246     1.0  0.30485  0.86815  0.00962  1.0000
  C   C1247     1.0  0.39304  0.86796  0.01774  1.0000
  H   H985      1.0  0.23260  0.84213  0.06623  1.0000
  H   H986      1.0  0.44798  0.91262  0.28949  1.0000
  C   C1248     1.0  0.39714  0.90539  0.03517  1.0000
  C   C1249     1.0  0.38565  0.88428  0.12796  1.0000
  H   H987      1.0  0.18035  0.73645  0.08242  1.0000
  C   C1250     1.0  0.31478  0.83050  0.11632  1.0000
  H   H988      1.0  0.35284  0.82744  0.99199  1.0000
  H   H989      1.0  0.27414  0.84831  0.04946  1.0000
  C   C1251     1.0  0.36102  0.84445  0.10087  1.0000
  H   H990      1.0  0.42225  0.81405  0.14424  1.0000
  C   C1252     1.0  0.28862  0.91018  0.00885  1.0000
  C   C1253     1.0  0.43293  0.82536  0.07454  1.0000
  C   C1254     1.0  0.41112  0.82516  0.08910  1.0000
  C   C1255     1.0  0.39206  0.86861  0.06138  1.0000
  C   C1256     1.0  0.43289  0.82585  0.15234  1.0000
  C   C1257     1.0  0.39489  0.89351  0.05836  1.0000
  C   C1258     1.0  0.39622  0.89262  0.01486  1.0000
  C   C1259     1.0  0.46061  0.85513  0.17459  1.0000
  H   H991      1.0  0.36823  0.83656  0.13855  1.0000
  H   H992      1.0  0.16257  0.73640  0.04361  1.0000
  H   H993      1.0  0.31837  0.73863  0.98329  1.0000
  C   C1260     1.0  0.45701  0.82768  0.14403  1.0000
  C   C1261     1.0  0.40185  0.87142  0.11200  1.0000
  H   H994      1.0  0.40402  0.83666  0.17838  1.0000
  H   H995      1.0  0.43785  0.84175  0.06414  1.0000
  C   C1262     1.0  0.32064  0.83727  0.09191  1.0000
  H   H996      1.0  0.39627  0.90370  0.07374  1.0000
  H   H997      1.0  0.08468  0.77173  0.03522  1.0000
  C   C1263     1.0  0.25567  0.81960  0.00374  1.0000
  H   H998      1.0  0.32740  0.82520  0.15192  1.0000
  S   S167      1.0  0.45876  0.88654  0.04980  1.0000
  H   H999      1.0  0.38892  0.80273  0.11399  1.0000
  Fe  Fe84      1.0  0.46487  0.86840  0.01433  1.0000
  C   C1264     1.0  0.26029  0.75566  0.00194  1.0000
  S   S168      1.0  0.00906  0.88315  0.02974  1.0000
  H   H1000     1.0  0.47777  0.88897  0.24237  1.0000
  H   H1001     1.0  0.42868  0.86233  0.19846  1.0000
  H   H1002     1.0  0.09633  0.92258  0.00065  1.0000
  H   H1003     1.0  0.24900  0.75986  0.01806  1.0000
  C   C1265     1.0  0.39121  0.85593  0.04086  1.0000
  H   H1004     1.0  0.43910  0.86598  0.09828  1.0000
  C   C1266     1.0  0.10840  0.73949  0.03040  1.0000
  H   H1005     1.0  0.29709  0.82467  0.12233  1.0000
  H   H1006     1.0  0.20571  0.82171  0.04337  1.0000
  H   H1007     1.0  0.05143  0.75735  0.01523  1.0000
  H   H1008     1.0  0.48006  0.95130  0.09614  1.0000
  C   C1267     1.0  0.42645  0.87478  0.11114  1.0000
  C   C1268     1.0  0.39413  0.89927  0.14356  1.0000
  C   C1269     1.0  0.40533  0.80355  0.10234  1.0000
  H   H1009     1.0  0.40038  0.92435  0.03295  1.0000
  H   H1010     1.0  0.38160  0.90886  0.15608  1.0000
  H   H1011     1.0  0.38959  0.83666  0.04274  1.0000
  P   P43       1.0  0.30129  0.83726  0.00412  1.0000
  H   H1012     1.0  0.29990  0.80226  0.04748  1.0000
  C   C1270     1.0  0.26263  0.83933  0.03918  1.0000
  H   H1013     1.0  0.39260  0.85805  0.00198  1.0000
  H   H1014     1.0  0.31095  0.93482  0.02195  1.0000
  C   C1271     1.0  0.30925  0.91626  0.01851  1.0000
  H   H1015     1.0  0.00370  0.97779  0.39949  1.0000
  H   H1016     1.0  0.39842  0.90170  0.99687  1.0000
  C   C1272     1.0  0.32398  0.81703  0.01835  1.0000
  C   C1273     1.0  0.28640  0.88623  0.00444  1.0000
  C   C1274     1.0  0.07889  0.95426  0.98224  1.0000
  C   C1275     1.0  0.22389  0.82443  0.03585  1.0000
  H   H1017     1.0  0.26346  0.73029  0.17270  1.0000
  C   C1276     1.0  0.32770  0.89839  0.02369  1.0000
  H   H1018     1.0  0.34015  0.86105  0.02328  1.0000
  H   H1019     1.0  0.46461  0.81711  0.12941  1.0000
  H   H1020     1.0  0.98690  0.81799  0.01466  1.0000
  H   H1021     1.0  0.05786  0.90604  0.01686  1.0000
  S   S169      1.0  0.47559  0.96858  0.32584  1.0000
  H   H1022     1.0  0.27430  0.92403  0.00483  1.0000
  C   C1277     1.0  0.03578  0.93533  0.00018  1.0000
  H   H1023     1.0  0.47533  0.84750  0.23063  1.0000
  H   H1024     1.0  0.01244  0.94654  0.47142  1.0000
  C   C1278     1.0  0.47181  0.92280  0.07506  1.0000
  C   C1279     1.0  0.03510  0.95754  0.98627  1.0000
  H   H1025     1.0  0.00716  0.95898  0.03252  1.0000
  C   C1280     1.0  0.38967  0.74155  0.98314  1.0000
  H   H1026     1.0  0.98648  0.83386  0.05478  1.0000
  C   C1281     1.0  0.47108  0.84258  0.15493  1.0000
  C   C1282     1.0  0.06810  0.74596  0.01699  1.0000
  H   H1027     1.0  0.47427  0.77526  0.98012  1.0000
  C   C1283     1.0  0.29939  0.74386  0.98231  1.0000
  C   C1284     1.0  0.99506  0.97505  0.02991  1.0000
  S   S170      1.0  0.06627  0.86623  0.98358  1.0000
  H   H1028     1.0  0.23134  0.76272  0.97860  1.0000
  H   H1029     1.0  0.45842  0.97376  0.02498  1.0000
  H   H1030     1.0  0.04286  0.90544  0.53188  1.0000
  Fe  Fe85      1.0  0.09276  0.75325  0.74679  1.0000
  S   S171      1.0  0.10423  0.77376  0.71157  1.0000
  C   C1285     1.0  0.02148  0.94614  0.48784  1.0000
  Fe  Fe86      1.0  0.12761  0.77656  0.77556  1.0000
  S   S172      1.0  0.14063  0.79928  0.74291  1.0000
  S   S173      1.0  0.14441  0.77371  0.81146  1.0000
  Fe  Fe87      1.0  0.10180  0.80573  0.73415  1.0000
  S   S174      1.0  0.08657  0.84488  0.72585  1.0000
  Fe  Fe88      1.0  0.14178  0.76551  0.72373  1.0000
  S   S175      1.0  0.08846  0.78537  0.76897  1.0000
  H   H1031     1.0  0.09246  0.90384  0.78979  1.0000
  H   H1032     1.0  0.02560  0.95111  0.73120  1.0000
  S   S176      1.0  0.01207  0.94195  0.58719  1.0000
  H   H1033     1.0  0.15761  0.90475  0.82195  1.0000
  H   H1034     1.0  0.20248  0.75272  0.75584  1.0000
  S   S177      1.0  0.03203  0.96264  0.63491  1.0000
  H   H1035     1.0  0.09559  0.96144  0.97495  1.0000
  Fe  Fe89      1.0  0.01395  0.93016  0.62701  1.0000
  S   S178      1.0  0.02497  0.89065  0.63890  1.0000
  H   H1036     1.0  0.01615  0.75433  0.91254  1.0000
  S   S179      1.0  0.40949  0.82834  0.96507  1.0000
  Fe  Fe90      1.0  0.27714  0.75662  0.89754  1.0000
  C   C1286     1.0  0.46843  0.97133  0.96822  1.0000
  H   H1037     1.0  0.30101  0.79517  0.97659  1.0000
  C   C1287     1.0  0.13717  0.85006  0.95657  1.0000
  Fe  Fe91      1.0  0.27679  0.77708  0.84527  1.0000
  H   H1038     1.0  0.07620  0.87975  0.86410  1.0000
  S   S180      1.0  0.25344  0.79577  0.81644  1.0000
  Fe  Fe92      1.0  0.32305  0.77547  0.87284  1.0000
  C   C1288     1.0  0.15772  0.92790  0.78844  1.0000
  S   S181      1.0  0.35751  0.79415  0.87683  1.0000
  H   H1039     1.0  0.31248  0.87067  0.96104  1.0000
  C   C1289     1.0  0.28034  0.73287  0.60542  1.0000
  C   C1290     1.0  0.01515  0.96818  0.72764  1.0000
  S   S182      1.0  0.31546  0.76296  0.83670  1.0000
  S   S183      1.0  0.28510  0.79284  0.87918  1.0000
  S   S184      1.0  0.05099  0.87876  0.91280  1.0000
  H   H1040     1.0  0.08599  0.97145  0.77459  1.0000
  C   C1291     1.0  0.28939  0.74541  0.95995  1.0000
  C   C1292     1.0  0.09262  0.95896  0.76121  1.0000
  H   H1041     1.0  0.20182  0.84387  0.84608  1.0000
  C   C1293     1.0  0.39606  0.81840  0.94006  1.0000
  C   C1294     1.0  0.40373  0.82483  0.91591  1.0000
  C   C1295     1.0  0.39183  0.81716  0.89692  1.0000
  C   C1296     1.0  0.37228  0.80272  0.90166  1.0000
  C   C1297     1.0  0.36531  0.79549  0.92578  1.0000
  C   C1298     1.0  0.37681  0.80359  0.94477  1.0000
  H   H1042     1.0  0.41858  0.83602  0.91184  1.0000
  H   H1043     1.0  0.39772  0.82262  0.87837  1.0000
  H   H1044     1.0  0.35104  0.78364  0.92981  1.0000
  H   H1045     1.0  0.37082  0.79813  0.96324  1.0000
  H   H1046     1.0  0.26159  0.73112  0.61127  1.0000
  C   C1299     1.0  0.20420  0.79719  0.88965  1.0000
  C   C1300     1.0  0.17527  0.77832  0.81172  1.0000
  C   C1301     1.0  0.18745  0.76995  0.83220  1.0000
  C   C1302     1.0  0.21174  0.77413  0.83333  1.0000
  C   C1303     1.0  0.22382  0.78758  0.81440  1.0000
  C   C1304     1.0  0.21165  0.79585  0.79384  1.0000
  C   C1305     1.0  0.18760  0.79097  0.79237  1.0000
  Fe  Fe93      1.0  0.04921  0.85875  0.95032  1.0000
  H   H1047     1.0  0.22083  0.76774  0.84926  1.0000
  H   H1048     1.0  0.22084  0.80617  0.77905  1.0000
  H   H1049     1.0  0.17841  0.79751  0.77653  1.0000
  C   C1306     1.0  0.06961  0.85716  0.70141  1.0000
  C   C1307     1.0  0.06473  0.88240  0.69790  1.0000
  C   C1308     1.0  0.05153  0.89302  0.67864  1.0000
  C   C1309     1.0  0.04267  0.87843  0.66287  1.0000
  C   C1310     1.0  0.04757  0.85320  0.66640  1.0000
  C   C1311     1.0  0.06105  0.84260  0.68547  1.0000
  H   H1050     1.0  0.07111  0.89380  0.71021  1.0000
  H   H1051     1.0  0.04798  0.91244  0.67616  1.0000
  H   H1052     1.0  0.04080  0.84174  0.65435  1.0000
  H   H1053     1.0  0.06463  0.82318  0.68793  1.0000
  C   C1312     1.0  0.08792  0.94261  0.72320  1.0000
  C   C1313     1.0  0.23473  0.73126  0.76586  1.0000
  H   H1054     1.0  0.05268  0.94332  0.54764  1.0000
  H   H1055     1.0  0.17802  0.76033  0.84732  1.0000
  C   C1314     1.0  0.05552  0.95972  0.89006  1.0000
  C   C1315     1.0  0.04602  0.94461  0.87531  1.0000
  C   C1316     1.0  0.04365  0.92021  0.88317  1.0000
  C   C1317     1.0  0.05071  0.91049  0.90584  1.0000
  C   C1318     1.0  0.05944  0.92576  0.92105  1.0000
  C   C1319     1.0  0.06208  0.95021  0.91304  1.0000
  H   H1056     1.0  0.04129  0.95145  0.85744  1.0000
  H   H1057     1.0  0.03681  0.90864  0.87127  1.0000
  H   H1058     1.0  0.06479  0.91862  0.93866  1.0000
  H   H1059     1.0  0.06943  0.96177  0.92457  1.0000
  C   C1320     1.0  0.46424  0.77810  0.92490  1.0000
  H   H1060     1.0  0.40750  0.76050  0.92619  1.0000
  C   C1321     1.0  0.03277  0.75199  0.72851  1.0000
  C   C1322     1.0  0.00927  0.75734  0.72146  1.0000
  H   H1061     1.0  0.04560  0.76553  0.72541  1.0000
  H   H1062     1.0  0.34718  0.73990  0.58298  1.0000
  C   C1323     1.0  0.45873  0.75941  0.88843  1.0000
  H   H1063     1.0  0.45163  0.98000  0.96220  1.0000
  C   C1324     1.0  0.03145  0.75107  0.96017  1.0000
  C   C1325     1.0  0.11106  0.82151  0.87286  1.0000
  C   C1326     1.0  0.08644  0.82716  0.87919  1.0000
  P   P44       1.0  0.13138  0.81458  0.89645  1.0000
  C   C1327     1.0  0.12405  0.78516  0.90955  1.0000
  C   C1328     1.0  0.16278  0.81350  0.88556  1.0000
  H   H1064     1.0  0.13583  0.76767  0.87685  1.0000
  H   H1065     1.0  0.00332  0.91508  0.72934  1.0000
  C   C1329     1.0  0.32852  0.73797  0.58925  1.0000
  C   C1330     1.0  0.12611  0.97054  0.80290  1.0000
  C   C1331     1.0  0.17095  0.83087  0.86764  1.0000
  C   C1332     1.0  0.99232  0.74012  0.72588  1.0000
  H   H1066     1.0  0.20414  0.74442  0.94838  1.0000
  H   H1067     1.0  0.43356  0.78018  0.95101  1.0000
  S   S185      1.0  0.31510  0.74000  0.89311  1.0000
  H   H1068     1.0  0.00411  0.77502  0.71287  1.0000
  C   C1333     1.0  0.12801  0.83712  0.91813  1.0000
  C   C1334     1.0  0.11526  0.85967  0.91316  1.0000
  C   C1335     1.0  0.00661  0.97425  0.70473  1.0000
  C   C1336     1.0  0.28608  0.74698  0.58399  1.0000
  H   H1069     1.0  0.27182  0.75590  0.57361  1.0000
  C   C1337     1.0  0.13940  0.83267  0.93975  1.0000
  H   H1070     1.0  0.10274  0.90849  0.87675  1.0000
  H   H1071     1.0  0.13727  0.81191  0.84350  1.0000
  C   C1338     1.0  0.98697  0.90634  0.69806  1.0000
  H   H1072     1.0  0.06500  0.82851  0.82372  1.0000
  H   H1073     1.0  0.07989  0.82919  0.89788  1.0000
  C   C1339     1.0  0.11872  0.81780  0.84869  1.0000
  C   C1340     1.0  0.11943  0.92510  0.74815  1.0000
  H   H1074     1.0  0.22442  0.90148  0.77804  1.0000
  C   C1341     1.0  0.04403  0.94398  0.53090  1.0000
  H   H1075     1.0  0.15837  0.84440  0.85942  1.0000
  C   C1342     1.0  0.19191  0.90143  0.80182  1.0000
  H   H1076     1.0  0.00252  0.90992  0.68570  1.0000
  C   C1343     1.0  0.30796  0.75268  0.69140  1.0000
  H   H1077     1.0  0.11247  0.91203  0.71435  1.0000
  C   C1344     1.0  0.00002  0.73339  0.88866  1.0000
  H   H1078     1.0  0.10674  0.86395  0.89647  1.0000
  C   C1345     1.0  0.19588  0.92578  0.76375  1.0000
  H   H1079     1.0  0.07820  0.94266  0.70719  1.0000
  H   H1080     1.0  0.16436  0.94817  0.75387  1.0000
  H   H1081     1.0  0.14952  0.81551  0.94396  1.0000
  P   P45       1.0  0.12672  0.94033  0.79315  1.0000
  H   H1082     1.0  0.30068  0.74120  0.94389  1.0000
  C   C1346     1.0  0.10728  0.92543  0.72722  1.0000
  H   H1083     1.0  0.46545  0.75384  0.87077  1.0000
  C   C1347     1.0  0.16723  0.74065  0.96146  1.0000
  H   H1084     1.0  0.04485  0.76398  0.95912  1.0000
  C   C1348     1.0  0.43500  0.75575  0.89706  1.0000
  H   H1085     1.0  0.23116  0.81416  0.86561  1.0000
  C   C1349     1.0  0.02698  0.96759  0.49675  1.0000
  C   C1350     1.0  0.98280  0.91711  0.94853  1.0000
  C   C1351     1.0  0.10471  0.75971  0.94185  1.0000
  C   C1352     1.0  0.00068  0.75414  0.78623  1.0000
  C   C1353     1.0  0.20989  0.73728  0.76688  1.0000
  C   C1354     1.0  0.11353  0.92204  0.84029  1.0000
  C   C1355     1.0  0.16973  0.85135  0.78340  1.0000
  C   C1356     1.0  0.14485  0.85620  0.78775  1.0000
  C   C1357     1.0  0.13047  0.86078  0.76833  1.0000
  C   C1358     1.0  0.14093  0.86036  0.74461  1.0000
  C   C1359     1.0  0.16573  0.85462  0.74004  1.0000
  C   C1360     1.0  0.18020  0.85085  0.75965  1.0000
  P   P46       1.0  0.17893  0.85331  0.70924  1.0000
  C   C1361     1.0  0.20753  0.83524  0.70953  1.0000
  C   C1362     1.0  0.15890  0.84021  0.69116  1.0000
  C   C1363     1.0  0.13898  0.85447  0.68234  1.0000
  C   C1364     1.0  0.12344  0.84472  0.66825  1.0000
  C   C1365     1.0  0.12747  0.82062  0.66296  1.0000
  C   C1366     1.0  0.14740  0.80639  0.67130  1.0000
  C   C1367     1.0  0.16316  0.81616  0.68514  1.0000
  C   C1368     1.0  0.20902  0.81240  0.72247  1.0000
  C   C1369     1.0  0.23100  0.79835  0.72305  1.0000
  C   C1370     1.0  0.25178  0.80704  0.71094  1.0000
  C   C1371     1.0  0.25056  0.82982  0.69819  1.0000
  C   C1372     1.0  0.22854  0.84391  0.69747  1.0000
  C   C1373     1.0  0.18239  0.88351  0.69558  1.0000
  C   C1374     1.0  0.18701  0.88733  0.67040  1.0000
  C   C1375     1.0  0.18842  0.91076  0.65940  1.0000
  C   C1376     1.0  0.18511  0.93052  0.67344  1.0000
  C   C1377     1.0  0.18048  0.92686  0.69851  1.0000
  C   C1378     1.0  0.17917  0.90343  0.70959  1.0000
  H   H1086     1.0  0.18089  0.84738  0.79844  1.0000
  H   H1087     1.0  0.13668  0.85617  0.80613  1.0000
  H   H1088     1.0  0.11110  0.86417  0.77150  1.0000
  H   H1089     1.0  0.12949  0.86404  0.72990  1.0000
  H   H1090     1.0  0.19951  0.84702  0.75678  1.0000
  H   H1091     1.0  0.13516  0.87307  0.68654  1.0000
  H   H1092     1.0  0.10789  0.85573  0.66188  1.0000
  H   H1093     1.0  0.11501  0.81293  0.65262  1.0000
  H   H1094     1.0  0.15050  0.78760  0.66739  1.0000
  H   H1095     1.0  0.17834  0.80459  0.69124  1.0000
  H   H1096     1.0  0.19312  0.80528  0.73195  1.0000
  H   H1097     1.0  0.23184  0.78069  0.73289  1.0000
  H   H1098     1.0  0.10890  0.79713  0.94400  1.0000
  H   H1099     1.0  0.26671  0.83658  0.68887  1.0000
  H   H1100     1.0  0.22810  0.86151  0.68759  1.0000
  H   H1101     1.0  0.18920  0.87219  0.65925  1.0000
  H   H1102     1.0  0.19176  0.91360  0.63993  1.0000
  H   H1103     1.0  0.18594  0.94869  0.66484  1.0000
  H   H1104     1.0  0.17765  0.94225  0.70928  1.0000
  H   H1105     1.0  0.17533  0.90091  0.72896  1.0000
  C   C1379     1.0  0.01844  0.74323  0.80068  1.0000
  C   C1380     1.0  0.11312  0.87704  0.92999  1.0000
  C   C1381     1.0  0.11243  0.94212  0.76513  1.0000
  C   C1382     1.0  0.19553  0.83092  0.86034  1.0000
  H   H1106     1.0  0.31392  0.74769  0.65357  1.0000
  C   C1383     1.0  0.98729  0.95269  0.96939  1.0000
  H   H1107     1.0  0.05104  0.83462  0.86661  1.0000
  Fe  Fe94      1.0  0.02692  0.97597  0.59613  1.0000
  C   C1384     1.0  0.11066  0.92106  0.81560  1.0000
  H   H1108     1.0  0.06520  0.97224  0.73737  1.0000
  H   H1109     1.0  0.21719  0.78432  0.89827  1.0000
  S   S186      1.0  0.17719  0.75227  0.70458  1.0000
  H   H1110     1.0  0.12502  0.93460  0.84617  1.0000
  S   S187      1.0  0.25162  0.75320  0.93099  1.0000
  C   C1385     1.0  0.31062  0.85299  0.95527  1.0000
  C   C1386     1.0  0.31404  0.84970  0.93057  1.0000
  C   C1387     1.0  0.31192  0.82708  0.92248  1.0000
  C   C1388     1.0  0.30671  0.80761  0.93910  1.0000
  C   C1389     1.0  0.08316  0.88983  0.82606  1.0000
  H   H1111     1.0  0.31795  0.76854  0.69000  1.0000
  C   C1390     1.0  0.03854  0.92271  0.52198  1.0000
  S   S188      1.0  0.45528  0.88140  0.97668  1.0000
  C   C1391     1.0  0.30419  0.81061  0.96386  1.0000
  C   C1392     1.0  0.06995  0.82999  0.86150  1.0000
  C   C1393     1.0  0.07780  0.82668  0.83741  1.0000
  C   C1394     1.0  0.19210  0.73566  0.96201  1.0000
  C   C1395     1.0  0.12393  0.87220  0.95175  1.0000
  H   H1112     1.0  0.10820  0.81729  0.81247  1.0000
  H   H1113     1.0  0.47500  0.78715  0.93579  1.0000
  C   C1396     1.0  0.31014  0.74952  0.57590  1.0000
  H   H1114     1.0  0.02263  0.90734  0.49372  1.0000
  H   H1115     1.0  0.42342  0.74770  0.88602  1.0000
  H   H1116     1.0  0.45840  0.93529  0.96599  1.0000
  H   H1117     1.0  0.13388  0.91124  0.75132  1.0000
  C   C1397     1.0  0.17960  0.79678  0.89667  1.0000
  C   C1398     1.0  0.47220  0.94615  0.97040  1.0000
  H   H1118     1.0  0.31857  0.86461  0.91764  1.0000
  H   H1119     1.0  0.31494  0.82449  0.90335  1.0000
  H   H1120     1.0  0.30528  0.79003  0.93278  1.0000
  C   C1399     1.0  0.02720  0.92380  0.50049  1.0000
  H   H1121     1.0  0.12176  0.88545  0.96502  1.0000
  C   C1400     1.0  0.10770  0.97909  0.81966  1.0000
  H   H1122     1.0  0.30050  0.75239  0.73013  1.0000
  H   H1123     1.0  0.17384  0.78373  0.91106  1.0000
  C   C1401     1.0  0.44062  0.77413  0.93362  1.0000
  H   H1124     1.0  0.09543  0.75779  0.95979  1.0000
  H   H1125     1.0  0.15998  0.75335  0.94750  1.0000
  H   H1126     1.0  0.03718  0.74614  0.79557  1.0000
  H   H1127     1.0  0.09331  0.96806  0.82678  1.0000
  C   C1402     1.0  0.10830  0.74015  0.92753  1.0000
  H   H1128     1.0  0.46924  0.84251  0.83673  1.0000
  S   S189      1.0  0.13040  0.74264  0.75681  1.0000
  C   C1403     1.0  0.00743  0.75811  0.96735  1.0000
  H   H1129     1.0  0.01114  0.73626  0.67373  1.0000
  C   C1404     1.0  0.08616  0.89090  0.85054  1.0000
  S   S190      1.0  0.01284  0.85380  0.96930  1.0000
  H   H1130     1.0  0.07094  0.87775  0.82063  1.0000
  C   C1405     1.0  0.12764  0.76546  0.89524  1.0000
  S   S191      1.0  0.26604  0.74238  0.86437  1.0000
  C   C1406     1.0  0.11251  0.78212  0.93288  1.0000
  C   C1407     1.0  0.30562  0.74078  0.67074  1.0000
  H   H1131     1.0  0.46912  0.73793  0.96037  1.0000
  H   H1132     1.0  0.20678  0.93159  0.74760  1.0000
  H   H1133     1.0  0.39554  0.75811  0.97369  1.0000
  C   C1408     1.0  0.42599  0.76298  0.91971  1.0000
  C   C1409     1.0  0.16795  0.91088  0.80561  1.0000
  H   H1134     1.0  0.00564  0.76563  0.77020  1.0000
  H   H1135     1.0  0.47477  0.81961  0.87614  1.0000
  C   C1410     1.0  0.11972  0.74306  0.90420  1.0000
  Fe  Fe95      1.0  0.99429  0.97951  0.64216  1.0000
  C   C1411     1.0  0.20585  0.90884  0.78090  1.0000
  C   C1412     1.0  0.99752  0.93252  0.95754  1.0000
  C   C1413     1.0  0.08062  0.95934  0.74019  1.0000
  H   H1136     1.0  0.01035  0.96184  0.69076  1.0000
  S   S192      1.0  0.06055  0.81886  0.95431  1.0000
  C   C1414     1.0  0.03793  0.96631  0.51854  1.0000
  C   C1415     1.0  0.30537  0.83349  0.97211  1.0000
  C   C1416     1.0  0.21214  0.81420  0.87143  1.0000
  C   C1417     1.0  0.10122  0.90708  0.85767  1.0000
  H   H1137     1.0  0.26880  0.79610  0.71149  1.0000
  C   C1418     1.0  0.99974  0.75118  0.90483  1.0000
  C   C1419     1.0  0.29805  0.74370  0.71399  1.0000
  C   C1420     1.0  0.17188  0.93518  0.76742  1.0000
  C   C1421     1.0  0.99010  0.74134  0.96843  1.0000
  C   C1422     1.0  0.09536  0.90481  0.80861  1.0000
  H   H1138     1.0  0.10269  0.89411  0.92628  1.0000
  H   H1139     1.0  0.19969  0.88832  0.81514  1.0000
  C   C1423     1.0  0.26480  0.75203  0.95856  1.0000
  C   C1424     1.0  0.10217  0.82060  0.83102  1.0000
  Fe  Fe96      1.0  0.44502  0.84338  0.97294  1.0000
  H   H1140     1.0  0.31455  0.76042  0.55926  1.0000
  H   H1141     1.0  0.01685  0.92873  0.95502  1.0000
  H   H1142     1.0  0.99088  0.90152  0.93955  1.0000
  C   C1425     1.0  0.47357  0.77051  0.90238  1.0000
  H   H1143     1.0  0.14516  0.84605  0.97367  1.0000
  H   H1144     1.0  0.24670  0.74223  0.75427  1.0000
  S   S193      1.0  0.99819  0.78776  0.97457  1.0000
  Fe  Fe97      1.0  0.02564  0.81473  0.97646  1.0000
  C   C1426     1.0  0.98740  0.90924  0.72264  1.0000
  C   C1427     1.0  0.05687  0.96689  0.97715  1.0000
  S   S194      1.0  0.02160  0.97580  0.77430  1.0000
  H   H1145     1.0  0.00272  0.97727  0.92729  1.0000
  H   H1146     1.0  0.21572  0.73031  0.87903  1.0000
  H   H1147     1.0  0.10377  0.73125  0.82273  1.0000
  C   C1428     1.0  0.96253  0.08280  0.43756  1.0000
  S   S195      1.0  0.90178  0.05472  0.42224  1.0000
  Fe  Fe98      1.0  0.77651  0.07030  0.22932  1.0000
  S   S196      1.0  0.80947  0.08443  0.20889  1.0000
  S   S197      1.0  0.77857  0.03617  0.25426  1.0000
  Fe  Fe99      1.0  0.74383  0.11466  0.21415  1.0000
  S   S198      1.0  0.77395  0.13228  0.19221  1.0000
  S   S199      1.0  0.70500  0.12949  0.22126  1.0000
  Fe  Fe100     1.0  0.78517  0.09538  0.17898  1.0000
  S   S200      1.0  0.79319  0.09113  0.13849  1.0000
  Fe  Fe101     1.0  0.79561  0.11980  0.22397  1.0000
  S   S201      1.0  0.82073  0.14398  0.23815  1.0000
  S   S202      1.0  0.75295  0.07881  0.19860  1.0000
  S   S203      1.0  0.76480  0.10459  0.24666  1.0000
  H   H1148     1.0  0.74125  0.05752  0.13002  1.0000
  Fe  Fe102     1.0  0.87183  0.00574  0.04840  1.0000
  C   C1429     1.0  0.64969  0.05508  0.11155  1.0000
  S   S204      1.0  0.86662  0.01185  0.08861  1.0000
  Fe  Fe103     1.0  0.88906  0.01698  0.42541  1.0000
  Fe  Fe104     1.0  0.84672  0.00240  0.00301  1.0000
  S   S205      1.0  0.81654  0.17770  0.34451  1.0000
  C   C1430     1.0  0.85181  0.07701  0.46906  1.0000
  S   S206      1.0  0.86428  0.03250  0.01680  1.0000
  C   C1431     1.0  0.82124  0.11074  0.46842  1.0000
  C   C1432     1.0  0.69906  0.06497  0.08869  1.0000
  Fe  Fe105     1.0  0.54165  0.01431  0.10888  1.0000
  S   S207      1.0  0.58108  0.00582  0.09784  1.0000
  C   C1433     1.0  0.68423  0.02557  0.04782  1.0000
  C   C1434     1.0  0.66819  0.02379  0.20062  1.0000
  H   H1149     1.0  0.52927  0.12775  0.24964  1.0000
  H   H1150     1.0  0.95653  0.01239  0.06336  1.0000
  Fe  Fe106     1.0  0.89832  0.01589  0.99796  1.0000
  H   H1151     1.0  0.97150  0.01500  0.98646  1.0000
  C   C1435     1.0  0.53974  0.03239  0.46242  1.0000
  S   S208      1.0  0.88293  0.00034  0.46315  1.0000
  C   C1436     1.0  0.81723  0.15525  0.26713  1.0000
  C   C1437     1.0  0.79886  0.14881  0.28460  1.0000
  C   C1438     1.0  0.79790  0.15693  0.30797  1.0000
  C   C1439     1.0  0.81493  0.17193  0.31393  1.0000
  C   C1440     1.0  0.83293  0.17879  0.29628  1.0000
  C   C1441     1.0  0.83408  0.17045  0.27306  1.0000
  H   H1152     1.0  0.78585  0.13705  0.28030  1.0000
  H   H1153     1.0  0.78420  0.15126  0.32163  1.0000
  H   H1154     1.0  0.84655  0.18979  0.30080  1.0000
  H   H1155     1.0  0.84844  0.17539  0.25976  1.0000
  C   C1442     1.0  0.69714  0.16072  0.21523  1.0000
  C   C1443     1.0  0.67737  0.17181  0.22859  1.0000
  C   C1444     1.0  0.67039  0.19656  0.22394  1.0000
  C   C1445     1.0  0.71933  0.05212  0.45566  1.0000
  C   C1446     1.0  0.70198  0.19897  0.19153  1.0000
  C   C1447     1.0  0.70959  0.17445  0.19681  1.0000
  H   H1156     1.0  0.66749  0.16124  0.24268  1.0000
  H   H1157     1.0  0.65507  0.20474  0.23429  1.0000
  H   H1158     1.0  0.96680  0.09706  0.44795  1.0000
  H   H1159     1.0  0.72464  0.16599  0.18620  1.0000
  C   C1448     1.0  0.81461  0.06969  0.12489  1.0000
  C   C1449     1.0  0.81614  0.06860  0.09965  1.0000
  C   C1450     1.0  0.83201  0.05113  0.08827  1.0000
  C   C1451     1.0  0.84657  0.03447  0.10203  1.0000
  C   C1452     1.0  0.84524  0.03570  0.12724  1.0000
  C   C1453     1.0  0.82949  0.05329  0.13861  1.0000
  H   H1160     1.0  0.80510  0.08141  0.08875  1.0000
  H   H1161     1.0  0.83311  0.05065  0.06885  1.0000
  H   H1162     1.0  0.85646  0.02295  0.13805  1.0000
  H   H1163     1.0  0.82862  0.05392  0.15801  1.0000
  H   H1164     1.0  0.64183  0.07603  0.16771  1.0000
  C   C1454     1.0  0.76142  0.01091  0.22019  1.0000
  C   C1455     1.0  0.77239  0.00986  0.24189  1.0000
  C   C1456     1.0  0.96413  0.02785  0.24149  1.0000
  H   H1165     1.0  0.59529  0.03536  0.13298  1.0000
  C   C1457     1.0  0.73908  0.17041  0.25183  1.0000
  H   H1166     1.0  0.75634  0.02813  0.21082  1.0000
  C   C1458     1.0  0.93073  0.00950  0.27755  1.0000
  C   C1459     1.0  0.93256  0.05868  0.42429  1.0000
  C   C1460     1.0  0.95079  0.04629  0.41025  1.0000
  C   C1461     1.0  0.74411  0.99421  0.47649  1.0000
  C   C1462     1.0  0.61987  0.99512  0.21257  1.0000
  S   S209      1.0  0.52252  0.98940  0.34737  1.0000
  C   C1463     1.0  0.93859  0.07673  0.43806  1.0000
  H   H1167     1.0  0.94633  0.03257  0.39926  1.0000
  S   S210      1.0  0.51587  0.13355  0.44991  1.0000
  H   H1168     1.0  0.92455  0.08621  0.44890  1.0000
  C   C1464     1.0  0.60753  0.02055  0.01823  1.0000
  C   C1465     1.0  0.58472  0.03048  0.02673  1.0000
  C   C1466     1.0  0.57613  0.02568  0.05103  1.0000
  C   C1467     1.0  0.59052  0.01135  0.06699  1.0000
  C   C1468     1.0  0.61337  0.00167  0.05849  1.0000
  C   C1469     1.0  0.62180  0.00618  0.03420  1.0000
  H   H1169     1.0  0.57358  0.04165  0.01447  1.0000
  H   H1170     1.0  0.55851  0.03330  0.05740  1.0000
  C   C1470     1.0  0.81164  0.06856  0.29864  1.0000
  C   C1471     1.0  0.53826  0.10663  0.17475  1.0000
  H   H1171     1.0  0.67730  0.01460  0.40399  1.0000
  C   C1472     1.0  0.79532  0.02795  0.04421  1.0000
  C   C1473     1.0  0.77283  0.03678  0.03663  1.0000
  C   C1474     1.0  0.75199  0.02782  0.04830  1.0000
  C   C1475     1.0  0.75366  0.00965  0.06725  1.0000
  C   C1476     1.0  0.77635  0.99983  0.07415  1.0000
  C   C1477     1.0  0.79712  0.00966  0.06297  1.0000
  S   S211      1.0  0.71318  0.98624  0.44317  1.0000
  H   H1172     1.0  0.81114  0.20252  0.45813  1.0000
  P   P47       1.0  0.55706  0.15926  0.21472  1.0000
  H   H1173     1.0  0.77957  0.04154  0.15209  1.0000
  C   C1478     1.0  0.67143  0.00573  0.08669  1.0000
  H   H1174     1.0  0.54736  0.14783  0.31793  1.0000
  C   C1479     1.0  0.53686  0.13582  0.28495  1.0000
  H   H1175     1.0  0.48282  0.22078  0.24974  1.0000
  C   C1480     1.0  0.96289  0.01624  0.02459  1.0000
  C   C1481     1.0  0.97514  0.00660  0.00420  1.0000
  H   H1176     1.0  0.76938  0.09650  0.30594  1.0000
  C   C1482     1.0  0.83408  0.17501  0.44078  1.0000
  H   H1177     1.0  0.81147  0.03493  0.03512  1.0000
  H   H1178     1.0  0.57542  0.10968  0.22979  1.0000
  C   C1483     1.0  0.67365  0.00425  0.38934  1.0000
  C   C1484     1.0  0.77867  0.98744  0.25406  1.0000
  C   C1485     1.0  0.50337  0.05059  0.02298  1.0000
  H   H1179     1.0  0.71111  0.20913  0.17662  1.0000
  H   H1180     1.0  0.70711  0.03903  0.45223  1.0000
  Fe  Fe107     1.0  0.68262  0.98836  0.47241  1.0000
  H   H1181     1.0  0.77169  0.05037  0.02151  1.0000
  H   H1182     1.0  0.73460  0.03477  0.04243  1.0000
  H   H1183     1.0  0.73723  0.00327  0.07619  1.0000
  C   C1486     1.0  0.66863  0.00145  0.34700  1.0000
  S   S212      1.0  0.48977  0.08980  0.13089  1.0000
  H   H1184     1.0  0.61720  0.22009  0.20007  1.0000
  Fe  Fe108     1.0  0.48068  0.12532  0.43765  1.0000
  C   C1487     1.0  0.91275  0.05096  0.34649  1.0000
  H   H1185     1.0  0.49834  0.05460  0.04150  1.0000
  H   H1186     1.0  0.63738  0.04908  0.04696  1.0000
  H   H1187     1.0  0.70370  0.08548  0.05387  1.0000
  H   H1188     1.0  0.82274  0.03283  0.33668  1.0000
  H   H1189     1.0  0.95002  0.03191  0.02237  1.0000
  H   H1190     1.0  0.74381  0.09751  0.06058  1.0000
  C   C1488     1.0  0.78521  0.98765  0.44438  1.0000
  H   H1191     1.0  0.54603  0.06812  0.17991  1.0000
  C   C1489     1.0  0.56335  0.16741  0.28646  1.0000
  C   C1490     1.0  0.50418  0.98174  0.20832  1.0000
  Fe  Fe109     1.0  0.50470  0.99779  0.14826  1.0000
  H   H1192     1.0  0.50994  0.01794  0.19356  1.0000
  C   C1491     1.0  0.51666  0.21563  0.18101  1.0000
  P   P48       1.0  0.66968  0.05611  0.08416  1.0000
  H   H1193     1.0  0.51752  0.03213  0.23279  1.0000
  C   C1492     1.0  0.81732  0.08225  0.31705  1.0000
  C   C1493     1.0  0.83499  0.09873  0.31164  1.0000
  P   P49       1.0  0.79975  0.08101  0.34607  1.0000
  C   C1494     1.0  0.77306  0.10168  0.34356  1.0000
  C   C1495     1.0  0.79104  0.05086  0.35475  1.0000
  C   C1496     1.0  0.77001  0.04734  0.36993  1.0000
  C   C1497     1.0  0.76418  0.02394  0.37801  1.0000
  H   H1194     1.0  0.79606  0.05684  0.47630  1.0000
  C   C1498     1.0  0.95534  0.00791  0.28133  1.0000
  C   C1499     1.0  0.80618  0.03067  0.34795  1.0000
  C   C1500     1.0  0.76299  0.11394  0.36350  1.0000
  C   C1501     1.0  0.74291  0.13067  0.36126  1.0000
  C   C1502     1.0  0.73255  0.13502  0.33918  1.0000
  C   C1503     1.0  0.74208  0.12246  0.31942  1.0000
  C   C1504     1.0  0.76219  0.10577  0.32160  1.0000
  C   C1505     1.0  0.81715  0.08970  0.36929  1.0000
  C   C1506     1.0  0.82218  0.11385  0.36947  1.0000
  C   C1507     1.0  0.83732  0.12047  0.38594  1.0000
  C   C1508     1.0  0.84724  0.10304  0.40269  1.0000
  C   C1509     1.0  0.84125  0.07922  0.40356  1.0000
  C   C1510     1.0  0.82617  0.07254  0.38703  1.0000
  C   C1511     1.0  0.50948  0.00557  0.20959  1.0000
  H   H1195     1.0  0.73416  0.12590  0.30224  1.0000
  Fe  Fe110     1.0  0.49087  0.00755  0.09665  1.0000
  C   C1512     1.0  0.51361  0.01362  0.23183  1.0000
  H   H1196     1.0  0.83944  0.11022  0.32482  1.0000
  H   H1197     1.0  0.75826  0.06260  0.37580  1.0000
  H   H1198     1.0  0.74803  0.02118  0.38983  1.0000
  C   C1513     1.0  0.52841  0.05219  0.44915  1.0000
  H   H1199     1.0  0.85944  0.11432  0.46578  1.0000
  C   C1514     1.0  0.84551  0.10190  0.46755  1.0000
  H   H1200     1.0  0.77073  0.11078  0.38074  1.0000
  H   H1201     1.0  0.73555  0.14046  0.37656  1.0000
  H   H1202     1.0  0.71721  0.14824  0.33733  1.0000
  H   H1203     1.0  0.61894  0.99781  0.34458  1.0000
  C   C1515     1.0  0.75692  0.20776  0.23817  1.0000
  H   H1204     1.0  0.81480  0.12750  0.35643  1.0000
  H   H1205     1.0  0.84148  0.13913  0.38538  1.0000
  H   H1206     1.0  0.85970  0.10782  0.41492  1.0000
  H   H1207     1.0  0.84882  0.06578  0.41672  1.0000
  H   H1208     1.0  0.82207  0.05389  0.38799  1.0000
  H   H1209     1.0  0.62454  0.99051  0.07062  1.0000
  C   C1516     1.0  0.57781  0.01748  0.23527  1.0000
  C   C1517     1.0  0.57885  0.01366  0.21074  1.0000
  C   C1518     1.0  0.59985  0.00271  0.19933  1.0000
  C   C1519     1.0  0.75144  0.08515  0.46544  1.0000
  H   H1210     1.0  0.63957  0.99901  0.02793  1.0000
  C   C1520     1.0  0.57918  0.98352  0.30677  1.0000
  H   H1211     1.0  0.59702  0.01386  0.26731  1.0000
  H   H1212     1.0  0.92621  0.06203  0.35135  1.0000
  H   H1213     1.0  0.64237  0.13726  0.04808  1.0000
  C   C1521     1.0  0.70696  0.01171  0.16736  1.0000
  C   C1522     1.0  0.70584  0.03334  0.17843  1.0000
  H   H1214     1.0  0.72619  0.21830  0.47492  1.0000
  C   C1523     1.0  0.54092  0.12903  0.18317  1.0000
  H   H1215     1.0  0.88579  0.21558  0.44596  1.0000
  C   C1524     1.0  0.91343  0.13442  0.46041  1.0000
  H   H1216     1.0  0.90421  0.02217  0.25208  1.0000
  C   C1525     1.0  0.56600  0.17010  0.26120  1.0000
  C   C1526     1.0  0.67346  0.01496  0.36572  1.0000
  C   C1527     1.0  0.66938  0.00182  0.18988  1.0000
  C   C1528     1.0  0.68256  0.21025  0.20528  1.0000
  Fe  Fe111     1.0  0.84784  0.99063  0.45214  1.0000
  H   H1217     1.0  0.61548  0.07728  0.01865  1.0000
  C   C1529     1.0  0.56495  0.10902  0.21444  1.0000
  H   H1218     1.0  0.65349  0.02880  0.21365  1.0000
  H   H1219     1.0  0.86624  0.02712  0.28495  1.0000
  H   H1220     1.0  0.56140  0.02557  0.24427  1.0000
  H   H1221     1.0  0.56318  0.01883  0.20067  1.0000
  C   C1530     1.0  0.49750  0.15712  0.33549  1.0000
  C   C1531     1.0  0.80026  0.00736  0.35603  1.0000
  H   H1222     1.0  0.85955  0.11482  0.28418  1.0000
  H   H1223     1.0  0.64403  0.22405  0.42784  1.0000
  H   H1224     1.0  0.72018  0.04527  0.17447  1.0000
  C   C1532     1.0  0.62774  0.10912  0.03136  1.0000
  H   H1225     1.0  0.70623  0.21818  0.27591  1.0000
  H   H1226     1.0  0.60437  0.05520  0.16883  1.0000
  C   C1533     1.0  0.56720  0.06627  0.43494  1.0000
  C   C1534     1.0  0.97195  0.01704  0.26336  1.0000
  H   H1227     1.0  0.51624  0.01414  0.03307  1.0000
  H   H1228     1.0  0.57778  0.20598  0.21541  1.0000
  H   H1229     1.0  0.93361  0.03803  0.22065  1.0000
  S   S213      1.0  0.61832  0.02674  0.98786  1.0000
  H   H1230     1.0  0.70162  0.04410  0.12319  1.0000
  C   C1535     1.0  0.61200  0.04380  0.13282  1.0000
  C   C1536     1.0  0.84669  0.10138  0.28845  1.0000
  C   C1537     1.0  0.78073  0.15159  0.40902  1.0000
  C   C1538     1.0  0.76203  0.16970  0.41218  1.0000
  C   C1539     1.0  0.74587  0.16829  0.43275  1.0000
  C   C1540     1.0  0.56500  0.02945  0.46138  1.0000
  C   C1541     1.0  0.76808  0.13135  0.44796  1.0000
  C   C1542     1.0  0.78360  0.13225  0.42669  1.0000
  H   H1231     1.0  0.50510  0.15999  0.22604  1.0000
  C   C1543     1.0  0.82744  0.20413  0.21309  1.0000
  C   C1544     1.0  0.74869  0.14907  0.45046  1.0000
  C   C1545     1.0  0.51973  0.02196  0.99407  1.0000
  H   H1232     1.0  0.76227  0.08405  0.09889  1.0000
  P   P50       1.0  0.77186  0.10685  0.47121  1.0000
  C   C1546     1.0  0.89011  0.05164  0.35925  1.0000
  H   H1233     1.0  0.73597  0.14830  0.46628  1.0000
  C   C1547     1.0  0.53916  0.13875  0.25966  1.0000
  H   H1234     1.0  0.96171  0.99973  0.29824  1.0000
  C   C1548     1.0  0.65424  0.06711  0.13159  1.0000
  H   H1235     1.0  0.79749  0.05636  0.30182  1.0000
  H   H1236     1.0  0.81664  0.13004  0.46761  1.0000
  C   C1549     1.0  0.78741  0.99395  0.46776  1.0000
  C   C1550     1.0  0.75837  0.06810  0.44849  1.0000
  C   C1551     1.0  0.74248  0.05144  0.44394  1.0000
  H   H1237     1.0  0.57725  0.18362  0.25268  1.0000
  C   C1552     1.0  0.73428  0.08620  0.07435  1.0000
  P   P51       1.0  0.53208  0.99198  0.98712  1.0000
  H   H1238     1.0  0.79300  0.15279  0.39284  1.0000
  H   H1239     1.0  0.76009  0.18493  0.39871  1.0000
  H   H1240     1.0  0.73140  0.18244  0.43508  1.0000
  C   C1553     1.0  0.59784  0.01064  0.24834  1.0000
  H   H1241     1.0  0.79799  0.11819  0.42383  1.0000
  H   H1242     1.0  0.69512  0.00207  0.01933  1.0000
  C   C1554     1.0  0.74314  0.22546  0.47692  1.0000
  H   H1243     1.0  0.93453  0.09736  0.38360  1.0000
  H   H1244     1.0  0.62367  0.03549  0.09652  1.0000
  C   C1555     1.0  0.60391  0.15432  0.19220  1.0000
  H   H1245     1.0  0.72225  0.00686  0.15482  1.0000
  C   C1556     1.0  0.49667  0.18232  0.33399  1.0000
  H   H1246     1.0  0.49167  0.08625  0.00806  1.0000
  H   H1247     1.0  0.77608  0.06748  0.43887  1.0000
  H   H1248     1.0  0.74818  0.03777  0.43150  1.0000
  S   S214      1.0  0.51861  0.00797  0.28023  1.0000
  C   C1557     1.0  0.71036  0.05621  0.10964  1.0000
  H   H1249     1.0  0.67691  0.03378  0.36197  1.0000
  S   S215      1.0  0.52955  0.02746  0.14533  1.0000
  S   S216      1.0  0.51943  0.98268  0.11351  1.0000
  C   C1558     1.0  0.68876  0.99607  0.17295  1.0000
  C   C1559     1.0  0.90123  0.02035  0.32229  1.0000
  C   C1560     1.0  0.62644  0.08425  0.03114  1.0000
  H   H1250     1.0  0.57768  0.00936  0.33339  1.0000
  H   H1251     1.0  0.81862  0.06117  0.26123  1.0000
  C   C1561     1.0  0.50271  0.19416  0.35356  1.0000
  C   C1562     1.0  0.49949  0.06838  0.00411  1.0000
  H   H1252     1.0  0.60009  0.10436  0.47004  1.0000
  C   C1563     1.0  0.50489  0.14353  0.35623  1.0000
  C   C1564     1.0  0.51170  0.15515  0.37543  1.0000
  C   C1565     1.0  0.51084  0.18035  0.37405  1.0000
  H   H1253     1.0  0.81205  0.99185  0.35088  1.0000
  C   C1566     1.0  0.93968  0.02960  0.23761  1.0000
  H   H1254     1.0  0.48778  0.03264  0.35936  1.0000
  C   C1567     1.0  0.80087  0.98319  0.16502  1.0000
  H   H1255     1.0  0.55394  0.20341  0.18040  1.0000
  H   H1256     1.0  0.66828  0.01017  0.32886  1.0000
  C   C1568     1.0  0.54863  0.08542  0.18629  1.0000
  S   S217      1.0  0.85221  0.01045  0.41564  1.0000
  H   H1257     1.0  0.86098  0.15025  0.42461  1.0000
  H   H1258     1.0  0.56082  0.98841  0.30236  1.0000
  C   C1569     1.0  0.59110  0.19360  0.20655  1.0000
  H   H1259     1.0  0.57246  0.17885  0.29676  1.0000
  H   H1260     1.0  0.63994  0.15056  0.17480  1.0000
  C   C1570     1.0  0.96024  0.99195  0.44381  1.0000
  H   H1261     1.0  0.50539  0.12397  0.35751  1.0000
  H   H1262     1.0  0.51747  0.14455  0.39152  1.0000
  H   H1263     1.0  0.51643  0.18902  0.38904  1.0000
  H   H1264     1.0  0.77151  0.02496  0.11431  1.0000
  S   S218      1.0  0.81417  0.22041  0.39570  1.0000
  H   H1265     1.0  0.83136  0.01699  0.26460  1.0000
  C   C1571     1.0  0.67503  0.98338  0.07679  1.0000
  C   C1572     1.0  0.84532  0.00302  0.26942  1.0000
  C   C1573     1.0  0.51235  0.99788  0.25284  1.0000
  C   C1574     1.0  0.62819  0.04385  0.11218  1.0000
  C   C1575     1.0  0.53236  0.18010  0.20516  1.0000
  H   H1266     1.0  0.52389  0.00758  0.42714  1.0000
  H   H1267     1.0  0.66541  0.00637  0.10560  1.0000
  C   C1576     1.0  0.88312  0.99044  0.28727  1.0000
  C   C1577     1.0  0.81660  0.17680  0.17636  1.0000
  C   C1578     1.0  0.84024  0.17598  0.18280  1.0000
  C   C1579     1.0  0.84567  0.18972  0.20106  1.0000
  C   C1580     1.0  0.87865  0.02097  0.33543  1.0000
  C   C1581     1.0  0.80358  0.20479  0.20692  1.0000
  C   C1582     1.0  0.79834  0.19122  0.18830  1.0000
  H   H1268     1.0  0.53247  0.14516  0.17403  1.0000
  H   H1269     1.0  0.81477  0.00322  0.06860  1.0000
  C   C1583     1.0  0.51354  0.02750  0.01805  1.0000
  H   H1270     1.0  0.87063  0.07004  0.46806  1.0000
  C   C1584     1.0  0.79531  0.00778  0.16775  1.0000
  C   C1585     1.0  0.71148  0.07946  0.07072  1.0000
  H   H1271     1.0  0.66491  0.10899  0.07648  1.0000
  C   C1586     1.0  0.61334  0.20179  0.19771  1.0000
  Fe  Fe112     1.0  0.80863  0.21549  0.35710  1.0000
  C   C1587     1.0  0.64166  0.11795  0.04771  1.0000
  H   H1272     1.0  0.90175  0.12477  0.45097  1.0000
  H   H1273     1.0  0.79975  0.01544  0.18383  1.0000
  C   C1588     1.0  0.65450  0.10189  0.06367  1.0000
  C   C1589     1.0  0.68585  0.99320  0.26416  1.0000
  C   C1590     1.0  0.75728  0.18256  0.23844  1.0000
  H   H1274     1.0  0.81235  0.16585  0.16246  1.0000
  H   H1275     1.0  0.85423  0.16428  0.17401  1.0000
  H   H1276     1.0  0.49154  0.19239  0.31744  1.0000
  C   C1591     1.0  0.55411  0.13039  0.20326  1.0000
  H   H1277     1.0  0.78006  0.19155  0.18322  1.0000
  C   C1592     1.0  0.55420  0.15557  0.24750  1.0000
  H   H1278     1.0  0.68570  0.05623  0.20355  1.0000
  C   C1593     1.0  0.82349  0.07125  0.27550  1.0000
  H   H1279     1.0  0.57780  0.07957  0.42475  1.0000
  C   C1594     1.0  0.92302  0.02051  0.25554  1.0000
  C   C1595     1.0  0.54209  0.06908  0.43552  1.0000
  S   S219      1.0  0.64691  0.00205  0.45900  1.0000
  H   H1280     1.0  0.52565  0.12245  0.29414  1.0000
  H   H1281     1.0  0.52787  0.10570  0.15937  1.0000
  H   H1282     1.0  0.77154  0.17218  0.22854  1.0000
  H   H1283     1.0  0.73900  0.15107  0.25155  1.0000
  H   H1284     1.0  0.75113  0.99962  0.31331  1.0000
  C   C1596     1.0  0.91949  0.15753  0.45126  1.0000
  C   C1597     1.0  0.96254  0.21243  0.39922  1.0000
  P   P52       1.0  0.90694  0.17164  0.42416  1.0000
  C   C1598     1.0  0.90712  0.15093  0.40104  1.0000
  C   C1599     1.0  0.87643  0.18210  0.43377  1.0000
  H   H1285     1.0  0.72274  0.00159  0.35010  1.0000
  H   H1286     1.0  0.63395  0.99392  0.24755  1.0000
  C   C1600     1.0  0.78693  0.99606  0.99128  1.0000
  C   C1601     1.0  0.65372  0.07686  0.06313  1.0000
  H   H1287     1.0  0.84924  0.09058  0.25213  1.0000
  C   C1602     1.0  0.92295  0.12987  0.40102  1.0000
  C   C1603     1.0  0.92253  0.11381  0.38320  1.0000
  C   C1604     1.0  0.90680  0.11899  0.36492  1.0000
  C   C1605     1.0  0.89168  0.14041  0.36427  1.0000
  C   C1606     1.0  0.89189  0.15638  0.38220  1.0000
  C   C1607     1.0  0.92408  0.19570  0.41004  1.0000
  C   C1608     1.0  0.94928  0.19374  0.41009  1.0000
  C   C1609     1.0  0.78391  0.02251  0.14980  1.0000
  H   H1288     1.0  0.65146  0.99456  0.28433  1.0000
  H   H1289     1.0  0.49248  0.14814  0.32050  1.0000
  C   C1610     1.0  0.50871  0.17558  0.21369  1.0000
  C   C1611     1.0  0.73291  0.06341  0.11343  1.0000
  C   C1612     1.0  0.57864  0.04638  0.44772  1.0000
  H   H1290     1.0  0.60082  0.13589  0.18980  1.0000
  C   C1613     1.0  0.96652  0.00520  0.04763  1.0000
  C   C1614     1.0  0.70965  0.98318  0.26306  1.0000
  C   C1615     1.0  0.61708  0.05505  0.15298  1.0000
  C   C1616     1.0  0.63915  0.06820  0.04712  1.0000
  H   H1291     1.0  0.93575  0.12584  0.41460  1.0000
  C   C1617     1.0  0.49325  0.21116  0.18986  1.0000
  H   H1292     1.0  0.90652  0.10657  0.35111  1.0000
  H   H1293     1.0  0.87971  0.14467  0.34989  1.0000
  H   H1294     1.0  0.88012  0.17298  0.38136  1.0000
  H   H1295     1.0  0.95875  0.17787  0.41869  1.0000
  C   C1618     1.0  0.56208  0.08662  0.20606  1.0000
  C   C1619     1.0  0.51951  0.22744  0.25363  1.0000
  C   C1620     1.0  0.68640  0.03945  0.19491  1.0000
  C   C1621     1.0  0.77923  0.01300  0.12849  1.0000
  H   H1296     1.0  0.53312  0.08437  0.42550  1.0000
  Fe  Fe113     1.0  0.49868  0.17096  0.45458  1.0000
  H   H1297     1.0  0.50900  0.05465  0.44922  1.0000
  S   S220      1.0  0.51409  0.03872  0.08970  1.0000
  C   C1622     1.0  0.62615  0.16258  0.18346  1.0000
  C   C1623     1.0  0.68844  0.00315  0.03815  1.0000
  C   C1624     1.0  0.74899  0.98364  0.32568  1.0000
  H   H1298     1.0  0.59811  0.04428  0.44748  1.0000
  H   H1299     1.0  0.66981  0.07730  0.13115  1.0000
  C   C1625     1.0  0.87314  0.03656  0.35377  1.0000
  S   S221      1.0  0.51961  0.20258  0.43968  1.0000
  H   H1300     1.0  0.64131  0.00135  0.14922  1.0000
  C   C1626     1.0  0.54904  0.15009  0.29834  1.0000
  C   C1627     1.0  0.67514  0.02703  0.07202  1.0000
  Fe  Fe114     1.0  0.49969  0.04953  0.12677  1.0000
  C   C1628     1.0  0.77937  0.00399  0.37110  1.0000
  C   C1629     1.0  0.63817  0.06674  0.15233  1.0000
  C   C1630     1.0  0.74483  0.07844  0.09583  1.0000
  H   H1301     1.0  0.68769  0.04177  0.03626  1.0000
  H   H1302     1.0  0.70629  0.17373  0.27502  1.0000
  C   C1631     1.0  0.72047  0.20822  0.26546  1.0000
  C   C1632     1.0  0.53614  0.19994  0.18826  1.0000
  C   C1633     1.0  0.87152  0.20406  0.44446  1.0000
  C   C1634     1.0  0.72060  0.18321  0.26515  1.0000
  H   H1303     1.0  0.57006  0.07018  0.21507  1.0000
  C   C1635     1.0  0.84087  0.08774  0.27036  1.0000
  C   C1636     1.0  0.91835  0.03535  0.32809  1.0000
  C   C1637     1.0  0.51408  0.22857  0.45575  1.0000
  H   H1304     1.0  0.68013  0.00673  0.25019  1.0000
  H   H1305     1.0  0.85602  0.03622  0.36430  1.0000
  C   C1638     1.0  0.74656  0.98946  0.98167  1.0000
  C   C1639     1.0  0.63075  0.18634  0.18601  1.0000
  P   P53       1.0  0.90938  0.99780  0.30098  1.0000
  H   H1306     1.0  0.89325  0.21730  0.39631  1.0000
  C   C1640     1.0  0.93358  0.17017  0.46458  1.0000
  C   C1641     1.0  0.79856  0.22891  0.26448  1.0000
  C   C1642     1.0  0.85758  0.16746  0.43230  1.0000
  C   C1643     1.0  0.58609  0.16978  0.20376  1.0000
  H   H1307     1.0  0.86389  0.18864  0.20640  1.0000
  H   H1308     1.0  0.60006  0.99989  0.18036  1.0000
  H   H1309     1.0  0.81943  0.16421  0.43878  1.0000
  S   S222      1.0  0.90630  0.98294  0.41040  1.0000
  C   C1644     1.0  0.61873  0.99942  0.23709  1.0000
  C   C1645     1.0  0.74175  0.98818  0.45309  1.0000
  C   C1646     1.0  0.97480  0.99564  0.46201  1.0000
  C   C1647     1.0  0.78515  0.98840  0.12543  1.0000
  H   H1310     1.0  0.93620  0.03469  0.31892  1.0000
  H   H1311     1.0  0.52320  0.21071  0.26461  1.0000
  C   C1648     1.0  0.73869  0.22042  0.25221  1.0000
  H   H1312     1.0  0.61777  0.12152  0.01900  1.0000
  H   H1313     1.0  0.78708  0.98670  0.27087  1.0000
  C   C1649     1.0  0.86502  0.00860  0.28106  1.0000
  H   H1314     1.0  0.97700  0.03492  0.22756  1.0000
  H   H1315     1.0  0.86557  0.00876  0.33216  1.0000
  H   H1316     1.0  0.93757  0.18849  0.45869  1.0000
  C   C1650     1.0  0.75710  0.98950  0.21051  1.0000
  C   C1651     1.0  0.80306  0.09477  0.47054  1.0000
  H   H1317     1.0  0.64797  0.19273  0.17917  1.0000
  H   H1318     1.0  0.88596  0.06337  0.37383  1.0000
  P   P54       1.0  0.77990  0.22428  0.22104  1.0000
  H   H1319     1.0  0.62699  0.98557  0.11365  1.0000
  S   S223      1.0  0.88015  0.98782  0.98197  1.0000
  C   C1652     1.0  0.48928  0.19096  0.20593  1.0000
  S   S224      1.0  0.90801  0.99194  0.03110  1.0000
  S   S225      1.0  0.81208  0.01307  0.98543  1.0000
  C   C1653     1.0  0.61225  0.98878  0.33049  1.0000
  C   C1654     1.0  0.63754  0.98258  0.15010  1.0000
  H   H1320     1.0  0.83208  0.21436  0.22732  1.0000
  C   C1655     1.0  0.71190  0.06969  0.47173  1.0000
  C   C1656     1.0  0.72783  0.08625  0.47654  1.0000
  C   C1657     1.0  0.68346  0.98211  0.05251  1.0000
  C   C1658     1.0  0.91256  0.21580  0.39747  1.0000
  H   H1321     1.0  0.79764  0.20955  0.26767  1.0000
  H   H1322     1.0  0.58480  0.22516  0.46019  1.0000
  C   C1659     1.0  0.97064  0.98553  0.42129  1.0000
  C   C1660     1.0  0.58880  0.99549  0.32415  1.0000
  C   C1661     1.0  0.66964  0.98606  0.28343  1.0000
  C   C1662     1.0  0.48580  0.06433  0.37936  1.0000
  H   H1323     1.0  0.74872  0.99030  0.19368  1.0000
  Fe  Fe115     1.0  0.51188  0.98049  0.31168  1.0000
  C   C1663     1.0  0.84802  0.21135  0.45325  1.0000
  H   H1324     1.0  0.49379  0.07533  0.36435  1.0000
  H   H1325     1.0  0.80108  0.98502  0.43200  1.0000
  H   H1326     1.0  0.57429  0.01425  0.47113  1.0000
  H   H1327     1.0  0.63524  0.22982  0.38470  1.0000
  C   C1664     1.0  0.51825  0.98639  0.46148  1.0000
  C   C1665     1.0  0.97474  0.05238  0.40961  1.0000
  C   C1666     1.0  0.83383  0.06099  0.47214  1.0000
  H   H1328     1.0  0.94084  0.99382  0.44735  1.0000
  C   C1667     1.0  0.80953  0.06975  0.47321  1.0000
  C   C1668     1.0  0.48254  0.04004  0.37652  1.0000
  P   P55       1.0  0.50232  0.22666  0.35153  1.0000
  H   H1329     1.0  0.53818  0.22716  0.30943  1.0000
  C   C1669     1.0  0.73290  0.98469  0.34633  1.0000
  C   C1670     1.0  0.51982  0.99026  0.43617  1.0000
  H   H1330     1.0  0.72216  0.98877  0.24818  1.0000
  C   C1671     1.0  0.50557  0.06305  0.98020  1.0000
  C   C1672     1.0  0.49574  0.23007  0.47442  1.0000
  H   H1331     1.0  0.83879  0.04168  0.47384  1.0000
  C   C1673     1.0  0.76233  0.98475  0.43707  1.0000
  H   H1332     1.0  0.77502  0.98587  0.37741  1.0000
  S   S226      1.0  0.48267  0.10545  0.40338  1.0000
  C   C1674     1.0  0.82936  0.19679  0.45152  1.0000
  H   H1333     1.0  0.95930  0.98256  0.40729  1.0000
  P   P56       1.0  0.64708  0.98041  0.19844  1.0000
  H   H1334     1.0  0.84418  0.22844  0.46114  1.0000
  C   C1675     1.0  0.76698  0.00254  0.97783  1.0000
  P   P57       1.0  0.59768  0.23003  0.50996  1.0000
  C   C1676     1.0  0.76863  0.14203  0.50447  1.0000
  Fe  Fe116     1.0  0.80353  0.10280  0.76803  1.0000
  S   S227      1.0  0.76858  0.11515  0.78758  1.0000
  S   S228      1.0  0.83946  0.11915  0.76723  1.0000
  Fe  Fe117     1.0  0.78033  0.06285  0.74595  1.0000
  S   S229      1.0  0.74372  0.07203  0.76468  1.0000
  S   S230      1.0  0.78693  0.03893  0.71496  1.0000
  Fe  Fe118     1.0  0.75156  0.11043  0.75339  1.0000
  S   S231      1.0  0.72385  0.13785  0.73679  1.0000
  Fe  Fe119     1.0  0.76382  0.07554  0.79734  1.0000
  S   S232      1.0  0.75369  0.06566  0.83756  1.0000
  S   S233      1.0  0.78698  0.10109  0.73319  1.0000
  S   S234      1.0  0.80015  0.06331  0.77928  1.0000
  C   C1677     1.0  0.76689  0.99733  0.48366  1.0000
  C   C1678     1.0  0.75805  0.10226  0.52071  1.0000
  H   H1335     1.0  0.80830  0.01243  0.64190  1.0000
  C   C1679     1.0  0.60076  0.04441  0.56764  1.0000
  C   C1680     1.0  0.95890  0.10845  0.87206  1.0000
  S   S235      1.0  0.94841  0.02968  0.86225  1.0000
  C   C1681     1.0  0.56451  0.10184  0.48790  1.0000
  C   C1682     1.0  0.51551  0.03992  0.97517  1.0000
  C   C1683     1.0  0.78088  0.99436  0.70101  1.0000
  S   S236      1.0  0.68271  0.00074  0.95928  1.0000
  C   C1684     1.0  0.55504  0.16380  0.50686  1.0000
  H   H1336     1.0  0.48313  0.00480  0.97181  1.0000
  C   C1685     1.0  0.76183  0.17803  0.81464  1.0000
  S   S237      1.0  0.52011  0.09969  0.51389  1.0000
  H   H1337     1.0  0.63535  0.20501  0.48007  1.0000
  H   H1338     1.0  0.58303  0.03846  0.56654  1.0000
  H   H1339     1.0  0.89090  0.00972  0.72772  1.0000
  S   S238      1.0  0.74338  0.17118  0.62506  1.0000
  Fe  Fe120     1.0  0.64168  0.02257  0.49214  1.0000
  H   H1340     1.0  0.93498  0.03101  0.66586  1.0000
  S   S239      1.0  0.72392  0.21947  0.57354  1.0000
  C   C1686     1.0  0.94451  0.15040  0.76347  1.0000
  H   H1341     1.0  0.83660  0.02853  0.93354  1.0000
  H   H1342     1.0  0.72946  0.99387  0.71681  1.0000
  H   H1343     1.0  0.94262  0.15041  0.80197  1.0000
  H   H1344     1.0  0.91879  0.10520  0.48807  1.0000
  H   H1345     1.0  0.78044  0.04292  0.88446  1.0000
  C   C1687     1.0  0.97681  0.08877  0.70238  1.0000
  C   C1688     1.0  0.73464  0.04350  0.85122  1.0000
  C   C1689     1.0  0.72608  0.02638  0.83800  1.0000
  C   C1690     1.0  0.71156  0.00877  0.84981  1.0000
  C   C1691     1.0  0.70534  0.00807  0.87491  1.0000
  C   C1692     1.0  0.71376  0.02530  0.88808  1.0000
  C   C1693     1.0  0.72833  0.04285  0.87630  1.0000
  H   H1346     1.0  0.73079  0.02657  0.81874  1.0000
  H   H1347     1.0  0.95400  0.09710  0.73436  1.0000
  H   H1348     1.0  0.70921  0.02498  0.90738  1.0000
  H   H1349     1.0  0.73466  0.05605  0.88671  1.0000
  C   C1694     1.0  0.72976  0.14750  0.70583  1.0000
  C   C1695     1.0  0.74642  0.13426  0.69088  1.0000
  C   C1696     1.0  0.75051  0.14186  0.66625  1.0000
  C   C1697     1.0  0.73845  0.16315  0.65640  1.0000
  C   C1698     1.0  0.72188  0.17661  0.67133  1.0000
  C   C1699     1.0  0.71729  0.16854  0.69589  1.0000
  H   H1350     1.0  0.75579  0.11782  0.69807  1.0000
  H   H1351     1.0  0.76314  0.13122  0.65479  1.0000
  H   H1352     1.0  0.71204  0.19273  0.66377  1.0000
  H   H1353     1.0  0.70384  0.17838  0.70719  1.0000
  H   H1354     1.0  0.54181  0.00555  0.56542  1.0000
  C   C1700     1.0  0.77598  0.19771  0.75225  1.0000
  C   C1701     1.0  0.78305  0.00801  0.72054  1.0000
  C   C1702     1.0  0.78295  0.99669  0.74394  1.0000
  C   C1703     1.0  0.95660  0.22587  0.67227  1.0000
  H   H1355     1.0  0.78449  0.00716  0.75908  1.0000
  C   C1704     1.0  0.84242  0.01316  0.65683  1.0000
  C   C1705     1.0  0.86119  0.99960  0.66839  1.0000
  H   H1356     1.0  0.92005  0.98611  0.75315  1.0000
  C   C1706     1.0  0.54990  0.08854  0.50483  1.0000
  C   C1707     1.0  0.55957  0.06653  0.51577  1.0000
  C   C1708     1.0  0.58357  0.05779  0.50973  1.0000
  C   C1709     1.0  0.49127  0.04700  0.49991  1.0000
  P   P58       1.0  0.88696  0.01433  0.67494  1.0000
  H   H1357     1.0  0.54844  0.05620  0.52893  1.0000
  H   H1358     1.0  0.59073  0.04063  0.51794  1.0000
  C   C1710     1.0  0.94411  0.02972  0.89410  1.0000
  C   C1711     1.0  0.92480  0.01829  0.90652  1.0000
  C   C1712     1.0  0.91960  0.01977  0.93156  1.0000
  C   C1713     1.0  0.93334  0.03317  0.94434  1.0000
  C   C1714     1.0  0.95283  0.04441  0.93194  1.0000
  C   C1715     1.0  0.95827  0.04259  0.90695  1.0000
  C   C1716     1.0  0.70543  0.98178  0.69276  1.0000
  H   H1359     1.0  0.90446  0.01121  0.94072  1.0000
  H   H1360     1.0  0.77717  0.18818  0.81561  1.0000
  C   C1717     1.0  0.66829  0.11589  0.50783  1.0000
  C   C1718     1.0  0.84828  0.19822  0.78014  1.0000
  C   C1719     1.0  0.82838  0.18673  0.79125  1.0000
  C   C1720     1.0  0.82503  0.16275  0.78700  1.0000
  C   C1721     1.0  0.84206  0.14977  0.77214  1.0000
  C   C1722     1.0  0.86258  0.16087  0.76198  1.0000
  C   C1723     1.0  0.86561  0.18500  0.76578  1.0000
  H   H1361     1.0  0.93897  0.21283  0.50354  1.0000
  H   H1362     1.0  0.80942  0.15424  0.79531  1.0000
  H   H1363     1.0  0.87609  0.15084  0.75084  1.0000
  H   H1364     1.0  0.88137  0.19331  0.75766  1.0000
  C   C1724     1.0  0.72935  0.03080  0.53026  1.0000
  C   C1725     1.0  0.73310  0.00978  0.54563  1.0000
  C   C1726     1.0  0.72047  0.00774  0.56839  1.0000
  C   C1727     1.0  0.70405  0.02662  0.57573  1.0000
  C   C1728     1.0  0.69955  0.04738  0.56006  1.0000
  C   C1729     1.0  0.71253  0.04945  0.53736  1.0000
  P   P59       1.0  0.67658  0.07055  0.56896  1.0000
  C   C1730     1.0  0.68258  0.07892  0.59834  1.0000
  C   C1731     1.0  0.67780  0.09648  0.54709  1.0000
  C   C1732     1.0  0.68972  0.11661  0.55126  1.0000
  H   H1365     1.0  0.95145  0.13765  0.89512  1.0000
  C   C1733     1.0  0.76526  0.11798  0.50080  1.0000
  H   H1366     1.0  0.48448  0.21533  0.47894  1.0000
  C   C1734     1.0  0.66715  0.09627  0.52522  1.0000
  C   C1735     1.0  0.66370  0.08589  0.61529  1.0000
  C   C1736     1.0  0.66868  0.09297  0.63768  1.0000
  C   C1737     1.0  0.69250  0.09317  0.64331  1.0000
  C   C1738     1.0  0.71138  0.08626  0.62656  1.0000
  C   C1739     1.0  0.70648  0.07912  0.60419  1.0000
  C   C1740     1.0  0.64690  0.05999  0.56919  1.0000
  C   C1741     1.0  0.64391  0.03541  0.56791  1.0000
  H   H1367     1.0  0.96359  0.05479  0.94164  1.0000
  H   H1368     1.0  0.54442  0.14846  0.50708  1.0000
  S   S240      1.0  0.62479  0.99269  0.51528  1.0000
  C   C1742     1.0  0.62650  0.07673  0.56926  1.0000
  H   H1369     1.0  0.73887  0.03244  0.51248  1.0000
  C   C1743     1.0  0.60355  0.06895  0.56841  1.0000
  H   H1370     1.0  0.76461  0.07857  0.90583  1.0000
  H   H1371     1.0  0.69419  0.02470  0.59327  1.0000
  H   H1372     1.0  0.70949  0.06515  0.52488  1.0000
  H   H1373     1.0  0.69806  0.11735  0.56794  1.0000
  H   H1374     1.0  0.77517  0.15433  0.48971  1.0000
  H   H1375     1.0  0.65797  0.08086  0.52155  1.0000
  H   H1376     1.0  0.64514  0.08599  0.61132  1.0000
  H   H1377     1.0  0.65407  0.09853  0.65064  1.0000
  H   H1378     1.0  0.69635  0.09894  0.66056  1.0000
  H   H1379     1.0  0.72983  0.08678  0.63090  1.0000
  H   H1380     1.0  0.72136  0.07403  0.59136  1.0000
  H   H1381     1.0  0.65912  0.02204  0.56691  1.0000
  H   H1382     1.0  0.90688  0.01983  0.58597  1.0000
  H   H1383     1.0  0.74543  0.99488  0.53983  1.0000
  C   C1744     1.0  0.95860  0.15417  0.74171  1.0000
  H   H1384     1.0  0.62835  0.09587  0.56946  1.0000
  H   H1385     1.0  0.96632  0.16847  0.86442  1.0000
  C   C1745     1.0  0.64323  0.03595  0.64834  1.0000
  C   C1746     1.0  0.63959  0.02153  0.63000  1.0000
  C   C1747     1.0  0.65702  0.00311  0.62370  1.0000
  C   C1748     1.0  0.67808  0.99904  0.63576  1.0000
  C   C1749     1.0  0.68192  0.01337  0.65430  1.0000
  C   C1750     1.0  0.66428  0.03195  0.66044  1.0000
  P   P60       1.0  0.70889  0.00698  0.67032  1.0000
  H   H1386     1.0  0.75653  0.16870  0.74329  1.0000
  C   C1751     1.0  0.72426  0.21746  0.75940  1.0000
  C   C1752     1.0  0.59230  0.18034  0.51333  1.0000
  C   C1753     1.0  0.97646  0.14336  0.83697  1.0000
  H   H1387     1.0  0.52622  0.18976  0.49619  1.0000
  H   H1388     1.0  0.82675  0.17247  0.70645  1.0000
  H   H1389     1.0  0.70007  0.15174  0.53710  1.0000
  H   H1390     1.0  0.69372  0.07037  0.48040  1.0000
  C   C1754     1.0  0.66837  0.20559  0.49690  1.0000
  C   C1755     1.0  0.54468  0.18707  0.50088  1.0000
  H   H1391     1.0  0.72162  0.09993  0.48879  1.0000
  C   C1756     1.0  0.69093  0.13621  0.53375  1.0000
  C   C1757     1.0  0.71454  0.03309  0.68544  1.0000
  C   C1758     1.0  0.69917  0.03982  0.70552  1.0000
  C   C1759     1.0  0.70235  0.06068  0.71662  1.0000
  C   C1760     1.0  0.72118  0.07471  0.70808  1.0000
  C   C1761     1.0  0.73725  0.06754  0.68892  1.0000
  C   C1762     1.0  0.73413  0.04670  0.67777  1.0000
  H   H1392     1.0  0.62967  0.05022  0.65325  1.0000
  H   H1393     1.0  0.62324  0.02457  0.62069  1.0000
  H   H1394     1.0  0.73848  0.21046  0.72302  1.0000
  C   C1763     1.0  0.78031  0.06763  0.91188  1.0000
  H   H1395     1.0  0.66654  0.04352  0.67441  1.0000
  H   H1396     1.0  0.89789  0.03285  0.85371  1.0000
  H   H1397     1.0  0.73150  0.99448  0.97094  1.0000
  H   H1398     1.0  0.91485  0.12147  0.92909  1.0000
  H   H1399     1.0  0.72899  0.03325  0.62663  1.0000
  H   H1400     1.0  0.95974  0.21319  0.68783  1.0000
  C   C1764     1.0  0.96821  0.10174  0.84933  1.0000
  H   H1401     1.0  0.68103  0.15106  0.49858  1.0000
  C   C1765     1.0  0.79159  0.07377  0.93160  1.0000
  H   H1402     1.0  0.58793  0.08198  0.56780  1.0000
  H   H1403     1.0  0.68460  0.02900  0.71252  1.0000
  H   H1404     1.0  0.69044  0.06587  0.73206  1.0000
  H   H1405     1.0  0.72372  0.09077  0.71680  1.0000
  H   H1406     1.0  0.75264  0.07771  0.68324  1.0000
  H   H1407     1.0  0.74745  0.04118  0.66370  1.0000
  C   C1766     1.0  0.80613  0.11488  0.87538  1.0000
  C   C1767     1.0  0.79674  0.10431  0.85689  1.0000
  C   C1768     1.0  0.81170  0.09786  0.83668  1.0000
  C   C1769     1.0  0.83610  0.10190  0.83484  1.0000
  H   H1408     1.0  0.79454  0.11973  0.89113  1.0000
  H   H1409     1.0  0.77788  0.10096  0.85822  1.0000
  H   H1410     1.0  0.80433  0.08956  0.82247  1.0000
  H   H1411     1.0  0.84720  0.09663  0.81899  1.0000
  C   C1770     1.0  0.81256  0.17964  0.71901  1.0000
  C   C1771     1.0  0.92289  0.08053  0.79046  1.0000
  C   C1772     1.0  0.81197  0.05969  0.93917  1.0000
  C   C1773     1.0  0.72717  0.16970  0.79469  1.0000
  C   C1774     1.0  0.72278  0.15078  0.81232  1.0000
  C   C1775     1.0  0.73788  0.14547  0.83111  1.0000
  P   P61       1.0  0.52190  0.01057  0.47988  1.0000
  H   H1412     1.0  0.78035  0.00325  0.68299  1.0000
  H   H1413     1.0  0.71579  0.17274  0.77976  1.0000
  H   H1414     1.0  0.70819  0.13963  0.81087  1.0000
  H   H1415     1.0  0.73489  0.13025  0.84425  1.0000
  H   H1416     1.0  0.78453  0.08934  0.94110  1.0000
  C   C1776     1.0  0.90591  0.99476  0.69447  1.0000
  C   C1777     1.0  0.75752  0.15899  0.83217  1.0000
  C   C1778     1.0  0.89750  0.01840  0.62449  1.0000
  H   H1417     1.0  0.55732  0.11872  0.47922  1.0000
  C   C1779     1.0  0.76384  0.15044  0.52748  1.0000
  S   S241      1.0  0.62919  0.06237  0.48711  1.0000
  C   C1780     1.0  0.75614  0.13482  0.54709  1.0000
  H   H1418     1.0  0.79036  0.21722  0.68567  1.0000
  H   H1419     1.0  0.78393  0.98181  0.59863  1.0000
  H   H1420     1.0  0.58679  0.14226  0.51763  1.0000
  H   H1421     1.0  0.91866  0.22137  0.67395  1.0000
  C   C1781     1.0  0.97631  0.02032  0.53952  1.0000
  Fe  Fe121     1.0  0.49927  0.12462  0.48723  1.0000
  H   H1422     1.0  0.92617  0.14572  0.76336  1.0000
  H   H1423     1.0  0.76739  0.01767  0.96423  1.0000
  H   H1424     1.0  0.78824  0.15322  0.71366  1.0000
  H   H1425     1.0  0.73930  0.22173  0.51607  1.0000
  C   C1782     1.0  0.91253  0.02299  0.60345  1.0000
  C   C1783     1.0  0.86204  0.16637  0.84334  1.0000
  H   H1426     1.0  0.76201  0.02262  0.59586  1.0000
  H   H1427     1.0  0.56915  0.02483  0.97165  1.0000
  C   C1784     1.0  0.83017  0.02883  0.84595  1.0000
  C   C1785     1.0  0.84503  0.03932  0.82712  1.0000
  C   C1786     1.0  0.86945  0.04052  0.82978  1.0000
  C   C1787     1.0  0.79727  0.98151  0.86122  1.0000
  C   C1788     1.0  0.86420  0.02125  0.87038  1.0000
  H   H1428     1.0  0.69843  0.20903  0.51766  1.0000
  H   H1429     1.0  0.83760  0.12691  0.88828  1.0000
  H   H1430     1.0  0.87174  0.01534  0.88737  1.0000
  C   C1789     1.0  0.57890  0.16039  0.51292  1.0000
  H   H1431     1.0  0.61045  0.17739  0.51885  1.0000
  H   H1432     1.0  0.94704  0.03406  0.58871  1.0000
  H   H1433     1.0  0.88021  0.01188  0.62279  1.0000
  H   H1434     1.0  0.76644  0.16904  0.53020  1.0000
  H   H1435     1.0  0.76967  0.15442  0.84627  1.0000
  C   C1790     1.0  0.54563  0.99807  0.54807  1.0000
  S   S242      1.0  0.48451  0.16284  0.49327  1.0000
  C   C1791     1.0  0.75742  0.00961  0.61081  1.0000
  H   H1436     1.0  0.96890  0.08298  0.84532  1.0000
  C   C1792     1.0  0.58193  0.20379  0.50721  1.0000
  H   H1437     1.0  0.74789  0.09852  0.55903  1.0000
  H   H1438     1.0  0.81110  0.02879  0.84381  1.0000
  H   H1439     1.0  0.83758  0.04678  0.81052  1.0000
  H   H1440     1.0  0.88088  0.04868  0.81517  1.0000
  C   C1793     1.0  0.95388  0.15324  0.78538  1.0000
  H   H1441     1.0  0.51977  0.03601  0.95650  1.0000
  H   H1442     1.0  0.85080  0.20395  0.83458  1.0000
  H   H1443     1.0  0.59523  0.00289  0.90156  1.0000
  C   C1794     1.0  0.97697  0.04540  0.53625  1.0000
  C   C1795     1.0  0.58350  0.01609  0.93621  1.0000
  C   C1796     1.0  0.81599  0.19953  0.73144  1.0000
  H   H1444     1.0  0.95222  0.09491  0.88558  1.0000
  H   H1445     1.0  0.65417  0.99194  0.60943  1.0000
  C   C1797     1.0  0.72302  0.21688  0.73443  1.0000
  H   H1446     1.0  0.50752  0.05500  0.50289  1.0000
  C   C1798     1.0  0.94308  0.03409  0.62745  1.0000
  C   C1799     1.0  0.97700  0.11907  0.83187  1.0000
  C   C1800     1.0  0.90515  0.15605  0.84100  1.0000
  C   C1801     1.0  0.55244  0.99476  0.96016  1.0000
  H   H1447     1.0  0.59605  0.02994  0.93447  1.0000
  H   H1448     1.0  0.92146  0.22343  0.54421  1.0000
  C   C1802     1.0  0.92823  0.02928  0.64851  1.0000
  C   C1803     1.0  0.80921  0.03263  0.90793  1.0000
  S   S243      1.0  0.92563  0.03788  0.97523  1.0000
  C   C1804     1.0  0.88936  0.19751  0.83213  1.0000
  C   C1805     1.0  0.95842  0.13254  0.87737  1.0000
  H   H1449     1.0  0.82061  0.06415  0.95465  1.0000
  H   H1450     1.0  0.96608  0.01203  0.55498  1.0000
  C   C1806     1.0  0.92080  0.98367  0.73401  1.0000
  C   C1807     1.0  0.93524  0.03094  0.60494  1.0000
  H   H1451     1.0  0.91383  0.00824  0.89674  1.0000
  C   C1808     1.0  0.64046  0.22980  0.53289  1.0000
  C   C1809     1.0  0.68021  0.13585  0.51206  1.0000
  C   C1810     1.0  0.58309  0.00079  0.91774  1.0000
  P   P62       1.0  0.75190  0.20867  0.77352  1.0000
  H   H1452     1.0  0.77362  0.99744  0.91672  1.0000
  C   C1811     1.0  0.59841  0.07161  0.49356  1.0000
  H   H1453     1.0  0.90318  0.06375  0.67285  1.0000
  H   H1454     1.0  0.70055  0.22361  0.70465  1.0000
  H   H1455     1.0  0.96753  0.05677  0.54940  1.0000
  C   C1812     1.0  0.53276  0.00759  0.52846  1.0000
  C   C1813     1.0  0.87901  0.03158  0.85145  1.0000
  C   C1814     1.0  0.94327  0.15899  0.48548  1.0000
  C   C1815     1.0  0.83052  0.11888  0.87369  1.0000
  H   H1456     1.0  0.90171  0.10503  0.76680  1.0000
  H   H1457     1.0  0.94066  0.05846  0.81838  1.0000
  H   H1458     1.0  0.87126  0.07177  0.88093  1.0000
  H   H1459     1.0  0.83298  0.20767  0.72870  1.0000
  H   H1460     1.0  0.96114  0.20627  0.78864  1.0000
  H   H1461     1.0  0.94604  0.12668  0.50972  1.0000
  H   H1462     1.0  0.72300  0.99126  0.58015  1.0000
  C   C1816     1.0  0.84574  0.11235  0.85344  1.0000
  H   H1463     1.0  0.91644  0.07727  0.85183  1.0000
  C   C1817     1.0  0.87560  0.04129  0.68952  1.0000
  C   C1818     1.0  0.91290  0.08356  0.83342  1.0000
  C   C1819     1.0  0.92683  0.07286  0.81446  1.0000
  C   C1820     1.0  0.85740  0.08278  0.71254  1.0000
  H   H1464     1.0  0.81525  0.19678  0.80267  1.0000
  H   H1465     1.0  0.93359  0.07198  0.77590  1.0000
  H   H1466     1.0  0.88257  0.05605  0.92158  1.0000
  C   C1821     1.0  0.75337  0.11071  0.54372  1.0000
  C   C1822     1.0  0.85478  0.04090  0.70559  1.0000
  C   C1823     1.0  0.88166  0.14893  0.84561  1.0000
  C   C1824     1.0  0.56763  0.98227  0.92055  1.0000
  H   H1467     1.0  0.84527  0.02473  0.70926  1.0000
  C   C1825     1.0  0.74644  0.18386  0.79602  1.0000
  C   C1826     1.0  0.88724  0.07380  0.91419  1.0000
  C   C1827     1.0  0.88097  0.08273  0.89114  1.0000
  C   C1828     1.0  0.90898  0.18027  0.83435  1.0000
  C   C1829     1.0  0.84580  0.06155  0.71704  1.0000
  C   C1830     1.0  0.55796  0.20700  0.50121  1.0000
  S   S244      1.0  0.85051  0.22913  0.78439  1.0000
  C   C1831     1.0  0.89960  0.08771  0.92775  1.0000
  H   H1468     1.0  0.90459  0.08062  0.94557  1.0000
  C   C1832     1.0  0.58879  0.09367  0.48271  1.0000
  S   S245      1.0  0.67882  0.01151  0.50378  1.0000
  C   C1833     1.0  0.83987  0.01897  0.86745  1.0000
  H   H1469     1.0  0.85021  0.09880  0.72131  1.0000
  H   H1470     1.0  0.88702  0.09990  0.69314  1.0000
  C   C1834     1.0  0.87813  0.08336  0.69664  1.0000
  H   H1471     1.0  0.84305  0.03243  0.65244  1.0000
  H   H1472     1.0  0.76880  0.00228  0.50162  1.0000
  H   H1473     1.0  0.50248  0.07680  0.96554  1.0000
  H   H1474     1.0  0.84372  0.16138  0.84587  1.0000
  C   C1835     1.0  0.88693  0.10574  0.88150  1.0000
  C   C1836     1.0  0.89487  0.10214  0.82840  1.0000
  C   C1837     1.0  0.90433  0.99708  0.71947  1.0000
  H   H1475     1.0  0.51914  0.02231  0.53117  1.0000
  H   H1476     1.0  0.92710  0.18566  0.83046  1.0000
  C   C1838     1.0  0.90512  0.09914  0.78536  1.0000
  C   C1839     1.0  0.62930  0.22225  0.51361  1.0000
  H   H1477     1.0  0.97304  0.05166  0.89752  1.0000
  C   C1840     1.0  0.73883  0.01562  0.62830  1.0000
  P   P63       1.0  0.87729  0.11729  0.85227  1.0000
  C   C1841     1.0  0.90544  0.11071  0.91838  1.0000
  C   C1842     1.0  0.86595  0.19058  0.83685  1.0000
  H   H1478     1.0  0.82963  0.06113  0.72923  1.0000
  C   C1843     1.0  0.78921  0.04726  0.89993  1.0000
  C   C1844     1.0  0.77294  0.17755  0.73992  1.0000
  C   C1845     1.0  0.89146  0.11013  0.80424  1.0000
  C   C1846     1.0  0.79097  0.16870  0.72320  1.0000
  C   C1847     1.0  0.83612  0.98379  0.91193  1.0000
  H   H1479     1.0  0.70520  0.99551  0.83943  1.0000
  C   C1848     1.0  0.97230  0.09334  0.72672  1.0000
  C   C1849     1.0  0.89898  0.11982  0.89539  1.0000
  H   H1480     1.0  0.75271  0.14137  0.56498  1.0000
  Fe  Fe122     1.0  0.73919  0.21017  0.60959  1.0000
  C   C1850     1.0  0.49273  0.02524  0.48888  1.0000
  C   C1851     1.0  0.56832  0.01304  0.95736  1.0000
  H   H1481     1.0  0.87798  0.12477  0.80003  1.0000
  C   C1852     1.0  0.96708  0.14998  0.85990  1.0000
  H   H1482     1.0  0.96198  0.08889  0.69112  1.0000
  C   C1853     1.0  0.79791  0.20842  0.74816  1.0000
  H   H1483     1.0  0.67932  0.19688  0.48260  1.0000
  H   H1484     1.0  0.81328  0.98236  0.84886  1.0000
  C   C1854     1.0  0.96773  0.21229  0.80458  1.0000
  H   H1485     1.0  0.95128  0.15235  0.72469  1.0000
  C   C1855     1.0  0.88723  0.06272  0.68515  1.0000
  H   H1486     1.0  0.65978  0.11550  0.49112  1.0000
  H   H1487     1.0  0.90327  0.13783  0.88871  1.0000
  H   H1488     1.0  0.92044  0.14272  0.84219  1.0000
  H   H1489     1.0  0.96103  0.03945  0.62872  1.0000
  C   C1856     1.0  0.82088  0.03929  0.92727  1.0000
  C   C1857     1.0  0.67918  0.21254  0.51654  1.0000
  C   C1858     1.0  0.53774  0.99820  0.50579  1.0000
  C   C1859     1.0  0.77509  0.98983  0.89938  1.0000
  C   C1860     1.0  0.73309  0.99902  0.64796  1.0000
  H   H1490     1.0  0.72837  0.99669  0.48897  1.0000
  C   C1861     1.0  0.90524  0.02158  0.64724  1.0000
  H   H1491     1.0  0.75631  0.08341  0.51850  1.0000
  H   H1492     1.0  0.61891  0.00865  0.56634  1.0000
  C   C1862     1.0  0.62094  0.02767  0.56740  1.0000
  C   C1863     1.0  0.70149  0.22442  0.72391  1.0000
  P   P64       1.0  0.82065  0.00652  0.89231  1.0000
  H   H1493     1.0  0.74972  0.21912  0.67113  1.0000
  H   H1494     1.0  0.95524  0.16837  0.49487  1.0000
  C   C1864     1.0  0.82278  0.00190  0.65072  1.0000
  C   C1865     1.0  0.79564  0.99227  0.88321  1.0000
  C   C1866     1.0  0.64351  0.21029  0.49549  1.0000
  Fe  Fe123     1.0  0.64407  0.99693  0.97305  1.0000
  H   H1495     1.0  0.70412  0.22562  0.79307  1.0000
  S   S246      1.0  0.68791  0.98477  0.88904  1.0000
  C   C1867     1.0  0.93811  0.13551  0.49382  1.0000
  C   C1868     1.0  0.70360  0.22538  0.77371  1.0000
  C   C1869     1.0  0.66522  0.22456  0.53454  1.0000
  H   H1496     1.0  0.81005  0.98874  0.94249  1.0000
  H   H1497     1.0  0.74625  0.22379  0.82356  1.0000
  C   C1870     1.0  0.48636  0.98534  0.97373  1.0000
  H   H1498     1.0  0.59603  0.21966  0.56263  1.0000
  H   H1499     1.0  0.54934  0.22496  0.49708  1.0000
  S   S247      1.0  0.96266  0.22430  0.73684  1.0000
  H   H1500     1.0  0.97802  0.02941  0.71470  1.0000
  H   H1501     1.0  0.80181  0.22293  0.75839  1.0000
  C   C1871     1.0  0.76968  0.98660  0.61226  1.0000
  H   H1502     1.0  0.89220  0.21619  0.82627  1.0000
  H   H1503     1.0  0.96630  0.00011  0.47944  1.0000
  C   C1872     1.0  0.92289  0.12337  0.48150  1.0000
  H   H1504     1.0  0.69140  0.98467  0.63061  1.0000
  C   C1873     1.0  0.97738  0.16011  0.78573  1.0000
  C   C1874     1.0  0.92561  0.22808  0.50529  1.0000
  C   C1875     1.0  0.75043  0.22747  0.50013  1.0000
  S   S248      1.0  0.77303  0.22847  0.59892  1.0000
  S   S249      1.0  0.81540  0.99769  0.47803  1.0000
  S   S250      1.0  0.54928  0.37987  0.41820  1.0000
  C   C1876     1.0  0.63192  0.33379  0.42071  1.0000
  S   S251      1.0  0.78989  0.27609  0.38701  1.0000
  H   H1505     1.0  0.60339  0.38121  0.44922  1.0000
  C   C1877     1.0  0.74609  0.34479  0.10303  1.0000
  S   S252      1.0  0.82390  0.25049  0.34323  1.0000
  C   C1878     1.0  0.54212  0.42251  0.30322  1.0000
  Fe  Fe124     1.0  0.82725  0.25678  0.38243  1.0000
  S   S253      1.0  0.86213  0.26185  0.40012  1.0000
  Fe  Fe125     1.0  0.78523  0.26667  0.34905  1.0000
  S   S254      1.0  0.76505  0.29082  0.32068  1.0000
  H   H1506     1.0  0.96114  0.24723  0.37899  1.0000
  C   C1879     1.0  0.83515  0.32874  0.45564  1.0000
  H   H1507     1.0  0.54820  0.32459  0.33944  1.0000
  S   S255      1.0  0.96910  0.37947  0.46201  1.0000
  Fe  Fe126     1.0  0.96189  0.34386  0.44853  1.0000
  S   S256      1.0  0.92659  0.34222  0.43052  1.0000
  C   C1880     1.0  0.48719  0.34110  0.23293  1.0000
  C   C1881     1.0  0.69883  0.34146  0.40074  1.0000
  S   S257      1.0  0.50040  0.43849  0.10403  1.0000
  C   C1882     1.0  0.52462  0.40987  0.21879  1.0000
  S   S258      1.0  0.52404  0.46196  0.14805  1.0000
  Fe  Fe127     1.0  0.50561  0.42851  0.14350  1.0000
  S   S259      1.0  0.51351  0.38932  0.15853  1.0000
  C   C1883     1.0  0.80654  0.24151  0.28232  1.0000
  Fe  Fe128     1.0  0.61337  0.30795  0.22934  1.0000
  S   S260      1.0  0.59928  0.29497  0.26693  1.0000
  S   S261      1.0  0.60553  0.34669  0.21334  1.0000
  Fe  Fe129     1.0  0.64496  0.26056  0.22267  1.0000
  S   S262      1.0  0.63256  0.24432  0.25927  1.0000
  Fe  Fe130     1.0  0.59583  0.26033  0.25021  1.0000
  H   H1508     1.0  0.92635  0.23766  0.46688  1.0000
  Fe  Fe131     1.0  0.63749  0.28020  0.27244  1.0000
  S   S263      1.0  0.65406  0.27996  0.30838  1.0000
  S   S264      1.0  0.60775  0.27404  0.21230  1.0000
  S   S265      1.0  0.65194  0.29587  0.23628  1.0000
  H   H1509     1.0  0.68634  0.35174  0.12090  1.0000
  C   C1884     1.0  0.53757  0.24330  0.24797  1.0000
  C   C1885     1.0  0.53266  0.26487  0.23376  1.0000
  C   C1886     1.0  0.50969  0.27055  0.22536  1.0000
  H   H1510     1.0  0.53677  0.23476  0.38608  1.0000
  H   H1511     1.0  0.54654  0.27718  0.22926  1.0000
  H   H1512     1.0  0.50601  0.28719  0.21431  1.0000
  C   C1887     1.0  0.65720  0.25910  0.42797  1.0000
  H   H1513     1.0  0.59872  0.35618  0.41608  1.0000
  H   H1514     1.0  0.52281  0.35721  0.31916  1.0000
  S   S266      1.0  0.77040  0.23121  0.36049  1.0000
  C   C1888     1.0  0.54008  0.37702  0.17198  1.0000
  C   C1889     1.0  0.54062  0.35368  0.18395  1.0000
  C   C1890     1.0  0.56071  0.34386  0.19628  1.0000
  C   C1891     1.0  0.58058  0.35729  0.19656  1.0000
  C   C1892     1.0  0.58043  0.38023  0.18381  1.0000
  C   C1893     1.0  0.56030  0.39007  0.17155  1.0000
  H   H1515     1.0  0.52526  0.34327  0.18396  1.0000
  H   H1516     1.0  0.56065  0.32612  0.20587  1.0000
  H   H1517     1.0  0.59576  0.39069  0.18381  1.0000
  H   H1518     1.0  0.56022  0.40795  0.16224  1.0000
  C   C1894     1.0  0.87976  0.28468  0.40815  1.0000
  C   C1895     1.0  0.90014  0.27761  0.42110  1.0000
  C   C1896     1.0  0.91479  0.29479  0.42789  1.0000
  C   C1897     1.0  0.90916  0.31948  0.42202  1.0000
  C   C1898     1.0  0.88874  0.32658  0.40914  1.0000
  C   C1899     1.0  0.87422  0.30936  0.40214  1.0000
  H   H1519     1.0  0.90451  0.25866  0.42620  1.0000
  H   H1520     1.0  0.93018  0.28892  0.43801  1.0000
  H   H1521     1.0  0.88411  0.34560  0.40448  1.0000
  H   H1522     1.0  0.85869  0.31522  0.39220  1.0000
  C   C1900     1.0  0.68542  0.28167  0.31029  1.0000
  C   C1901     1.0  0.69653  0.26950  0.33010  1.0000
  C   C1902     1.0  0.72091  0.27172  0.33317  1.0000
  C   C1903     1.0  0.73446  0.28668  0.31681  1.0000
  C   C1904     1.0  0.72325  0.29915  0.29718  1.0000
  C   C1905     1.0  0.69903  0.29627  0.29361  1.0000
  H   H1523     1.0  0.68633  0.25811  0.34312  1.0000
  H   H1524     1.0  0.72898  0.26223  0.34857  1.0000
  H   H1525     1.0  0.73335  0.31121  0.28477  1.0000
  H   H1526     1.0  0.69071  0.30586  0.27836  1.0000
  C   C1906     1.0  0.55279  0.41101  0.41109  1.0000
  C   C1907     1.0  0.54710  0.42189  0.38836  1.0000
  C   C1908     1.0  0.55014  0.44650  0.38201  1.0000
  C   C1909     1.0  0.55920  0.46039  0.39828  1.0000
  C   C1910     1.0  0.56517  0.44942  0.42090  1.0000
  C   C1911     1.0  0.56184  0.42489  0.42733  1.0000
  H   H1527     1.0  0.54015  0.41131  0.37569  1.0000
  H   H1528     1.0  0.54598  0.45456  0.36433  1.0000
  H   H1529     1.0  0.57233  0.45996  0.43353  1.0000
  H   H1530     1.0  0.56659  0.41668  0.44474  1.0000
  H   H1531     1.0  0.57703  0.39695  0.24562  1.0000
  H   H1532     1.0  0.68662  0.35427  0.41020  1.0000
  H   H1533     1.0  0.60295  0.23807  0.34119  1.0000
  S   S267      1.0  0.55966  0.32739  0.46961  1.0000
  H   H1534     1.0  0.58720  0.47868  0.01556  1.0000
  C   C1912     1.0  0.66230  0.41008  0.19681  1.0000
  S   S268      1.0  0.67314  0.24100  0.19776  1.0000
  C   C1913     1.0  0.65611  0.38863  0.20978  1.0000
  H   H1535     1.0  0.66114  0.25590  0.44667  1.0000
  H   H1536     1.0  0.65407  0.28863  0.47572  1.0000
  C   C1914     1.0  0.61703  0.36676  0.44501  1.0000
  C   C1915     1.0  0.73153  0.30910  0.37662  1.0000
  H   H1537     1.0  0.71439  0.35620  0.08428  1.0000
  H   H1538     1.0  0.60824  0.32418  0.16129  1.0000
  C   C1916     1.0  0.66188  0.28092  0.41444  1.0000
  C   C1917     1.0  0.57172  0.23311  0.32291  1.0000
  C   C1918     1.0  0.64749  0.24083  0.41730  1.0000
  P   P65       1.0  0.67481  0.30477  0.42762  1.0000
  H   H1539     1.0  0.81284  0.27641  0.29297  1.0000
  C   C1919     1.0  0.78323  0.25705  0.18041  1.0000
  C   C1920     1.0  0.82796  0.30947  0.44444  1.0000
  H   H1540     1.0  0.64328  0.38918  0.22553  1.0000
  H   H1541     1.0  0.50172  0.27483  0.36788  1.0000
  H   H1542     1.0  0.51746  0.42043  0.20333  1.0000
  Fe  Fe132     1.0  0.77717  0.23934  0.39775  1.0000
  H   H1543     1.0  0.54536  0.28094  0.28027  1.0000
  H   H1544     1.0  0.94817  0.30434  0.38093  1.0000
  H   H1545     1.0  0.66100  0.30026  0.37889  1.0000
  C   C1921     1.0  0.68175  0.36538  0.18112  1.0000
  C   C1922     1.0  0.96734  0.29889  0.37955  1.0000
  C   C1923     1.0  0.67344  0.28665  0.47596  1.0000
  H   H1546     1.0  0.71055  0.26645  0.23029  1.0000
  C   C1924     1.0  0.53807  0.40510  0.32240  1.0000
  H   H1547     1.0  0.54216  0.24705  0.43508  1.0000
  H   H1548     1.0  0.96310  0.43255  0.46375  1.0000
  C   C1925     1.0  0.48340  0.27377  0.40347  1.0000
  C   C1926     1.0  0.95086  0.23276  0.38738  1.0000
  H   H1549     1.0  0.58606  0.25331  0.42357  1.0000
  C   C1927     1.0  0.77936  0.24263  0.45886  1.0000
  C   C1928     1.0  0.52824  0.24804  0.44975  1.0000
  H   H1550     1.0  0.64383  0.26803  0.36046  1.0000
  C   C1929     1.0  0.65629  0.28445  0.14734  1.0000
  C   C1930     1.0  0.58367  0.23659  0.34310  1.0000
  H   H1551     1.0  0.59979  0.29423  0.42477  1.0000
  P   P66       1.0  0.50032  0.36171  0.27306  1.0000
  C   C1931     1.0  0.73510  0.25634  0.17108  1.0000
  C   C1932     1.0  0.73604  0.31976  0.22762  1.0000
  H   H1552     1.0  0.48661  0.29212  0.40633  1.0000
  C   C1933     1.0  0.66933  0.32021  0.16258  1.0000
  C   C1934     1.0  0.48890  0.23970  0.37858  1.0000
  C   C1935     1.0  0.79139  0.24122  0.24287  1.0000
  P   P67       1.0  0.69347  0.33630  0.17122  1.0000
  H   H1553     1.0  0.95739  0.47719  0.45776  1.0000
  H   H1554     1.0  0.82791  0.27090  0.44510  1.0000
  C   C1936     1.0  0.65183  0.32868  0.43459  1.0000
  H   H1555     1.0  0.49394  0.41477  0.27609  1.0000
  C   C1937     1.0  0.50626  0.47705  0.21745  1.0000
  H   H1556     1.0  0.48966  0.35476  0.08170  1.0000
  H   H1557     1.0  0.78646  0.28082  0.14780  1.0000
  H   H1558     1.0  0.61231  0.30681  0.46313  1.0000
  C   C1938     1.0  0.65444  0.34330  0.45329  1.0000
  C   C1939     1.0  0.74374  0.24320  0.19155  1.0000
  C   C1940     1.0  0.67474  0.29770  0.15304  1.0000
  H   H1559     1.0  0.83110  0.34710  0.44812  1.0000
  H   H1560     1.0  0.81853  0.31281  0.42814  1.0000
  S   S269      1.0  0.56578  0.23586  0.25957  1.0000
  C   C1941     1.0  0.64242  0.24412  0.39306  1.0000
  C   C1942     1.0  0.92592  0.23427  0.38621  1.0000
  H   H1561     1.0  0.52797  0.45546  0.24284  1.0000
  Fe  Fe133     1.0  0.54632  0.36551  0.45770  1.0000
  H   H1562     1.0  0.63878  0.37293  0.47343  1.0000
  C   C1943     1.0  0.64523  0.32995  0.16479  1.0000
  C   C1944     1.0  0.59943  0.28181  0.44082  1.0000
  C   C1945     1.0  0.80718  0.26657  0.27885  1.0000
  C   C1946     1.0  0.69737  0.31647  0.40571  1.0000
  H   H1563     1.0  0.81177  0.23179  0.29901  1.0000
  C   C1947     1.0  0.71434  0.33976  0.14477  1.0000
  H   H1564     1.0  0.71748  0.36940  0.37964  1.0000
  H   H1565     1.0  0.66966  0.33994  0.46422  1.0000
  H   H1566     1.0  0.50002  0.45784  0.47260  1.0000
  H   H1567     1.0  0.91674  0.24993  0.37691  1.0000
  C   C1948     1.0  0.71334  0.29129  0.45645  1.0000
  C   C1949     1.0  0.75502  0.33687  0.12529  1.0000
  C   C1950     1.0  0.62684  0.31677  0.15886  1.0000
  H   H1568     1.0  0.74851  0.32873  0.23683  1.0000
  H   H1569     1.0  0.71338  0.28095  0.39735  1.0000
  H   H1570     1.0  0.55174  0.37007  0.27209  1.0000
  C   C1951     1.0  0.61440  0.35250  0.42626  1.0000
  C   C1952     1.0  0.77445  0.27053  0.16014  1.0000
  C   C1953     1.0  0.71491  0.28459  0.22393  1.0000
  H   H1571     1.0  0.71653  0.25551  0.16739  1.0000
  C   C1954     1.0  0.71389  0.30033  0.39355  1.0000
  H   H1572     1.0  0.65261  0.38493  0.40167  1.0000
  H   H1573     1.0  0.97061  0.23942  0.45705  1.0000
  C   C1955     1.0  0.52451  0.26870  0.46281  1.0000
  H   H1574     1.0  0.69318  0.29009  0.15064  1.0000
  H   H1575     1.0  0.74436  0.29656  0.36754  1.0000
  H   H1576     1.0  0.77422  0.33271  0.12641  1.0000
  H   H1577     1.0  0.78565  0.27650  0.22345  1.0000
  C   C1956     1.0  0.79183  0.26644  0.23953  1.0000
  H   H1578     1.0  0.50557  0.34272  0.22546  1.0000
  H   H1579     1.0  0.74641  0.34045  0.35803  1.0000
  C   C1957     1.0  0.70550  0.34758  0.12232  1.0000
  C   C1958     1.0  0.60664  0.28886  0.46230  1.0000
  H   H1580     1.0  0.58188  0.23178  0.30553  1.0000
  H   H1581     1.0  0.61798  0.28351  0.14638  1.0000
  C   C1959     1.0  0.70360  0.29662  0.20438  1.0000
  C   C1960     1.0  0.65697  0.28392  0.38998  1.0000
  C   C1961     1.0  0.68810  0.38701  0.16827  1.0000
  H   H1582     1.0  0.63639  0.42746  0.40535  1.0000
  C   C1962     1.0  0.53374  0.23247  0.34773  1.0000
  C   C1963     1.0  0.71638  0.35014  0.38350  1.0000
  C   C1964     1.0  0.49201  0.26388  0.38181  1.0000
  C   C1965     1.0  0.97446  0.46843  0.46295  1.0000
  H   H1583     1.0  0.62964  0.32332  0.40582  1.0000
  H   H1584     1.0  0.66055  0.26658  0.14110  1.0000
  C   C1966     1.0  0.75038  0.27012  0.15544  1.0000
  C   C1967     1.0  0.49278  0.25774  0.31036  1.0000
  C   C1968     1.0  0.55824  0.39651  0.24254  1.0000
  C   C1969     1.0  0.83329  0.28578  0.45403  1.0000
  H   H1585     1.0  0.55968  0.42312  0.21202  1.0000
  C   C1970     1.0  0.75757  0.23319  0.45629  1.0000
  C   C1971     1.0  0.54818  0.30057  0.31128  1.0000
  C   C1972     1.0  0.54851  0.41121  0.22356  1.0000
  H   H1586     1.0  0.51975  0.31316  0.25973  1.0000
  H   H1587     1.0  0.58026  0.23914  0.38160  1.0000
  C   C1973     1.0  0.73924  0.33430  0.14611  1.0000
  C   C1974     1.0  0.51023  0.39430  0.23335  1.0000
  C   C1975     1.0  0.63711  0.36227  0.45841  1.0000
  H   H1588     1.0  0.74035  0.28642  0.25030  1.0000
  C   C1976     1.0  0.76784  0.24350  0.19641  1.0000
  H   H1589     1.0  0.50597  0.46278  0.20561  1.0000
  C   C1977     1.0  0.52722  0.34056  0.31059  1.0000
  C   C1978     1.0  0.70822  0.32040  0.19634  1.0000
  H   H1590     1.0  0.49173  0.39363  0.22935  1.0000
  C   C1979     1.0  0.73144  0.29596  0.23530  1.0000
  H   H1591     1.0  0.74363  0.28015  0.13951  1.0000
  H   H1592     1.0  0.55368  0.37689  0.34607  1.0000
  C   C1980     1.0  0.97953  0.29427  0.40049  1.0000
  C   C1981     1.0  0.64715  0.26566  0.37943  1.0000
  H   H1593     1.0  0.72788  0.35056  0.20272  1.0000
  C   C1982     1.0  0.52547  0.31591  0.27725  1.0000
  C   C1983     1.0  0.48423  0.24006  0.32768  1.0000
  C   C1984     1.0  0.68825  0.29322  0.45519  1.0000
  H   H1594     1.0  0.79971  0.29853  0.25526  1.0000
  C   C1985     1.0  0.51971  0.37988  0.25285  1.0000
  C   C1986     1.0  0.54009  0.29753  0.28883  1.0000
  H   H1595     1.0  0.75834  0.34678  0.08691  1.0000
  H   H1596     1.0  0.52741  0.43496  0.29719  1.0000
  C   C1987     1.0  0.72134  0.35011  0.10155  1.0000
  C   C1988     1.0  0.51874  0.33756  0.28814  1.0000
  C   C1989     1.0  0.79974  0.27904  0.25752  1.0000
  C   C1990     1.0  0.59163  0.25882  0.44019  1.0000
  H   H1597     1.0  0.80212  0.25683  0.18346  1.0000
  H   H1598     1.0  0.51030  0.26406  0.31114  1.0000
  H   H1599     1.0  0.89658  0.27287  0.47077  1.0000
  C   C1991     1.0  0.54388  0.38100  0.25728  1.0000
  H   H1600     1.0  0.52019  0.40413  0.33143  1.0000
  C   C1992     1.0  0.67838  0.40928  0.17615  1.0000
  H   H1601     1.0  0.73860  0.23973  0.25298  1.0000
  H   H1602     1.0  0.65448  0.42732  0.20267  1.0000
  C   C1993     1.0  0.73271  0.33392  0.37139  1.0000
  H   H1603     1.0  0.74659  0.32790  0.16305  1.0000
  C   C1994     1.0  0.49157  0.25468  0.23104  1.0000
  H   H1604     1.0  0.69084  0.28733  0.19613  1.0000
  C   C1995     1.0  0.54175  0.32210  0.32215  1.0000
  H   H1605     1.0  0.72540  0.29617  0.44090  1.0000
  H   H1606     1.0  0.55969  0.28634  0.32004  1.0000
  H   H1607     1.0  0.53564  0.28354  0.45828  1.0000
  H   H1608     1.0  0.49062  0.38487  0.11164  1.0000
  C   C1996     1.0  0.63999  0.35315  0.26880  1.0000
  C   C1997     1.0  0.66436  0.35349  0.27221  1.0000
  C   C1998     1.0  0.67120  0.36080  0.29376  1.0000
  C   C1999     1.0  0.65366  0.36786  0.31187  1.0000
  C   C2000     1.0  0.62910  0.36765  0.30850  1.0000
  C   C2001     1.0  0.62242  0.36015  0.28681  1.0000
  P   P68       1.0  0.60614  0.37408  0.33253  1.0000
  C   C2002     1.0  0.59763  0.34596  0.34823  1.0000
  C   C2003     1.0  0.61674  0.39159  0.35465  1.0000
  C   C2004     1.0  0.63302  0.38056  0.37094  1.0000
  C   C2005     1.0  0.64033  0.39357  0.38894  1.0000
  C   C2006     1.0  0.63120  0.41753  0.39106  1.0000
  C   C2007     1.0  0.61503  0.42865  0.37497  1.0000
  C   C2008     1.0  0.60780  0.41581  0.35684  1.0000
  C   C2009     1.0  0.60485  0.32365  0.33876  1.0000
  C   C2010     1.0  0.59833  0.30213  0.35144  1.0000
  C   C2011     1.0  0.58462  0.30266  0.37365  1.0000
  C   C2012     1.0  0.57753  0.32476  0.38327  1.0000
  C   C2013     1.0  0.58416  0.34627  0.37067  1.0000
  C   C2014     1.0  0.58069  0.39145  0.31980  1.0000
  C   C2015     1.0  0.58457  0.40900  0.30044  1.0000
  C   C2016     1.0  0.56533  0.42445  0.29223  1.0000
  C   C2017     1.0  0.55724  0.38960  0.33067  1.0000
  H   H1609     1.0  0.63467  0.34701  0.25235  1.0000
  H   H1610     1.0  0.67794  0.34767  0.25834  1.0000
  H   H1611     1.0  0.69013  0.36054  0.29661  1.0000
  H   H1612     1.0  0.65945  0.37314  0.32846  1.0000
  H   H1613     1.0  0.60363  0.35913  0.28401  1.0000
  H   H1614     1.0  0.63979  0.36181  0.36994  1.0000
  H   H1615     1.0  0.60768  0.44717  0.37682  1.0000
  H   H1616     1.0  0.59486  0.42488  0.34504  1.0000
  H   H1617     1.0  0.61569  0.32257  0.32173  1.0000
  H   H1618     1.0  0.60410  0.28508  0.34390  1.0000
  H   H1619     1.0  0.57950  0.28602  0.38344  1.0000
  H   H1620     1.0  0.56690  0.32541  0.40053  1.0000
  H   H1621     1.0  0.57873  0.36327  0.37840  1.0000
  H   H1622     1.0  0.60257  0.41140  0.29227  1.0000
  H   H1623     1.0  0.56841  0.43847  0.27775  1.0000
  H   H1624     1.0  0.66074  0.34986  0.21216  1.0000
  H   H1625     1.0  0.70041  0.38686  0.15218  1.0000
  H   H1626     1.0  0.64032  0.34759  0.17120  1.0000
  C   C2018     1.0  0.66601  0.36637  0.20214  1.0000
  C   C2019     1.0  0.63233  0.29392  0.15039  1.0000
  H   H1627     1.0  0.68314  0.42595  0.16610  1.0000
  C   C2020     1.0  0.72432  0.33204  0.20835  1.0000
  C   C2021     1.0  0.57088  0.23743  0.36575  1.0000
  S   S270      1.0  0.74821  0.23127  0.42739  1.0000
  C   C2022     1.0  0.49659  0.23309  0.24518  1.0000
  H   H1628     1.0  0.73157  0.23259  0.20329  1.0000
  H   H1629     1.0  0.55086  0.47222  0.99034  1.0000
  C   C2023     1.0  0.54609  0.23516  0.36813  1.0000
  H   H1630     1.0  0.50747  0.46683  0.99806  1.0000
  H   H1631     1.0  0.48573  0.28019  0.27770  1.0000
  H   H1632     1.0  0.96984  0.29625  0.41801  1.0000
  C   C2024     1.0  0.54690  0.23074  0.32519  1.0000
  H   H1633     1.0  0.79052  0.24862  0.44300  1.0000
  C   C2025     1.0  0.97766  0.44327  0.46637  1.0000
  C   C2026     1.0  0.48493  0.40600  0.29203  1.0000
  Fe  Fe134     1.0  0.51529  0.47353  0.10962  1.0000
  Fe  Fe135     1.0  0.48665  0.47872  0.15784  1.0000
  C   C2027     1.0  0.59084  0.24291  0.46109  1.0000
  C   C2028     1.0  0.51865  0.47295  0.23847  1.0000
  C   C2029     1.0  0.51760  0.46183  0.47704  1.0000
  H   H1634     1.0  0.51967  0.23129  0.16852  1.0000
  C   C2030     1.0  0.48488  0.38069  0.29530  1.0000
  H   H1635     1.0  0.97044  0.30042  0.34069  1.0000
  C   C2031     1.0  0.84784  0.32431  0.47634  1.0000
  C   C2032     1.0  0.84594  0.28128  0.47474  1.0000
  C   C2033     1.0  0.97994  0.29674  0.35692  1.0000
  S   S271      1.0  0.50991  0.36286  0.47759  1.0000
  H   H1636     1.0  0.85527  0.33849  0.70998  1.0000
  H   H1637     1.0  0.91740  0.37597  0.64444  1.0000
  H   H1638     1.0  0.97525  0.33666  0.66173  1.0000
  S   S272      1.0  0.97304  0.32228  0.48259  1.0000
  C   C2034     1.0  0.96900  0.25586  0.53449  1.0000
  H   H1639     1.0  0.89164  0.25875  0.54817  1.0000
  C   C2035     1.0  0.96091  0.31363  0.63861  1.0000
  S   S273      1.0  0.50075  0.29551  0.49851  1.0000
  Fe  Fe136     1.0  0.90373  0.29800  0.75121  1.0000
  S   S274      1.0  0.92304  0.28542  0.71667  1.0000
  S   S275      1.0  0.90769  0.33653  0.76123  1.0000
  Fe  Fe137     1.0  0.87764  0.25088  0.76089  1.0000
  H   H1640     1.0  0.66616  0.23877  0.77430  1.0000
  Fe  Fe138     1.0  0.92897  0.24981  0.73836  1.0000
  C   C2036     1.0  0.65642  0.30406  0.67645  1.0000
  Fe  Fe139     1.0  0.88750  0.27257  0.70927  1.0000
  S   S276      1.0  0.87525  0.27376  0.67130  1.0000
  S   S277      1.0  0.91161  0.26272  0.77337  1.0000
  S   S278      1.0  0.86749  0.28755  0.74207  1.0000
  Fe  Fe140     1.0  0.75303  0.26150  0.61301  1.0000
  C   C2037     1.0  0.96259  0.36963  0.80362  1.0000
  S   S279      1.0  0.77006  0.28752  0.63445  1.0000
  Fe  Fe141     1.0  0.70674  0.25332  0.58956  1.0000
  C   C2038     1.0  0.87094  0.28256  0.59892  1.0000
  S   S280      1.0  0.66631  0.26358  0.58774  1.0000
  C   C2039     1.0  0.95427  0.27741  0.53595  1.0000
  C   C2040     1.0  0.96706  0.41519  0.52551  1.0000
  H   H1641     1.0  0.95034  0.43356  0.75902  1.0000
  H   H1642     1.0  0.89910  0.32489  0.47774  1.0000
  S   S281      1.0  0.73815  0.27520  0.57752  1.0000
  C   C2041     1.0  0.96494  0.34470  0.80038  1.0000
  C   C2042     1.0  0.72329  0.28302  0.47816  1.0000
  H   H1643     1.0  0.69582  0.31330  0.79507  1.0000
  S   S282      1.0  0.53878  0.33979  0.52511  1.0000
  Fe  Fe142     1.0  0.52473  0.32631  0.49255  1.0000
  Fe  Fe143     1.0  0.52628  0.37662  0.50832  1.0000
  S   S283      1.0  0.50690  0.40756  0.52826  1.0000
  Fe  Fe144     1.0  0.57322  0.34295  0.50131  1.0000
  S   S284      1.0  0.61278  0.33441  0.50897  1.0000
  C   C2043     1.0  0.95888  0.42670  0.62250  1.0000
  H   H1644     1.0  0.88359  0.31584  0.55523  1.0000
  C   C2044     1.0  0.94612  0.41649  0.60615  1.0000
  H   H1645     1.0  0.96646  0.42710  0.65943  1.0000
  P   P69       1.0  0.94237  0.28332  0.60895  1.0000
  C   C2045     1.0  0.95683  0.41854  0.64702  1.0000
  C   C2046     1.0  0.81030  0.28400  0.57354  1.0000
  H   H1646     1.0  0.89030  0.32095  0.68514  1.0000
  C   C2047     1.0  0.65157  0.28430  0.56652  1.0000
  C   C2048     1.0  0.62642  0.28478  0.56593  1.0000
  C   C2049     1.0  0.61413  0.30017  0.54868  1.0000
  C   C2050     1.0  0.62687  0.31549  0.53199  1.0000
  C   C2051     1.0  0.65191  0.31544  0.53299  1.0000
  C   C2052     1.0  0.66421  0.29998  0.55017  1.0000
  H   H1647     1.0  0.61640  0.27295  0.57870  1.0000
  H   H1648     1.0  0.59486  0.30012  0.54824  1.0000
  H   H1649     1.0  0.66193  0.32726  0.52020  1.0000
  H   H1650     1.0  0.68350  0.30000  0.55052  1.0000
  H   H1651     1.0  0.95674  0.41054  0.51135  1.0000
  H   H1652     1.0  0.80358  0.25167  0.48396  1.0000
  C   C2053     1.0  0.91123  0.35133  0.68646  1.0000
  C   C2054     1.0  0.82185  0.26401  0.56261  1.0000
  H   H1653     1.0  0.85632  0.37876  0.72535  1.0000
  C   C2055     1.0  0.84479  0.27536  0.66443  1.0000
  C   C2056     1.0  0.82867  0.29499  0.67054  1.0000
  C   C2057     1.0  0.80595  0.29841  0.66115  1.0000
  C   C2058     1.0  0.79875  0.28196  0.64609  1.0000
  C   C2059     1.0  0.81467  0.26203  0.64036  1.0000
  C   C2060     1.0  0.83768  0.25895  0.64924  1.0000
  H   H1654     1.0  0.83415  0.30815  0.68160  1.0000
  H   H1655     1.0  0.79391  0.31399  0.66544  1.0000
  H   H1656     1.0  0.80946  0.24928  0.62869  1.0000
  C   C2061     1.0  0.97431  0.34725  0.60078  1.0000
  H   H1657     1.0  0.97527  0.27351  0.73791  1.0000
  C   C2062     1.0  0.94385  0.38410  0.79310  1.0000
  C   C2063     1.0  0.92748  0.37367  0.78004  1.0000
  C   C2064     1.0  0.92957  0.34868  0.77717  1.0000
  C   C2065     1.0  0.94864  0.33429  0.78721  1.0000
  H   H1658     1.0  0.58634  0.44953  0.92029  1.0000
  C   C2066     1.0  0.70841  0.27588  0.49851  1.0000
  H   H1659     1.0  0.91286  0.38502  0.77235  1.0000
  H   H1660     1.0  0.95057  0.31508  0.78521  1.0000
  S   S285      1.0  0.56219  0.38127  0.48756  1.0000
  H   H1661     1.0  0.79581  0.28156  0.58754  1.0000
  H   H1662     1.0  0.92796  0.46790  0.79893  1.0000
  H   H1663     1.0  0.92343  0.35830  0.48258  1.0000
  C   C2067     1.0  0.69880  0.33059  0.75888  1.0000
  H   H1664     1.0  0.92866  0.37042  0.52348  1.0000
  H   H1665     1.0  0.96048  0.32465  0.57737  1.0000
  C   C2068     1.0  0.56292  0.47068  0.49006  1.0000
  C   C2069     1.0  0.97522  0.24222  0.55566  1.0000
  H   H1666     1.0  0.93624  0.47386  0.74037  1.0000
  H   H1667     1.0  0.64718  0.45532  0.96074  1.0000
  C   C2070     1.0  0.71826  0.28543  0.74490  1.0000
  C   C2071     1.0  0.96423  0.23688  0.80830  1.0000
  C   C2072     1.0  0.75394  0.23793  0.81162  1.0000
  Fe  Fe145     1.0  0.75620  0.24051  0.56431  1.0000
  C   C2073     1.0  0.49184  0.25077  0.48729  1.0000
  H   H1668     1.0  0.91044  0.32372  0.62796  1.0000
  C   C2074     1.0  0.60573  0.27312  0.48323  1.0000
  H   H1669     1.0  0.75573  0.26060  0.84067  1.0000
  C   C2075     1.0  0.70138  0.31101  0.77622  1.0000
  C   C2076     1.0  0.96367  0.32671  0.59587  1.0000
  H   H1670     1.0  0.84969  0.26285  0.48213  1.0000
  C   C2077     1.0  0.81698  0.30715  0.56592  1.0000
  P   P70       1.0  0.72590  0.30180  0.69605  1.0000
  C   C2078     1.0  0.71602  0.30508  0.72744  1.0000
  H   H1671     1.0  0.56022  0.27072  0.51168  1.0000
  C   C2079     1.0  0.76876  0.27284  0.70252  1.0000
  C   C2080     1.0  0.78464  0.25216  0.69987  1.0000
  S   S286      1.0  0.97991  0.36633  0.53341  1.0000
  H   H1672     1.0  0.61111  0.27904  0.49983  1.0000
  C   C2081     1.0  0.70295  0.29674  0.65432  1.0000
  C   C2082     1.0  0.70609  0.32766  0.73457  1.0000
  S   S287      1.0  0.96797  0.45518  0.82569  1.0000
  C   C2083     1.0  0.96726  0.25040  0.57828  1.0000
  H   H1673     1.0  0.64447  0.29909  0.64152  1.0000
  H   H1674     1.0  0.85960  0.27054  0.59199  1.0000
  C   C2084     1.0  0.74300  0.32741  0.68583  1.0000
  C   C2085     1.0  0.75761  0.33635  0.70169  1.0000
  C   C2086     1.0  0.77126  0.35579  0.69399  1.0000
  C   C2087     1.0  0.77050  0.36651  0.67040  1.0000
  C   C2088     1.0  0.75603  0.35783  0.65453  1.0000
  C   C2089     1.0  0.74231  0.33843  0.66218  1.0000
  H   H1675     1.0  0.88765  0.46209  0.78692  1.0000
  C   C2090     1.0  0.96573  0.43926  0.53159  1.0000
  H   H1676     1.0  0.84109  0.30707  0.61078  1.0000
  C   C2091     1.0  0.55264  0.26520  0.57294  1.0000
  C   C2092     1.0  0.62900  0.46144  0.95642  1.0000
  H   H1677     1.0  0.77476  0.28778  0.71074  1.0000
  C   C2093     1.0  0.50631  0.27004  0.48169  1.0000
  C   C2094     1.0  0.84011  0.26708  0.54407  1.0000
  C   C2095     1.0  0.67632  0.30476  0.68987  1.0000
  H   H1678     1.0  0.76985  0.25390  0.75232  1.0000
  C   C2096     1.0  0.91572  0.23406  0.52817  1.0000
  H   H1679     1.0  0.67311  0.30791  0.70878  1.0000
  H   H1680     1.0  0.69118  0.34808  0.76426  1.0000
  H   H1681     1.0  0.71318  0.27334  0.78271  1.0000
  H   H1682     1.0  0.63832  0.30678  0.68499  1.0000
  H   H1683     1.0  0.75866  0.32818  0.71997  1.0000
  H   H1684     1.0  0.78263  0.36240  0.70625  1.0000
  H   H1685     1.0  0.78125  0.38141  0.66434  1.0000
  H   H1686     1.0  0.75565  0.36588  0.63611  1.0000
  H   H1687     1.0  0.73169  0.33197  0.64930  1.0000
  C   C2097     1.0  0.87144  0.37137  0.71402  1.0000
  C   C2098     1.0  0.75882  0.23541  0.78675  1.0000
  C   C2099     1.0  0.75895  0.25900  0.82138  1.0000
  C   C2100     1.0  0.89178  0.38428  0.70856  1.0000
  H   H1688     1.0  0.86662  0.33363  0.62857  1.0000
  C   C2101     1.0  0.93148  0.39800  0.61425  1.0000
  H   H1689     1.0  0.77936  0.29063  0.76976  1.0000
  S   S288      1.0  0.89566  0.23567  0.72755  1.0000
  H   H1690     1.0  0.81608  0.24615  0.56794  1.0000
  C   C2102     1.0  0.90624  0.34389  0.54187  1.0000
  C   C2103     1.0  0.96466  0.37168  0.69626  1.0000
  H   H1691     1.0  0.67195  0.27171  0.51291  1.0000
  H   H1692     1.0  0.97906  0.36053  0.58616  1.0000
  C   C2104     1.0  0.91182  0.37439  0.69465  1.0000
  S   S289      1.0  0.78222  0.23993  0.53105  1.0000
  C   C2105     1.0  0.85383  0.30048  0.48570  1.0000
  H   H1693     1.0  0.93463  0.30215  0.55926  1.0000
  H   H1694     1.0  0.95516  0.30127  0.65372  1.0000
  S   S290      1.0  0.71999  0.24233  0.62647  1.0000
  P   P71       1.0  0.93836  0.39075  0.68761  1.0000
  H   H1695     1.0  0.57193  0.23870  0.59622  1.0000
  C   C2106     1.0  0.95712  0.30952  0.61474  1.0000
  C   C2107     1.0  0.78673  0.24436  0.48197  1.0000
  C   C2108     1.0  0.89190  0.32518  0.53922  1.0000
  H   H1696     1.0  0.52993  0.42432  0.48167  1.0000
  C   C2109     1.0  0.92730  0.43969  0.69491  1.0000
  H   H1697     1.0  0.95521  0.24932  0.79531  1.0000
  H   H1698     1.0  0.63041  0.24018  0.54645  1.0000
  H   H1699     1.0  0.89192  0.40171  0.71561  1.0000
  H   H1700     1.0  0.72562  0.26783  0.73979  1.0000
  C   C2110     1.0  0.94801  0.25987  0.63295  1.0000
  C   C2111     1.0  0.89875  0.25401  0.53036  1.0000
  C   C2112     1.0  0.58111  0.24468  0.53468  1.0000
  H   H1701     1.0  0.94470  0.34739  0.72153  1.0000
  H   H1702     1.0  0.72076  0.29338  0.64547  1.0000
  H   H1703     1.0  0.48062  0.45406  0.53255  1.0000
  C   C2113     1.0  0.89070  0.33870  0.69154  1.0000
  C   C2114     1.0  0.94371  0.43524  0.74119  1.0000
  C   C2115     1.0  0.89113  0.26775  0.50964  1.0000
  H   H1704     1.0  0.94737  0.42311  0.58723  1.0000
  C   C2116     1.0  0.89582  0.27682  0.59836  1.0000
  C   C2117     1.0  0.68352  0.27737  0.49725  1.0000
  H   H1705     1.0  0.72117  0.25488  0.67671  1.0000
  H   H1706     1.0  0.92071  0.44179  0.67709  1.0000
  C   C2118     1.0  0.96221  0.35163  0.71322  1.0000
  C   C2119     1.0  0.87087  0.34865  0.70545  1.0000
  C   C2120     1.0  0.92717  0.46013  0.70776  1.0000
  C   C2121     1.0  0.54937  0.27399  0.54908  1.0000
  C   C2122     1.0  0.83543  0.31029  0.54754  1.0000
  H   H1707     1.0  0.80757  0.32263  0.57410  1.0000
  H   H1708     1.0  0.92165  0.39015  0.60146  1.0000
  H   H1709     1.0  0.94167  0.40321  0.79551  1.0000
  C   C2123     1.0  0.92926  0.38992  0.63879  1.0000
  P   P72       1.0  0.87037  0.29436  0.51230  1.0000
  C   C2124     1.0  0.93660  0.41700  0.70473  1.0000
  C   C2125     1.0  0.92920  0.24722  0.64476  1.0000
  C   C2126     1.0  0.94423  0.41482  0.72824  1.0000
  C   C2127     1.0  0.76707  0.25499  0.77167  1.0000
  C   C2128     1.0  0.90064  0.33021  0.49576  1.0000
  H   H1710     1.0  0.94904  0.28779  0.51956  1.0000
  H   H1711     1.0  0.57018  0.43199  0.49348  1.0000
  C   C2129     1.0  0.89978  0.31235  0.61928  1.0000
  C   C2130     1.0  0.87490  0.31813  0.61960  1.0000
  H   H1712     1.0  0.84794  0.25144  0.53509  1.0000
  C   C2131     1.0  0.97300  0.24554  0.82826  1.0000
  H   H1713     1.0  0.90874  0.34906  0.55971  1.0000
  C   C2132     1.0  0.84748  0.29019  0.53685  1.0000
  C   C2133     1.0  0.56353  0.26384  0.53001  1.0000
  C   C2134     1.0  0.86048  0.30320  0.60950  1.0000
  C   C2135     1.0  0.69986  0.30119  0.67888  1.0000
  H   H1714     1.0  0.66437  0.23799  0.73001  1.0000
  H   H1715     1.0  0.92669  0.34308  0.67623  1.0000
  H   H1716     1.0  0.70400  0.34300  0.72129  1.0000
  H   H1717     1.0  0.80263  0.25143  0.70584  1.0000
  H   H1718     1.0  0.95101  0.39747  0.73647  1.0000
  C   C2136     1.0  0.88859  0.31858  0.51607  1.0000
  C   C2137     1.0  0.77218  0.27597  0.78146  1.0000
  C   C2138     1.0  0.76831  0.27790  0.80635  1.0000
  H   H1719     1.0  0.91103  0.25063  0.63939  1.0000
  C   C2139     1.0  0.93562  0.45794  0.73077  1.0000
  C   C2140     1.0  0.73884  0.25455  0.68311  1.0000
  C   C2141     1.0  0.97132  0.25491  0.64074  1.0000
  C   C2142     1.0  0.74582  0.27440  0.69379  1.0000
  H   H1720     1.0  0.77259  0.29403  0.81398  1.0000
  C   C2143     1.0  0.94615  0.28553  0.55851  1.0000
  C   C2144     1.0  0.71109  0.28846  0.76923  1.0000
  C   C2145     1.0  0.94194  0.40012  0.65550  1.0000
  H   H1721     1.0  0.83997  0.32841  0.54141  1.0000
  C   C2146     1.0  0.68106  0.23244  0.73822  1.0000
  H   H1722     1.0  0.54170  0.27322  0.58767  1.0000
  C   C2147     1.0  0.95286  0.27233  0.57989  1.0000
  H   H1723     1.0  0.62765  0.43488  0.93087  1.0000
  C   C2148     1.0  0.91042  0.29162  0.60865  1.0000
  H   H1724     1.0  0.71620  0.26916  0.51523  1.0000
  H   H1725     1.0  0.53560  0.28851  0.54527  1.0000
  H   H1726     1.0  0.97031  0.26465  0.83097  1.0000
  C   C2149     1.0  0.75492  0.23407  0.68011  1.0000
  S   S291      1.0  0.97384  0.47545  0.55922  1.0000
  C   C2150     1.0  0.91754  0.35591  0.52148  1.0000
  H   H1727     1.0  0.90357  0.26039  0.59073  1.0000
  H   H1728     1.0  0.68567  0.29271  0.62201  1.0000
  C   C2151     1.0  0.65980  0.29978  0.65200  1.0000
  C   C2152     1.0  0.55720  0.44698  0.48899  1.0000
  H   H1729     1.0  0.95446  0.45301  0.52195  1.0000
  H   H1730     1.0  0.97009  0.44123  0.61619  1.0000
  C   C2153     1.0  0.68306  0.29619  0.64096  1.0000
  C   C2154     1.0  0.68210  0.23286  0.76314  1.0000
  C   C2155     1.0  0.56968  0.24578  0.57773  1.0000
  C   C2156     1.0  0.59475  0.45817  0.93363  1.0000
  C   C2157     1.0  0.61803  0.44997  0.93954  1.0000
  C   C2158     1.0  0.53460  0.44263  0.48237  1.0000
  C   C2159     1.0  0.89542  0.47910  0.78186  1.0000
  C   C2160     1.0  0.97197  0.33396  0.64335  1.0000
  H   H1731     1.0  0.85300  0.33950  0.48488  1.0000
  H   H1732     1.0  0.92098  0.47776  0.69968  1.0000
  C   C2161     1.0  0.91469  0.34907  0.49846  1.0000
  C   C2162     1.0  0.77220  0.23707  0.50261  1.0000
  H   H1733     1.0  0.97242  0.23950  0.59434  1.0000
  C   C2163     1.0  0.90156  0.26194  0.48684  1.0000
  C   C2164     1.0  0.59765  0.25013  0.48282  1.0000
  H   H1734     1.0  0.74263  0.28171  0.47910  1.0000
  H   H1735     1.0  0.58041  0.47404  0.49527  1.0000
  C   C2165     1.0  0.58234  0.47771  0.94473  1.0000
  C   C2166     1.0  0.58356  0.23525  0.55866  1.0000
  H   H1736     1.0  0.85022  0.24405  0.64393  1.0000
  C   C2167     1.0  0.97864  0.35082  0.62444  1.0000
  C   C2168     1.0  0.77781  0.23291  0.68843  1.0000
  H   H1737     1.0  0.97928  0.33331  0.80849  1.0000
  C   C2169     1.0  0.91855  0.24207  0.48463  1.0000
  C   C2170     1.0  0.97553  0.23807  0.66043  1.0000
  C   C2171     1.0  0.97839  0.44554  0.55043  1.0000
  H   H1738     1.0  0.97545  0.24969  0.51695  1.0000
  H   H1739     1.0  0.67365  0.23044  0.54954  1.0000
  C   C2172     1.0  0.93348  0.23041  0.66441  1.0000
  C   C2173     1.0  0.76139  0.71413  0.23651  1.0000
  C   C2174     1.0  0.80648  0.67008  0.98292  1.0000
  C   C2175     1.0  0.87255  0.70244  0.09519  1.0000
  S   S292      1.0  0.53824  0.49051  0.07846  1.0000
  Fe  Fe146     1.0  0.63618  0.68639  0.24939  1.0000
  S   S293      1.0  0.61665  0.70770  0.21964  1.0000
  S   S294      1.0  0.63450  0.64580  0.25837  1.0000
  C   C2176     1.0  0.49420  0.51798  0.22743  1.0000
  C   C2177     1.0  0.58977  0.49625  0.02124  1.0000
  S   S295      1.0  0.67226  0.69968  0.23583  1.0000
  H   H1740     1.0  0.52506  0.61239  0.36662  1.0000
  Fe  Fe147     1.0  0.52928  0.51096  0.31004  1.0000
  S   S296      1.0  0.56181  0.52428  0.32393  1.0000
  C   C2178     1.0  0.54140  0.57042  0.42705  1.0000
  H   H1741     1.0  0.50060  0.50341  0.42026  1.0000
  S   S297      1.0  0.52423  0.54814  0.36607  1.0000
  C   C2179     1.0  0.54724  0.54614  0.42306  1.0000
  Fe  Fe148     1.0  0.53855  0.55919  0.32787  1.0000
  S   S298      1.0  0.54543  0.59878  0.31810  1.0000
  Fe  Fe149     1.0  0.54461  0.51194  0.36054  1.0000
  S   S299      1.0  0.50717  0.54650  0.31132  1.0000
  S   S300      1.0  0.51378  0.49648  0.34638  1.0000
  S   S301      1.0  0.52420  0.60255  0.04565  1.0000
  C   C2180     1.0  0.52326  0.57675  0.44483  1.0000
  H   H1742     1.0  0.55831  0.57718  0.23371  1.0000
  H   H1743     1.0  0.52717  0.59332  0.13389  1.0000
  S   S302      1.0  0.77303  0.71179  0.12268  1.0000
  H   H1744     1.0  0.79821  0.66345  0.04456  1.0000
  H   H1745     1.0  0.52934  0.70136  0.99484  1.0000
  C   C2181     1.0  0.48234  0.68401  0.28206  1.0000
  S   S303      1.0  0.54766  0.65040  0.99413  1.0000
  C   C2182     1.0  0.86627  0.60025  0.98397  1.0000
  S   S304      1.0  0.91557  0.64362  0.99543  1.0000
  P   P73       1.0  0.58412  0.67329  0.36458  1.0000
  C   C2183     1.0  0.90326  0.67047  0.00845  1.0000
  C   C2184     1.0  0.87973  0.67137  0.01980  1.0000
  C   C2185     1.0  0.86849  0.69291  0.02850  1.0000
  C   C2186     1.0  0.88086  0.71373  0.02631  1.0000
  C   C2187     1.0  0.90479  0.71258  0.01596  1.0000
  C   C2188     1.0  0.91596  0.69106  0.00707  1.0000
  H   H1746     1.0  0.87007  0.65536  0.02197  1.0000
  H   H1747     1.0  0.85027  0.69340  0.03687  1.0000
  Fe  Fe150     1.0  0.49456  0.53329  0.34919  1.0000
  H   H1748     1.0  0.93419  0.69057  0.99874  1.0000
  C   C2189     1.0  0.62399  0.70616  0.42095  1.0000
  H   H1749     1.0  0.87946  0.68412  0.15419  1.0000
  H   H1750     1.0  0.55795  0.63589  0.34767  1.0000
  C   C2190     1.0  0.79467  0.66943  0.02606  1.0000
  H   H1751     1.0  0.76210  0.69119  0.03630  1.0000
  C   C2191     1.0  0.78603  0.68593  0.97849  1.0000
  H   H1752     1.0  0.58508  0.55626  0.00245  1.0000
  C   C2192     1.0  0.60926  0.63266  0.27390  1.0000
  C   C2193     1.0  0.58844  0.64685  0.28107  1.0000
  C   C2194     1.0  0.56925  0.63616  0.29471  1.0000
  C   C2195     1.0  0.57029  0.61106  0.30075  1.0000
  C   C2196     1.0  0.59085  0.59671  0.29293  1.0000
  C   C2197     1.0  0.61028  0.60751  0.27963  1.0000
  H   H1753     1.0  0.58719  0.66608  0.27609  1.0000
  H   H1754     1.0  0.55347  0.64745  0.30037  1.0000
  H   H1755     1.0  0.59191  0.57737  0.29735  1.0000
  H   H1756     1.0  0.62630  0.59636  0.27400  1.0000
  H   H1757     1.0  0.65712  0.66364  0.30852  1.0000
  C   C2198     1.0  0.74175  0.66935  0.24575  1.0000
  H   H1758     1.0  0.53324  0.61645  0.16836  1.0000
  C   C2199     1.0  0.51335  0.48458  0.99237  1.0000
  C   C2200     1.0  0.73685  0.70867  0.15959  1.0000
  C   C2201     1.0  0.48861  0.64542  0.30532  1.0000
  H   H1759     1.0  0.75041  0.69868  0.17009  1.0000
  C   C2202     1.0  0.58683  0.51711  0.00530  1.0000
  C   C2203     1.0  0.81075  0.66200  0.00691  1.0000
  H   H1760     1.0  0.78674  0.69560  0.21109  1.0000
  C   C2204     1.0  0.50680  0.51397  0.24838  1.0000
  H   H1761     1.0  0.92356  0.62220  0.04471  1.0000
  Fe  Fe151     1.0  0.65225  0.72299  0.20807  1.0000
  H   H1762     1.0  0.82669  0.65040  0.01096  1.0000
  C   C2205     1.0  0.53105  0.52135  0.06933  1.0000
  C   C2206     1.0  0.52325  0.53817  0.08616  1.0000
  C   C2207     1.0  0.52055  0.56301  0.07862  1.0000
  C   C2208     1.0  0.52550  0.57116  0.05423  1.0000
  C   C2209     1.0  0.53206  0.55424  0.03729  1.0000
  C   C2210     1.0  0.53482  0.52945  0.04485  1.0000
  H   H1763     1.0  0.52017  0.53212  0.10509  1.0000
  H   H1764     1.0  0.51512  0.57597  0.09180  1.0000
  H   H1765     1.0  0.53557  0.56025  0.01845  1.0000
  H   H1766     1.0  0.54030  0.51647  0.03177  1.0000
  C   C2211     1.0  0.59679  0.52066  0.05333  1.0000
  H   H1767     1.0  0.52502  0.68573  0.32149  1.0000
  C   C2212     1.0  0.77158  0.69408  0.22443  1.0000
  H   H1768     1.0  0.50714  0.52822  0.26021  1.0000
  C   C2213     1.0  0.59385  0.54151  0.03763  1.0000
  H   H1769     1.0  0.85867  0.70846  0.08306  1.0000
  H   H1770     1.0  0.64177  0.69197  0.14879  1.0000
  C   C2214     1.0  0.91488  0.69229  0.10141  1.0000
  C   C2215     1.0  0.88432  0.68875  0.13519  1.0000
  C   C2216     1.0  0.71305  0.71265  0.17004  1.0000
  C   C2217     1.0  0.52565  0.72296  0.16418  1.0000
  H   H1771     1.0  0.50412  0.70488  0.14252  1.0000
  H   H1772     1.0  0.92207  0.68022  0.13839  1.0000
  C   C2218     1.0  0.52835  0.53060  0.97870  1.0000
  H   H1773     1.0  0.65796  0.61909  0.31023  1.0000
  C   C2219     1.0  0.56961  0.69682  0.34508  1.0000
  C   C2220     1.0  0.54974  0.66032  0.40200  1.0000
  H   H1774     1.0  0.49458  0.66108  0.04617  1.0000
  C   C2221     1.0  0.50588  0.65480  0.31756  1.0000
  H   H1775     1.0  0.59979  0.72199  0.36742  1.0000
  H   H1776     1.0  0.48138  0.61539  0.24136  1.0000
  H   H1777     1.0  0.73389  0.65220  0.24908  1.0000
  H   H1778     1.0  0.55596  0.67402  0.41193  1.0000
  H   H1779     1.0  0.59637  0.62035  0.36162  1.0000
  H   H1780     1.0  0.71594  0.68757  0.27061  1.0000
  H   H1781     1.0  0.55098  0.58423  0.41638  1.0000
  C   C2222     1.0  0.49374  0.49946  0.21208  1.0000
  H   H1782     1.0  0.56873  0.71793  0.28583  1.0000
  H   H1783     1.0  0.59724  0.64232  0.12928  1.0000
  H   H1784     1.0  0.53974  0.50950  0.43327  1.0000
  C   C2223     1.0  0.51741  0.71742  0.99143  1.0000
  C   C2224     1.0  0.74142  0.71144  0.25320  1.0000
  C   C2225     1.0  0.56042  0.65570  0.37888  1.0000
  H   H1785     1.0  0.52463  0.70474  0.22885  1.0000
  C   C2226     1.0  0.93779  0.62940  0.05311  1.0000
  H   H1786     1.0  0.70840  0.70570  0.18844  1.0000
  H   H1787     1.0  0.62490  0.67072  0.43990  1.0000
  H   H1788     1.0  0.91469  0.72847  0.01467  1.0000
  H   H1789     1.0  0.90126  0.70495  0.06720  1.0000
  C   C2227     1.0  0.53190  0.62581  0.37654  1.0000
  P   P74       1.0  0.94592  0.68896  0.08897  1.0000
  S   S305      1.0  0.53302  0.48470  0.28104  1.0000
  C   C2228     1.0  0.59477  0.49805  0.04514  1.0000
  C   C2229     1.0  0.93310  0.65092  0.06445  1.0000
  H   H1790     1.0  0.53617  0.60048  0.26577  1.0000
  C   C2230     1.0  0.51932  0.70297  0.15350  1.0000
  C   C2231     1.0  0.77003  0.69334  0.99767  1.0000
  C   C2232     1.0  0.74316  0.71756  0.13564  1.0000
  H   H1791     1.0  0.50681  0.62019  0.40767  1.0000
  H   H1792     1.0  0.84751  0.69799  0.12657  1.0000
  C   C2233     1.0  0.54534  0.72057  0.17821  1.0000
  C   C2234     1.0  0.61687  0.72050  0.40050  1.0000
  C   C2235     1.0  0.90852  0.68654  0.12611  1.0000
  C   C2236     1.0  0.64397  0.65431  0.32043  1.0000
  H   H1793     1.0  0.62553  0.49001  0.98023  1.0000
  H   H1794     1.0  0.49067  0.54282  0.98113  1.0000
  H   H1795     1.0  0.48473  0.53537  0.22309  1.0000
  H   H1796     1.0  0.59040  0.61961  0.09500  1.0000
  C   C2237     1.0  0.62598  0.66747  0.33403  1.0000
  C   C2238     1.0  0.86632  0.69659  0.11970  1.0000
  C   C2239     1.0  0.51873  0.49129  0.25410  1.0000
  C   C2240     1.0  0.59915  0.68648  0.38683  1.0000
  C   C2241     1.0  0.52170  0.63015  0.39970  1.0000
  H   H1797     1.0  0.52730  0.66533  0.14858  1.0000
  H   H1798     1.0  0.91517  0.66000  0.06449  1.0000
  C   C2242     1.0  0.55840  0.69816  0.18201  1.0000
  C   C2243     1.0  0.55253  0.71399  0.35511  1.0000
  C   C2244     1.0  0.58867  0.53978  0.01379  1.0000
  C   C2245     1.0  0.97668  0.71043  0.11594  1.0000
  H   H1799     1.0  0.49164  0.68112  0.19497  1.0000
  C   C2246     1.0  0.95175  0.71329  0.06607  1.0000
  H   H1800     1.0  0.59968  0.52208  0.07211  1.0000
  P   P75       1.0  0.50116  0.51060  0.47207  1.0000
  C   C2247     1.0  0.95156  0.66068  0.07494  1.0000
  C   C2248     1.0  0.49986  0.69322  0.29415  1.0000
  H   H1801     1.0  0.52945  0.64503  0.25946  1.0000
  H   H1802     1.0  0.57332  0.69662  0.19335  1.0000
  C   C2249     1.0  0.50383  0.52738  0.98299  1.0000
  C   C2250     1.0  0.77431  0.68507  0.02143  1.0000
  C   C2251     1.0  0.56405  0.71680  0.30515  1.0000
  Fe  Fe152     1.0  0.53183  0.61513  0.00595  1.0000
  C   C2252     1.0  0.64451  0.62916  0.32147  1.0000
  C   C2253     1.0  0.51647  0.53436  0.45443  1.0000
  H   H1803     1.0  0.51881  0.59553  0.44813  1.0000
  H   H1804     1.0  0.88018  0.59567  0.99638  1.0000
  H   H1805     1.0  0.55540  0.59521  0.09703  1.0000
  C   C2254     1.0  0.89669  0.70040  0.08617  1.0000
  C   C2255     1.0  0.96094  0.61757  0.05187  1.0000
  C   C2256     1.0  0.60683  0.67204  0.40714  1.0000
  C   C2257     1.0  0.62732  0.61711  0.33646  1.0000
  C   C2258     1.0  0.76174  0.67179  0.22905  1.0000
  H   H1806     1.0  0.66691  0.67008  0.17937  1.0000
  H   H1807     1.0  0.57313  0.59816  0.19503  1.0000
  H   H1808     1.0  0.54391  0.66633  0.22100  1.0000
  C   C2259     1.0  0.60923  0.63022  0.35003  1.0000
  H   H1809     1.0  0.65001  0.63838  0.20841  1.0000
  C   C2260     1.0  0.96979  0.70979  0.04722  1.0000
  H   H1810     1.0  0.76938  0.65649  0.21940  1.0000
  H   H1811     1.0  0.59445  0.55913  0.04422  1.0000
  C   C2261     1.0  0.52571  0.72215  0.23553  1.0000
  C   C2262     1.0  0.57496  0.69816  0.31994  1.0000
  H   H1812     1.0  0.73315  0.72681  0.26223  1.0000
  Fe  Fe153     1.0  0.95458  0.63653  0.98033  1.0000
  C   C2263     1.0  0.55079  0.63892  0.36596  1.0000
  C   C2264     1.0  0.73166  0.68918  0.25790  1.0000
  H   H1813     1.0  0.60808  0.62907  0.20753  1.0000
  H   H1814     1.0  0.60349  0.65311  0.40967  1.0000
  C   C2265     1.0  0.97487  0.64876  0.07338  1.0000
  H   H1815     1.0  0.56127  0.54105  0.40927  1.0000
  C   C2266     1.0  0.61905  0.68192  0.42423  1.0000
  C   C2267     1.0  0.60794  0.65561  0.34828  1.0000
  C   C2268     1.0  0.51152  0.67864  0.31203  1.0000
  H   H1816     1.0  0.51520  0.64334  0.33106  1.0000
  H   H1817     1.0  0.59973  0.68272  0.14710  1.0000
  C   C2269     1.0  0.53056  0.64747  0.41240  1.0000
  S   S306      1.0  0.62796  0.71472  0.27596  1.0000
  C   C2270     1.0  0.53487  0.52823  0.43666  1.0000
  C   C2271     1.0  0.85783  0.62441  0.97916  1.0000
  C   C2272     1.0  0.54801  0.72914  0.24064  1.0000
  H   H1818     1.0  0.52242  0.65109  0.43024  1.0000
  C   C2273     1.0  0.97064  0.66846  0.12816  1.0000
  H   H1819     1.0  0.62767  0.59761  0.33709  1.0000
  C   C2274     1.0  0.54246  0.60403  0.13310  1.0000
  C   C2275     1.0  0.55841  0.60500  0.11234  1.0000
  C   C2276     1.0  0.57814  0.61877  0.11120  1.0000
  C   C2277     1.0  0.58194  0.63165  0.13076  1.0000
  C   C2278     1.0  0.56601  0.63080  0.15174  1.0000
  C   C2279     1.0  0.54610  0.61700  0.15265  1.0000
  P   P76       1.0  0.56944  0.64914  0.17625  1.0000
  C   C2280     1.0  0.55895  0.63380  0.20474  1.0000
  C   C2281     1.0  0.60068  0.65488  0.17690  1.0000
  C   C2282     1.0  0.61515  0.64247  0.19418  1.0000
  C   C2283     1.0  0.63904  0.64773  0.19481  1.0000
  C   C2284     1.0  0.64860  0.66553  0.17845  1.0000
  C   C2285     1.0  0.63437  0.67792  0.16122  1.0000
  C   C2286     1.0  0.61054  0.67265  0.16042  1.0000
  C   C2287     1.0  0.54675  0.64687  0.22321  1.0000
  C   C2288     1.0  0.53841  0.63485  0.24505  1.0000
  C   C2289     1.0  0.54230  0.60973  0.24867  1.0000
  C   C2290     1.0  0.55478  0.59661  0.23058  1.0000
  C   C2291     1.0  0.56316  0.60858  0.20872  1.0000
  C   C2292     1.0  0.55215  0.67795  0.17141  1.0000
  C   C2293     1.0  0.53252  0.68053  0.15705  1.0000
  H   H1820     1.0  0.58760  0.68500  0.31159  1.0000
  C   C2294     1.0  0.49629  0.50438  0.98972  1.0000
  C   C2295     1.0  0.60461  0.71069  0.38340  1.0000
  C   C2296     1.0  0.96587  0.68934  0.11267  1.0000
  H   H1821     1.0  0.62578  0.68699  0.33283  1.0000
  C   C2297     1.0  0.51085  0.55883  0.45851  1.0000
  H   H1822     1.0  0.96236  0.65205  0.12604  1.0000
  H   H1823     1.0  0.56410  0.71705  0.23799  1.0000
  S   S307      1.0  0.50053  0.62317  0.98323  1.0000
  H   H1824     1.0  0.75463  0.70605  0.99409  1.0000
  H   H1825     1.0  0.63359  0.71377  0.43411  1.0000
  H   H1826     1.0  0.50423  0.71173  0.28971  1.0000
  H   H1827     1.0  0.86548  0.63812  0.98777  1.0000
  H   H1828     1.0  0.49708  0.56428  0.47220  1.0000
  S   S308      1.0  0.56464  0.49099  0.39045  1.0000
  C   C2298     1.0  0.97948  0.62728  0.06195  1.0000
  C   C2299     1.0  0.69532  0.72530  0.15649  1.0000
  C   C2300     1.0  0.48395  0.49807  0.42967  1.0000
  H   H1829     1.0  0.96470  0.60120  0.04255  1.0000
  H   H1830     1.0  0.48445  0.54041  0.02924  1.0000
  H   H1831     1.0  0.48475  0.62682  0.30987  1.0000
  C   C2301     1.0  0.53791  0.48772  0.98784  1.0000
  H   H1832     1.0  0.49183  0.66372  0.23703  1.0000
  H   H1833     1.0  0.48764  0.57105  0.24318  1.0000
  H   H1834     1.0  0.76892  0.73000  0.28232  1.0000
  H   H1835     1.0  0.97957  0.69231  0.04534  1.0000
  H   H1836     1.0  0.97330  0.72682  0.10435  1.0000
  H   H1837     1.0  0.54793  0.71315  0.37445  1.0000
  C   C2302     1.0  0.97559  0.72901  0.03053  1.0000
  H   H1838     1.0  0.59584  0.48204  0.05767  1.0000
  S   S309      1.0  0.55475  0.59505  0.97798  1.0000
  C   C2303     1.0  0.54559  0.51072  0.98046  1.0000
  C   C2304     1.0  0.85641  0.60762  0.88071  1.0000
  C   C2305     1.0  0.96839  0.62670  0.82503  1.0000
  P   P77       1.0  0.57739  0.51479  0.97549  1.0000
  C   C2306     1.0  0.91527  0.58536  0.94959  1.0000
  H   H1839     1.0  0.65273  0.72268  0.93282  1.0000
  C   C2307     1.0  0.83094  0.63354  0.85444  1.0000
  Fe  Fe154     1.0  0.51818  0.65673  0.96891  1.0000
  Fe  Fe155     1.0  0.92608  0.66917  0.71022  1.0000
  S   S310      1.0  0.93620  0.68531  0.74325  1.0000
  S   S311      1.0  0.94571  0.63169  0.70651  1.0000
  H   H1840     1.0  0.90551  0.72219  0.95742  1.0000
  Fe  Fe156     1.0  0.89654  0.69482  0.75121  1.0000
  S   S312      1.0  0.87993  0.69175  0.78984  1.0000
  C   C2308     1.0  0.85048  0.63582  0.83728  1.0000
  S   S313      1.0  0.88614  0.67619  0.72020  1.0000
  S   S314      1.0  0.92843  0.70378  0.68626  1.0000
  S   S315      1.0  0.97651  0.50328  0.62194  1.0000
  H   H1841     1.0  0.86588  0.56669  0.84989  1.0000
  Fe  Fe157     1.0  0.52404  0.60515  0.95448  1.0000
  C   C2309     1.0  0.73497  0.70201  0.76121  1.0000
  C   C2310     1.0  0.91239  0.56623  0.91276  1.0000
  Fe  Fe158     1.0  0.56823  0.63103  0.96386  1.0000
  C   C2311     1.0  0.79962  0.65095  0.72411  1.0000
  S   S316      1.0  0.60863  0.63422  0.95517  1.0000
  H   H1842     1.0  0.91729  0.66992  0.81864  1.0000
  H   H1843     1.0  0.84406  0.68610  0.91084  1.0000
  H   H1844     1.0  0.94545  0.61549  0.88279  1.0000
  H   H1845     1.0  0.68194  0.71498  0.72033  1.0000
  S   S317      1.0  0.53945  0.63933  0.93789  1.0000
  Fe  Fe159     1.0  0.74666  0.70757  0.84215  1.0000
  H   H1846     1.0  0.81839  0.72106  0.74173  1.0000
  S   S318      1.0  0.76837  0.68216  0.81710  1.0000
  C   C2312     1.0  0.49916  0.71732  0.97586  1.0000
  H   H1847     1.0  0.94076  0.51143  0.84809  1.0000
  S   S319      1.0  0.65919  0.71113  0.87965  1.0000
  H   H1848     1.0  0.94190  0.54168  0.65558  1.0000
  C   C2313     1.0  0.78856  0.69422  0.71919  1.0000
  C   C2314     1.0  0.73921  0.71230  0.73746  1.0000
  C   C2315     1.0  0.57418  0.56872  0.92046  1.0000
  S   S320      1.0  0.73224  0.69592  0.88002  1.0000
  H   H1849     1.0  0.55526  0.68915  0.95663  1.0000
  P   P78       1.0  0.82834  0.66218  0.95836  1.0000
  H   H1850     1.0  0.50785  0.49385  0.52330  1.0000
  C   C2316     1.0  0.59300  0.48887  0.96219  1.0000
  H   H1851     1.0  0.81690  0.61681  0.93935  1.0000
  C   C2317     1.0  0.62247  0.65550  0.93385  1.0000
  C   C2318     1.0  0.60912  0.67130  0.91814  1.0000
  C   C2319     1.0  0.62073  0.68808  0.90172  1.0000
  C   C2320     1.0  0.64582  0.68914  0.90049  1.0000
  C   C2321     1.0  0.65925  0.67323  0.91608  1.0000
  C   C2322     1.0  0.64760  0.65654  0.93266  1.0000
  H   H1852     1.0  0.58984  0.67066  0.91877  1.0000
  H   H1853     1.0  0.61022  0.70035  0.88986  1.0000
  H   H1854     1.0  0.67855  0.67382  0.91540  1.0000
  H   H1855     1.0  0.65812  0.64437  0.94469  1.0000
  C   C2323     1.0  0.69273  0.70116  0.75546  1.0000
  C   C2324     1.0  0.48123  0.51478  0.54445  1.0000
  H   H1856     1.0  0.88284  0.55888  0.78636  1.0000
  H   H1857     1.0  0.84221  0.67945  0.68768  1.0000
  S   S321      1.0  0.49533  0.69168  0.96077  1.0000
  C   C2325     1.0  0.83395  0.61968  0.87630  1.0000
  H   H1858     1.0  0.94206  0.55075  0.80654  1.0000
  H   H1859     1.0  0.83242  0.57442  0.94735  1.0000
  H   H1860     1.0  0.91283  0.63825  0.75761  1.0000
  C   C2326     1.0  0.90660  0.60985  0.91277  1.0000
  C   C2327     1.0  0.95791  0.55264  0.76977  1.0000
  C   C2328     1.0  0.84851  0.69078  0.79579  1.0000
  C   C2329     1.0  0.83715  0.70040  0.81672  1.0000
  C   C2330     1.0  0.81238  0.69885  0.82272  1.0000
  C   C2331     1.0  0.79897  0.68657  0.80856  1.0000
  C   C2332     1.0  0.81041  0.67660  0.78781  1.0000
  C   C2333     1.0  0.83497  0.67918  0.78109  1.0000
  H   H1861     1.0  0.84748  0.70943  0.82815  1.0000
  H   H1862     1.0  0.80369  0.70696  0.83844  1.0000
  H   H1863     1.0  0.80018  0.66702  0.77681  1.0000
  H   H1864     1.0  0.84350  0.67165  0.76491  1.0000
  C   C2334     1.0  0.87300  0.62407  0.84170  1.0000
  C   C2335     1.0  0.91506  0.68039  0.87803  1.0000
  Fe  Fe160     1.0  0.69858  0.71931  0.87148  1.0000
  H   H1865     1.0  0.71074  0.72494  0.97766  1.0000
  H   H1866     1.0  0.87891  0.65688  0.93951  1.0000
  C   C2336     1.0  0.95821  0.61655  0.68094  1.0000
  C   C2337     1.0  0.95408  0.62543  0.65726  1.0000
  H   H1867     1.0  0.95805  0.51297  0.93178  1.0000
  C   C2338     1.0  0.82071  0.65392  0.70911  1.0000
  C   C2339     1.0  0.94652  0.61580  0.86332  1.0000
  H   H1868     1.0  0.94350  0.64247  0.65401  1.0000
  H   H1869     1.0  0.91357  0.54972  0.90377  1.0000
  H   H1870     1.0  0.97915  0.55644  0.73538  1.0000
  H   H1871     1.0  0.91251  0.68262  0.93980  1.0000
  C   C2340     1.0  0.92948  0.60546  0.85136  1.0000
  H   H1872     1.0  0.95382  0.61607  0.79341  1.0000
  H   H1873     1.0  0.91973  0.54692  0.94690  1.0000
  C   C2341     1.0  0.96334  0.61197  0.63770  1.0000
  H   H1874     1.0  0.88774  0.62633  0.82807  1.0000
  C   C2342     1.0  0.85277  0.68130  0.95806  1.0000
  H   H1875     1.0  0.48731  0.53466  0.92504  1.0000
  C   C2343     1.0  0.60511  0.55216  0.95626  1.0000
  H   H1876     1.0  0.56448  0.48418  0.93962  1.0000
  P   P79       1.0  0.76899  0.72061  0.72676  1.0000
  C   C2344     1.0  0.56932  0.54829  0.93598  1.0000
  H   H1877     1.0  0.87349  0.63643  0.78147  1.0000
  C   C2345     1.0  0.92271  0.67583  0.83519  1.0000
  C   C2346     1.0  0.91583  0.56449  0.93741  1.0000
  H   H1878     1.0  0.81877  0.61811  0.88967  1.0000
  H   H1879     1.0  0.83322  0.63845  0.70529  1.0000
  H   H1880     1.0  0.94117  0.55230  0.86177  1.0000
  H   H1881     1.0  0.79576  0.63313  0.73201  1.0000
  H   H1882     1.0  0.78266  0.69322  0.96031  1.0000
  C   C2347     1.0  0.95180  0.61605  0.81294  1.0000
  H   H1883     1.0  0.76761  0.66830  0.74113  1.0000
  S   S322      1.0  0.51033  0.57667  0.93377  1.0000
  H   H1884     1.0  0.59766  0.59736  0.91159  1.0000
  C   C2348     1.0  0.80990  0.69701  0.70432  1.0000
  H   H1885     1.0  0.90366  0.67806  0.89466  1.0000
  H   H1886     1.0  0.97554  0.58747  0.70296  1.0000
  H   H1887     1.0  0.74955  0.69853  0.77292  1.0000
  C   C2349     1.0  0.49351  0.50826  0.52268  1.0000
  C   C2350     1.0  0.93920  0.54319  0.67494  1.0000
  H   H1888     1.0  0.70879  0.68891  0.78872  1.0000
  H   H1889     1.0  0.95582  0.51417  0.72791  1.0000
  H   H1890     1.0  0.90312  0.49806  0.83558  1.0000
  C   C2351     1.0  0.56756  0.70317  0.95490  1.0000
  C   C2352     1.0  0.56090  0.72570  0.87806  1.0000
  P   P80       1.0  0.90423  0.59184  0.86804  1.0000
  H   H1891     1.0  0.81348  0.64256  0.85066  1.0000
  C   C2353     1.0  0.89071  0.71104  0.95705  1.0000
  H   H1892     1.0  0.86590  0.52599  0.83592  1.0000
  H   H1893     1.0  0.55053  0.50830  0.48574  1.0000
  S   S323      1.0  0.96707  0.59716  0.97698  1.0000
  H   H1894     1.0  0.81445  0.71480  0.69690  1.0000
  H   H1895     1.0  0.90315  0.62755  0.90343  1.0000
  C   C2354     1.0  0.88241  0.55496  0.84945  1.0000
  C   C2355     1.0  0.71184  0.69652  0.77019  1.0000
  C   C2356     1.0  0.91058  0.60803  0.93732  1.0000
  C   C2357     1.0  0.90803  0.58898  0.90013  1.0000
  C   C2358     1.0  0.97210  0.59439  0.68475  1.0000
  H   H1896     1.0  0.85825  0.59643  0.89749  1.0000
  C   C2359     1.0  0.95832  0.55293  0.79487  1.0000
  C   C2360     1.0  0.58888  0.69981  0.96647  1.0000
  C   C2361     1.0  0.87610  0.60961  0.86333  1.0000
  C   C2362     1.0  0.88300  0.49745  0.76797  1.0000
  C   C2363     1.0  0.83073  0.61260  0.95175  1.0000
  H   H1897     1.0  0.97482  0.63449  0.75251  1.0000
  C   C2364     1.0  0.93258  0.60524  0.82606  1.0000
  H   H1898     1.0  0.84808  0.64662  0.82044  1.0000
  C   C2365     1.0  0.58422  0.54044  0.95463  1.0000
  C   C2366     1.0  0.48678  0.51986  0.50053  1.0000
  C   C2367     1.0  0.81628  0.68294  0.88771  1.0000
  C   C2368     1.0  0.79381  0.67466  0.88564  1.0000
  C   C2369     1.0  0.78197  0.66240  0.90551  1.0000
  C   C2370     1.0  0.79238  0.65878  0.92757  1.0000
  C   C2371     1.0  0.81488  0.66722  0.92985  1.0000
  C   C2372     1.0  0.82684  0.67918  0.90967  1.0000
  H   H1899     1.0  0.52041  0.68665  0.90262  1.0000
  C   C2373     1.0  0.89461  0.68877  0.94706  1.0000
  C   C2374     1.0  0.52751  0.70357  0.89559  1.0000
  H   H1900     1.0  0.62540  0.58233  0.94277  1.0000
  C   C2375     1.0  0.88232  0.53188  0.84146  1.0000
  H   H1901     1.0  0.96805  0.68547  0.64835  1.0000
  C   C2376     1.0  0.97210  0.51450  0.89444  1.0000
  C   C2377     1.0  0.54600  0.49001  0.48458  1.0000
  C   C2378     1.0  0.90781  0.67327  0.85658  1.0000
  C   C2379     1.0  0.87566  0.67405  0.94733  1.0000
  S   S324      1.0  0.71188  0.72836  0.83240  1.0000
  C   C2380     1.0  0.85716  0.58223  0.97248  1.0000
  H   H1902     1.0  0.62099  0.71499  0.97339  1.0000
  C   C2381     1.0  0.94996  0.52551  0.69089  1.0000
  C   C2382     1.0  0.83948  0.58841  0.95627  1.0000
  C   C2383     1.0  0.92854  0.50421  0.78205  1.0000
  H   H1903     1.0  0.91037  0.62412  0.94693  1.0000
  H   H1904     1.0  0.57959  0.72591  0.87105  1.0000
  C   C2384     1.0  0.59428  0.58106  0.92305  1.0000
  H   H1905     1.0  0.82540  0.69261  0.87240  1.0000
  H   H1906     1.0  0.78545  0.67788  0.86868  1.0000
  H   H1907     1.0  0.76446  0.65617  0.90393  1.0000
  H   H1908     1.0  0.78272  0.64969  0.94294  1.0000
  S   S325      1.0  0.96919  0.64806  0.94237  1.0000
  H   H1909     1.0  0.95992  0.61892  0.61945  1.0000
  C   C2385     1.0  0.86795  0.71847  0.96757  1.0000
  C   C2386     1.0  0.92470  0.54678  0.85601  1.0000
  C   C2387     1.0  0.92450  0.52367  0.84823  1.0000
  C   C2388     1.0  0.60991  0.57259  0.94073  1.0000
  H   H1910     1.0  0.69233  0.70622  0.94575  1.0000
  C   C2389     1.0  0.90361  0.56245  0.85703  1.0000
  H   H1911     1.0  0.49462  0.72457  0.90497  1.0000
  C   C2390     1.0  0.96589  0.62626  0.85022  1.0000
  H   H1912     1.0  0.94657  0.50605  0.78693  1.0000
  C   C2391     1.0  0.82579  0.67695  0.69918  1.0000
  Fe  Fe161     1.0  0.88955  0.71247  0.69910  1.0000
  C   C2392     1.0  0.78360  0.67101  0.72918  1.0000
  H   H1913     1.0  0.55357  0.53909  0.93366  1.0000
  C   C2393     1.0  0.90330  0.51617  0.84109  1.0000
  H   H1914     1.0  0.89065  0.66580  0.85648  1.0000
  H   H1915     1.0  0.92010  0.59676  0.81645  1.0000
  C   C2394     1.0  0.92566  0.56329  0.68387  1.0000
  C   C2395     1.0  0.92295  0.56586  0.70876  1.0000
  C   C2396     1.0  0.93389  0.54825  0.72489  1.0000
  C   C2397     1.0  0.94730  0.52800  0.71577  1.0000
  P   P81       1.0  0.92973  0.55012  0.75722  1.0000
  H   H1916     1.0  0.61745  0.54590  0.96982  1.0000
  C   C2398     1.0  0.91135  0.57705  0.76523  1.0000
  C   C2399     1.0  0.91993  0.59963  0.75805  1.0000
  C   C2400     1.0  0.90629  0.62090  0.76386  1.0000
  C   C2401     1.0  0.88410  0.61981  0.77730  1.0000
  C   C2402     1.0  0.87578  0.59737  0.78539  1.0000
  C   C2403     1.0  0.88943  0.57600  0.77956  1.0000
  H   H1917     1.0  0.67476  0.69712  0.76255  1.0000
  H   H1918     1.0  0.96838  0.55425  0.93837  1.0000
  H   H1919     1.0  0.56192  0.57531  0.90686  1.0000
  H   H1920     1.0  0.85870  0.59658  0.79611  1.0000
  C   C2404     1.0  0.96672  0.52388  0.91709  1.0000
  C   C2405     1.0  0.91596  0.52289  0.76843  1.0000
  C   C2406     1.0  0.89333  0.51916  0.76106  1.0000
  H   H1921     1.0  0.86557  0.49468  0.76216  1.0000
  H   H1922     1.0  0.94251  0.69570  0.89483  1.0000
  H   H1923     1.0  0.72264  0.72483  0.70434  1.0000
  H   H1924     1.0  0.77376  0.71459  0.67452  1.0000
  H   H1925     1.0  0.88385  0.53295  0.74962  1.0000
  C   C2407     1.0  0.84906  0.70365  0.96820  1.0000
  H   H1926     1.0  0.91796  0.57734  0.67139  1.0000
  H   H1927     1.0  0.91262  0.58175  0.71509  1.0000
  C   C2408     1.0  0.94453  0.68621  0.83503  1.0000
  H   H1928     1.0  0.93716  0.60072  0.74768  1.0000
  C   C2409     1.0  0.55147  0.70376  0.88608  1.0000
  Fe  Fe162     1.0  0.93606  0.72009  0.71992  1.0000
  C   C2410     1.0  0.60481  0.71791  0.96389  1.0000
  H   H1929     1.0  0.91853  0.58400  0.96856  1.0000
  C   C2411     1.0  0.95144  0.69441  0.85628  1.0000
  H   H1930     1.0  0.95590  0.68782  0.81828  1.0000
  H   H1931     1.0  0.56286  0.68697  0.88537  1.0000
  H   H1932     1.0  0.53374  0.54866  0.97409  1.0000
  C   C2412     1.0  0.51285  0.72524  0.89678  1.0000
  H   H1933     1.0  0.96063  0.51001  0.68390  1.0000
  S   S326      1.0  0.96274  0.48583  0.88965  1.0000
  C   C2413     1.0  0.83979  0.63083  0.96329  1.0000
  C   C2414     1.0  0.97649  0.58937  0.64157  1.0000
  C   C2415     1.0  0.97901  0.55624  0.75481  1.0000
  C   C2416     1.0  0.93694  0.69067  0.87797  1.0000
  C   C2417     1.0  0.97879  0.72926  0.87859  1.0000
  C   C2418     1.0  0.69680  0.71122  0.73170  1.0000
  C   C2419     1.0  0.71995  0.71678  0.72268  1.0000
  C   C2420     1.0  0.91818  0.48245  0.78876  1.0000
  H   H1934     1.0  0.97552  0.72784  0.65356  1.0000
  P   P82       1.0  0.97965  0.70772  0.85617  1.0000
  C   C2421     1.0  0.68308  0.72183  0.95387  1.0000
  C   C2422     1.0  0.97253  0.54727  0.92086  1.0000
  H   H1935     1.0  0.48631  0.50556  0.56144  1.0000
  H   H1936     1.0  0.86392  0.56351  0.97602  1.0000
  C   C2423     1.0  0.97972  0.55589  0.80500  1.0000
  H   H1937     1.0  0.97998  0.55557  0.82444  1.0000
  H   H1938     1.0  0.97899  0.63384  0.85985  1.0000
  H   H1939     1.0  0.54514  0.72731  0.93276  1.0000
  C   C2424     1.0  0.56202  0.72467  0.94102  1.0000
  C   C2425     1.0  0.61663  0.48099  0.96756  1.0000
  H   H1940     1.0  0.83176  0.70959  0.97695  1.0000
  H   H1941     1.0  0.59321  0.68299  0.97718  1.0000
  S   S327      1.0  0.86015  0.72995  0.67626  1.0000
  C   C2426     1.0  0.52330  0.48567  0.47780  1.0000
  C   C2427     1.0  0.58616  0.89774  0.31392  1.0000
  C   C2428     1.0  0.57681  0.80056  0.99741  1.0000
  H   H1942     1.0  0.51638  0.90207  0.25184  1.0000
  H   H1943     1.0  0.53527  0.95062  0.06888  1.0000
  S   S328      1.0  0.86218  0.95433  0.44004  1.0000
  C   C2429     1.0  0.92864  0.94543  0.35392  1.0000
  H   H1944     1.0  0.85913  0.91073  0.06889  1.0000
  H   H1945     1.0  0.49294  0.79844  0.17327  1.0000
  H   H1946     1.0  0.62399  0.97114  0.42490  1.0000
  C   C2430     1.0  0.51913  0.90711  0.16950  1.0000
  Fe  Fe163     1.0  0.89818  0.96579  0.44833  1.0000
  C   C2431     1.0  0.56268  0.95129  0.22773  1.0000
  C   C2432     1.0  0.81920  0.73797  0.20819  1.0000
  Fe  Fe164     1.0  0.79101  0.88552  0.28059  1.0000
  S   S329      1.0  0.75403  0.90289  0.27337  1.0000
  S   S330      1.0  0.80805  0.88775  0.31629  1.0000
  Fe  Fe165     1.0  0.79437  0.85766  0.23475  1.0000
  S   S331      1.0  0.75807  0.87301  0.22440  1.0000
  S   S332      1.0  0.81474  0.82831  0.21350  1.0000
  Fe  Fe166     1.0  0.76924  0.90786  0.23476  1.0000
  S   S333      1.0  0.75844  0.94054  0.21016  1.0000
  Fe  Fe167     1.0  0.74581  0.86646  0.26353  1.0000
  S   S334      1.0  0.70816  0.85473  0.27211  1.0000
  S   S335      1.0  0.80701  0.89328  0.24226  1.0000
  S   S336      1.0  0.78134  0.84834  0.27363  1.0000
  S   S337      1.0  0.90138  0.92540  0.01240  1.0000
  H   H1947     1.0  0.52214  0.92532  0.10948  1.0000
  S   S338      1.0  0.64440  0.75432  0.23101  1.0000
  S   S339      1.0  0.68949  0.74347  0.28151  1.0000
  C   C2433     1.0  0.51594  0.88415  0.24586  1.0000
  S   S340      1.0  0.57744  0.76212  0.25288  1.0000
  Fe  Fe168     1.0  0.53841  0.95111  0.35156  1.0000
  S   S341      1.0  0.57641  0.94462  0.36370  1.0000
  S   S342      1.0  0.53089  0.94333  0.31409  1.0000
  H   H1948     1.0  0.58108  0.76429  0.98696  1.0000
  Fe  Fe169     1.0  0.80296  0.78902  0.08480  1.0000
  S   S343      1.0  0.80609  0.82461  0.10078  1.0000
  C   C2434     1.0  0.88096  0.96663  0.28190  1.0000
  C   C2435     1.0  0.56708  0.90736  0.23173  1.0000
  H   H1949     1.0  0.78466  0.74746  0.31598  1.0000
  H   H1950     1.0  0.62378  0.94560  0.23351  1.0000
  H   H1951     1.0  0.68788  0.74315  0.12172  1.0000
  H   H1952     1.0  0.51706  0.97480  0.40265  1.0000
  C   C2436     1.0  0.54947  0.75197  0.24859  1.0000
  C   C2437     1.0  0.52844  0.76740  0.25228  1.0000
  C   C2438     1.0  0.50612  0.76044  0.24700  1.0000
  H   H1953     1.0  0.69242  0.76426  0.19705  1.0000
  C   C2439     1.0  0.56321  0.92950  0.24228  1.0000
  H   H1954     1.0  0.52950  0.78503  0.25862  1.0000
  H   H1955     1.0  0.95147  0.91246  0.35044  1.0000
  H   H1956     1.0  0.53169  0.86875  0.29343  1.0000
  H   H1957     1.0  0.71209  0.92827  0.23722  1.0000
  C   C2440     1.0  0.68389  0.95125  0.22067  1.0000
  H   H1958     1.0  0.82099  0.87512  0.01061  1.0000
  C   C2441     1.0  0.93985  0.73645  0.06808  1.0000
  C   C2442     1.0  0.67698  0.91798  0.25080  1.0000
  H   H1959     1.0  0.54701  0.79433  0.08309  1.0000
  S   S344      1.0  0.49944  0.97119  0.18063  1.0000
  C   C2443     1.0  0.94599  0.92639  0.03062  1.0000
  C   C2444     1.0  0.93176  0.91486  0.01652  1.0000
  C   C2445     1.0  0.94153  0.89371  0.00616  1.0000
  H   H1960     1.0  0.49004  0.77272  0.24910  1.0000
  C   C2446     1.0  0.53565  0.84522  0.23628  1.0000
  H   H1961     1.0  0.93867  0.94261  0.03885  1.0000
  C   C2447     1.0  0.71600  0.79579  0.12372  1.0000
  C   C2448     1.0  0.53260  0.80821  0.08677  1.0000
  C   C2449     1.0  0.70380  0.82365  0.27314  1.0000
  C   C2450     1.0  0.72252  0.80580  0.27757  1.0000
  C   C2451     1.0  0.71799  0.78124  0.27987  1.0000
  C   C2452     1.0  0.69500  0.77433  0.27696  1.0000
  C   C2453     1.0  0.67645  0.79219  0.27197  1.0000
  C   C2454     1.0  0.68077  0.81677  0.27044  1.0000
  H   H1962     1.0  0.74032  0.81086  0.27982  1.0000
  H   H1963     1.0  0.73232  0.76757  0.28401  1.0000
  H   H1964     1.0  0.65856  0.78705  0.27029  1.0000
  H   H1965     1.0  0.66615  0.83050  0.26744  1.0000
  C   C2455     1.0  0.81178  0.82767  0.18219  1.0000
  C   C2456     1.0  0.81136  0.84879  0.16659  1.0000
  C   C2457     1.0  0.81085  0.84743  0.14151  1.0000
  C   C2458     1.0  0.80953  0.82521  0.13196  1.0000
  C   C2459     1.0  0.81005  0.80414  0.14750  1.0000
  C   C2460     1.0  0.81154  0.80532  0.17247  1.0000
  H   H1966     1.0  0.81217  0.86606  0.17377  1.0000
  H   H1967     1.0  0.81156  0.86358  0.12941  1.0000
  H   H1968     1.0  0.80923  0.78703  0.14017  1.0000
  H   H1969     1.0  0.81228  0.78892  0.18435  1.0000
  C   C2461     1.0  0.51357  0.88334  0.16844  1.0000
  H   H1970     1.0  0.78004  0.94873  0.25351  1.0000
  C   C2462     1.0  0.84390  0.94522  0.35255  1.0000
  C   C2463     1.0  0.84121  0.92221  0.36414  1.0000
  C   C2464     1.0  0.83018  0.90497  0.35276  1.0000
  C   C2465     1.0  0.82192  0.91033  0.32956  1.0000
  C   C2466     1.0  0.82470  0.93331  0.31791  1.0000
  C   C2467     1.0  0.83566  0.95057  0.32933  1.0000
  H   H1971     1.0  0.84764  0.91763  0.38186  1.0000
  H   H1972     1.0  0.82812  0.88728  0.36198  1.0000
  H   H1973     1.0  0.81850  0.93775  0.30009  1.0000
  H   H1974     1.0  0.57618  0.83807  0.00407  1.0000
  H   H1975     1.0  0.69244  0.80828  0.20083  1.0000
  S   S345      1.0  0.85232  0.97646  0.03542  1.0000
  H   H1976     1.0  0.48077  0.85778  0.09926  1.0000
  H   H1977     1.0  0.76319  0.83161  0.32902  1.0000
  C   C2468     1.0  0.56745  0.89101  0.33074  1.0000
  C   C2469     1.0  0.49376  0.93493  0.97840  1.0000
  C   C2470     1.0  0.59614  0.94956  0.44136  1.0000
  C   C2471     1.0  0.60873  0.96167  0.42182  1.0000
  C   C2472     1.0  0.50503  0.75949  0.99825  1.0000
  C   C2473     1.0  0.58220  0.94848  0.39384  1.0000
  C   C2474     1.0  0.56927  0.93692  0.41345  1.0000
  C   C2475     1.0  0.57624  0.93741  0.43706  1.0000
  H   H1978     1.0  0.61716  0.94320  0.11510  1.0000
  H   H1979     1.0  0.70379  0.78357  0.11858  1.0000
  H   H1980     1.0  0.55443  0.92681  0.41032  1.0000
  H   H1981     1.0  0.56640  0.92797  0.45204  1.0000
  C   C2476     1.0  0.60191  0.96093  0.39815  1.0000
  C   C2477     1.0  0.79943  0.92507  0.43380  1.0000
  C   C2478     1.0  0.80193  0.93624  0.41036  1.0000
  C   C2479     1.0  0.78551  0.93300  0.39367  1.0000
  C   C2480     1.0  0.76606  0.91895  0.40050  1.0000
  C   C2481     1.0  0.76418  0.90708  0.42385  1.0000
  P   P83       1.0  0.74343  0.91641  0.37978  1.0000
  C   C2482     1.0  0.74406  0.94235  0.35792  1.0000
  C   C2483     1.0  0.74971  0.88935  0.36395  1.0000
  C   C2484     1.0  0.73753  0.88672  0.34346  1.0000
  C   C2485     1.0  0.74215  0.86579  0.33115  1.0000
  C   C2486     1.0  0.83662  0.73646  0.18863  1.0000
  C   C2487     1.0  0.68239  0.87390  0.00682  1.0000
  C   C2488     1.0  0.82960  0.73844  0.16504  1.0000
  C   C2489     1.0  0.79465  0.74204  0.20418  1.0000
  C   C2490     1.0  0.75997  0.94140  0.33701  1.0000
  C   C2491     1.0  0.71431  0.91640  0.39685  1.0000
  C   C2492     1.0  0.69657  0.90203  0.39115  1.0000
  C   C2493     1.0  0.67468  0.90142  0.40541  1.0000
  H   H1982     1.0  0.65326  0.91482  0.43638  1.0000
  S   S346      1.0  0.60546  0.94784  0.47111  1.0000
  H   H1983     1.0  0.81664  0.94748  0.40510  1.0000
  H   H1984     1.0  0.74966  0.89573  0.42940  1.0000
  H   H1985     1.0  0.72453  0.90086  0.33696  1.0000
  H   H1986     1.0  0.73275  0.86380  0.31535  1.0000
  C   C2494     1.0  0.78881  0.75491  0.29761  1.0000
  C   C2495     1.0  0.76394  0.96707  0.22242  1.0000
  H   H1987     1.0  0.93075  0.88460  0.99526  1.0000
  H   H1988     1.0  0.52857  0.74601  0.34800  1.0000
  H   H1989     1.0  0.77102  0.92493  0.33333  1.0000
  H   H1990     1.0  0.69952  0.89103  0.37600  1.0000
  C   C2496     1.0  0.70986  0.83777  0.00784  1.0000
  C   C2497     1.0  0.55789  0.81211  0.18336  1.0000
  C   C2498     1.0  0.54879  0.79072  0.19363  1.0000
  C   C2499     1.0  0.52537  0.78597  0.18992  1.0000
  C   C2500     1.0  0.51097  0.80261  0.17605  1.0000
  C   C2501     1.0  0.51997  0.82416  0.16567  1.0000
  C   C2502     1.0  0.54366  0.82868  0.16919  1.0000
  C   C2503     1.0  0.49521  0.84384  0.09609  1.0000
  H   H1991     1.0  0.94874  0.81251  0.99753  1.0000
  H   H1992     1.0  0.80913  0.97167  0.17928  1.0000
  H   H1993     1.0  0.95375  0.97305  0.98036  1.0000
  H   H1994     1.0  0.82493  0.73610  0.22637  1.0000
  H   H1995     1.0  0.49828  0.94768  0.22850  1.0000
  C   C2504     1.0  0.62388  0.94976  0.13075  1.0000
  H   H1996     1.0  0.51136  0.87194  0.18512  1.0000
  P   P84       1.0  0.77206  0.74376  0.22925  1.0000
  C   C2505     1.0  0.68979  0.87913  0.98243  1.0000
  C   C2506     1.0  0.70775  0.79615  0.20583  1.0000
  C   C2507     1.0  0.78047  0.75453  0.98298  1.0000
  Fe  Fe170     1.0  0.48932  0.82035  0.99752  1.0000
  S   S347      1.0  0.86779  0.74113  0.03752  1.0000
  H   H1997     1.0  0.55997  0.77781  0.20440  1.0000
  H   H1998     1.0  0.51829  0.76937  0.19781  1.0000
  S   S348      1.0  0.85737  0.96802  0.36597  1.0000
  S   S349      1.0  0.48599  0.89362  0.32163  1.0000
  H   H1999     1.0  0.93602  0.77333  0.05254  1.0000
  H   H2000     1.0  0.96786  0.76667  0.01921  1.0000
  H   H2001     1.0  0.81205  0.92786  0.44675  1.0000
  C   C2508     1.0  0.79565  0.97347  0.14402  1.0000
  C   C2509     1.0  0.80097  0.93478  0.07632  1.0000
  C   C2510     1.0  0.79918  0.77434  0.25031  1.0000
  C   C2511     1.0  0.93836  0.95423  0.30395  1.0000
  C   C2512     1.0  0.51994  0.91349  0.12592  1.0000
  C   C2513     1.0  0.59084  0.85775  0.24338  1.0000
  C   C2514     1.0  0.61081  0.86470  0.22808  1.0000
  C   C2515     1.0  0.63056  0.84798  0.22338  1.0000
  C   C2516     1.0  0.63061  0.82432  0.23403  1.0000
  C   C2517     1.0  0.61124  0.81754  0.24995  1.0000
  C   C2518     1.0  0.59161  0.83426  0.25490  1.0000
  C   C2519     1.0  0.56913  0.92927  0.19191  1.0000
  C   C2520     1.0  0.56973  0.90742  0.20641  1.0000
  H   H2002     1.0  0.53923  0.74869  0.30365  1.0000
  H   H2003     1.0  0.61146  0.88302  0.22007  1.0000
  H   H2004     1.0  0.64601  0.85334  0.21172  1.0000
  H   H2005     1.0  0.64587  0.81132  0.23039  1.0000
  H   H2006     1.0  0.61147  0.79928  0.25857  1.0000
  H   H2007     1.0  0.57694  0.82872  0.26763  1.0000
  H   H2008     1.0  0.57048  0.92927  0.17239  1.0000
  H   H2009     1.0  0.57148  0.89054  0.19791  1.0000
  C   C2521     1.0  0.63804  0.89444  0.35704  1.0000
  C   C2522     1.0  0.65316  0.87817  0.34379  1.0000
  C   C2523     1.0  0.66981  0.88679  0.32564  1.0000
  C   C2524     1.0  0.67142  0.91167  0.32077  1.0000
  C   C2525     1.0  0.65678  0.92819  0.33453  1.0000
  C   C2526     1.0  0.63987  0.91927  0.35245  1.0000
  P   P85       1.0  0.50267  0.84398  0.14504  1.0000
  C   C2527     1.0  0.53419  0.96803  0.03296  1.0000
  C   C2528     1.0  0.96965  0.83103  0.04763  1.0000
  H   H2010     1.0  0.66057  0.94785  0.37998  1.0000
  C   C2529     1.0  0.51062  0.87457  0.14609  1.0000
  C   C2530     1.0  0.58438  0.96117  0.03012  1.0000
  C   C2531     1.0  0.62625  0.97001  0.31934  1.0000
  H   H2011     1.0  0.71762  0.82165  0.01766  1.0000
  H   H2012     1.0  0.84297  0.73767  0.14979  1.0000
  H   H2013     1.0  0.53883  0.80772  0.12411  1.0000
  H   H2014     1.0  0.89560  0.92295  0.12216  1.0000
  H   H2015     1.0  0.52678  0.94050  0.14911  1.0000
  H   H2016     1.0  0.50642  0.93514  0.42231  1.0000
  P   P86       1.0  0.65647  0.96057  0.32730  1.0000
  C   C2532     1.0  0.77471  0.96602  0.24423  1.0000
  C   C2533     1.0  0.75147  0.96093  0.10319  1.0000
  H   H2017     1.0  0.53476  0.73854  0.01427  1.0000
  C   C2534     1.0  0.66892  0.98011  0.39423  1.0000
  C   C2535     1.0  0.51177  0.94883  0.98379  1.0000
  H   H2018     1.0  0.62462  0.88791  0.37073  1.0000
  H   H2019     1.0  0.65170  0.85889  0.34726  1.0000
  H   H2020     1.0  0.68117  0.87413  0.31500  1.0000
  H   H2021     1.0  0.68367  0.91762  0.30587  1.0000
  H   H2022     1.0  0.62759  0.93157  0.36254  1.0000
  S   S350      1.0  0.75183  0.77904  0.01717  1.0000
  C   C2536     1.0  0.73058  0.96420  0.36255  1.0000
  C   C2537     1.0  0.76256  0.96199  0.32111  1.0000
  C   C2538     1.0  0.51344  0.83772  0.23166  1.0000
  S   S351      1.0  0.72038  0.95308  0.00403  1.0000
  H   H2023     1.0  0.77880  0.90162  0.45865  1.0000
  C   C2539     1.0  0.70143  0.95962  0.30107  1.0000
  C   C2540     1.0  0.70157  0.73376  0.13247  1.0000
  C   C2541     1.0  0.48641  0.75923  0.98317  1.0000
  H   H2024     1.0  0.51216  0.88381  0.10724  1.0000
  C   C2542     1.0  0.54716  0.87668  0.29878  1.0000
  H   H2025     1.0  0.66114  0.89019  0.40114  1.0000
  C   C2543     1.0  0.51206  0.96392  0.47253  1.0000
  H   H2026     1.0  0.55141  0.83268  0.23406  1.0000
  H   H2027     1.0  0.69673  0.96179  0.20975  1.0000
  C   C2544     1.0  0.49395  0.87679  0.24056  1.0000
  C   C2545     1.0  0.92316  0.97102  0.31678  1.0000
  C   C2546     1.0  0.56543  0.95118  0.20257  1.0000
  H   H2028     1.0  0.52035  0.91417  0.18683  1.0000
  C   C2547     1.0  0.88237  0.77137  0.09075  1.0000
  C   C2548     1.0  0.88702  0.76914  0.11508  1.0000
  C   C2549     1.0  0.89501  0.78860  0.12534  1.0000
  C   C2550     1.0  0.89816  0.81034  0.11128  1.0000
  C   C2551     1.0  0.89255  0.81303  0.08705  1.0000
  C   C2552     1.0  0.88521  0.79314  0.07671  1.0000
  P   P87       1.0  0.89767  0.84056  0.06839  1.0000
  C   C2553     1.0  0.89774  0.86619  0.08595  1.0000
  C   C2554     1.0  0.92592  0.83431  0.05098  1.0000
  C   C2555     1.0  0.94773  0.83679  0.06078  1.0000
  H   H2029     1.0  0.77460  0.86341  0.00539  1.0000
  H   H2030     1.0  0.56365  0.96805  0.19132  1.0000
  C   C2556     1.0  0.94832  0.81928  0.01523  1.0000
  C   C2557     1.0  0.92634  0.82524  0.02822  1.0000
  C   C2558     1.0  0.91275  0.88470  0.07829  1.0000
  C   C2559     1.0  0.91203  0.90502  0.09139  1.0000
  C   C2560     1.0  0.89613  0.90715  0.11206  1.0000
  C   C2561     1.0  0.88046  0.88925  0.11926  1.0000
  C   C2562     1.0  0.88102  0.86899  0.10607  1.0000
  C   C2563     1.0  0.87384  0.84970  0.04897  1.0000
  C   C2564     1.0  0.85092  0.84150  0.05439  1.0000
  C   C2565     1.0  0.83195  0.85053  0.04053  1.0000
  C   C2566     1.0  0.83572  0.86797  0.02124  1.0000
  C   C2567     1.0  0.85849  0.87643  0.01591  1.0000
  C   C2568     1.0  0.87747  0.86733  0.02973  1.0000
  H   H2031     1.0  0.87652  0.75620  0.08269  1.0000
  H   H2032     1.0  0.88456  0.75228  0.12590  1.0000
  H   H2033     1.0  0.89879  0.78687  0.14418  1.0000
  H   H2034     1.0  0.90501  0.82494  0.11940  1.0000
  H   H2035     1.0  0.88163  0.79440  0.05780  1.0000
  H   H2036     1.0  0.94786  0.84338  0.07846  1.0000
  H   H2037     1.0  0.76623  0.90233  0.02421  1.0000
  H   H2038     1.0  0.67101  0.96708  0.08783  1.0000
  C   C2569     1.0  0.91843  0.96646  0.34187  1.0000
  H   H2039     1.0  0.90976  0.82265  0.02053  1.0000
  H   H2040     1.0  0.92475  0.88373  0.06196  1.0000
  H   H2041     1.0  0.92365  0.91924  0.08527  1.0000
  S   S352      1.0  0.65197  0.96247  0.99582  1.0000
  H   H2042     1.0  0.86769  0.89117  0.13492  1.0000
  H   H2043     1.0  0.86825  0.85562  0.11146  1.0000
  H   H2044     1.0  0.84752  0.82847  0.06959  1.0000
  H   H2045     1.0  0.81429  0.84413  0.04510  1.0000
  H   H2046     1.0  0.66863  0.88585  0.01563  1.0000
  H   H2047     1.0  0.60384  0.95852  0.02892  1.0000
  H   H2048     1.0  0.89487  0.87445  0.02577  1.0000
  C   C2570     1.0  0.76312  0.88548  0.03485  1.0000
  C   C2571     1.0  0.76774  0.86361  0.02419  1.0000
  C   C2572     1.0  0.76345  0.84193  0.03778  1.0000
  C   C2573     1.0  0.75406  0.84208  0.06190  1.0000
  C   C2574     1.0  0.74897  0.86397  0.07271  1.0000
  C   C2575     1.0  0.75390  0.88566  0.05903  1.0000
  P   P88       1.0  0.73346  0.86469  0.10269  1.0000
  C   C2576     1.0  0.73308  0.83460  0.11787  1.0000
  C   C2577     1.0  0.74753  0.88306  0.12174  1.0000
  C   C2578     1.0  0.73682  0.88719  0.14498  1.0000
  C   C2579     1.0  0.74842  0.89967  0.16060  1.0000
  C   C2580     1.0  0.77074  0.90825  0.15319  1.0000
  C   C2581     1.0  0.78154  0.90431  0.13016  1.0000
  C   C2582     1.0  0.77022  0.89141  0.11464  1.0000
  C   C2583     1.0  0.71714  0.81870  0.11143  1.0000
  C   C2584     1.0  0.50796  0.94544  0.45843  1.0000
  H   H2049     1.0  0.71115  0.94135  0.14861  1.0000
  C   C2585     1.0  0.74680  0.80412  0.14886  1.0000
  C   C2586     1.0  0.74793  0.82709  0.13668  1.0000
  C   C2587     1.0  0.70226  0.87606  0.10004  1.0000
  C   C2588     1.0  0.68500  0.87206  0.11958  1.0000
  C   C2589     1.0  0.66085  0.88053  0.11772  1.0000
  C   C2590     1.0  0.65362  0.89294  0.09629  1.0000
  C   C2591     1.0  0.67051  0.89669  0.07663  1.0000
  C   C2592     1.0  0.69464  0.88813  0.07837  1.0000
  H   H2050     1.0  0.85553  0.73393  0.19178  1.0000
  H   H2051     1.0  0.48961  0.84413  0.05829  1.0000
  H   H2052     1.0  0.76720  0.82491  0.02958  1.0000
  H   H2053     1.0  0.75073  0.82505  0.07189  1.0000
  H   H2054     1.0  0.74987  0.90279  0.06682  1.0000
  H   H2055     1.0  0.71995  0.88009  0.15148  1.0000
  H   H2056     1.0  0.74033  0.90244  0.17867  1.0000
  H   H2057     1.0  0.77985  0.91752  0.16555  1.0000
  H   H2058     1.0  0.79928  0.91019  0.12479  1.0000
  H   H2059     1.0  0.77987  0.88699  0.09770  1.0000
  H   H2060     1.0  0.70571  0.82392  0.09682  1.0000
  H   H2061     1.0  0.86521  0.94633  0.09072  1.0000
  H   H2062     1.0  0.71878  0.96565  0.37892  1.0000
  H   H2063     1.0  0.75847  0.79840  0.16321  1.0000
  H   H2064     1.0  0.76057  0.83877  0.14194  1.0000
  H   H2065     1.0  0.69007  0.86184  0.13608  1.0000
  H   H2066     1.0  0.64767  0.87701  0.13277  1.0000
  H   H2067     1.0  0.63486  0.89921  0.09471  1.0000
  H   H2068     1.0  0.66486  0.90594  0.05982  1.0000
  H   H2069     1.0  0.70702  0.89088  0.06258  1.0000
  C   C2593     1.0  0.71917  0.94507  0.13040  1.0000
  C   C2594     1.0  0.74707  0.76445  0.21979  1.0000
  H   H2070     1.0  0.66869  0.97216  0.41268  1.0000
  H   H2071     1.0  0.81809  0.90344  0.05958  1.0000
  H   H2072     1.0  0.78812  0.94158  0.37556  1.0000
  H   H2073     1.0  0.50541  0.96199  0.26793  1.0000
  H   H2074     1.0  0.81891  0.79949  0.26596  1.0000
  C   C2595     1.0  0.52250  0.92209  0.14823  1.0000
  C   C2596     1.0  0.78775  0.74349  0.18049  1.0000
  C   C2597     1.0  0.76693  0.87099  0.37160  1.0000
  C   C2598     1.0  0.70962  0.93015  0.41690  1.0000
  C   C2599     1.0  0.74053  0.95383  0.08355  1.0000
  C   C2600     1.0  0.71951  0.94188  0.08738  1.0000
  H   H2075     1.0  0.72668  0.73650  0.20916  1.0000
  C   C2601     1.0  0.67028  0.91512  0.42538  1.0000
  H   H2076     1.0  0.77705  0.87281  0.38690  1.0000
  C   C2602     1.0  0.64310  0.94213  0.23421  1.0000
  H   H2077     1.0  0.76894  0.74594  0.17687  1.0000
  P   P89       1.0  0.56523  0.87907  0.25010  1.0000
  H   H2078     1.0  0.53342  0.87541  0.33621  1.0000
  S   S353      1.0  0.76725  0.77404  0.08407  1.0000
  C   C2603     1.0  0.75926  0.84757  0.33892  1.0000
  S   S354      1.0  0.50429  0.93660  0.36863  1.0000
  H   H2079     1.0  0.60011  0.89899  0.27672  1.0000
  H   H2080     1.0  0.57611  0.81561  0.18622  1.0000
  C   C2604     1.0  0.77169  0.85020  0.35907  1.0000
  C   C2605     1.0  0.68786  0.92929  0.43119  1.0000
  Fe  Fe171     1.0  0.77860  0.76794  0.04517  1.0000
  H   H2081     1.0  0.72290  0.94143  0.42172  1.0000
  H   H2082     1.0  0.80958  0.78238  0.30813  1.0000
  S   S355      1.0  0.82268  0.75330  0.09529  1.0000
  H   H2083     1.0  0.64003  0.91177  0.26095  1.0000
  H   H2084     1.0  0.60094  0.90629  0.31989  1.0000
  H   H2085     1.0  0.74819  0.95765  0.06521  1.0000
  C   C2606     1.0  0.80813  0.78417  0.26954  1.0000
  H   H2086     1.0  0.71147  0.93628  0.07203  1.0000
  H   H2087     1.0  0.55127  0.84479  0.16070  1.0000
  S   S356      1.0  0.50966  0.78587  0.01176  1.0000
  C   C2607     1.0  0.76584  0.96329  0.01259  1.0000
  C   C2608     1.0  0.84378  0.92272  0.07488  1.0000
  C   C2609     1.0  0.57094  0.95333  0.05124  1.0000
  H   H2088     1.0  0.63502  0.93169  0.18878  1.0000
  S   S357      1.0  0.81262  0.78614  0.04506  1.0000
  C   C2610     1.0  0.62625  0.93464  0.15196  1.0000
  C   C2611     1.0  0.96993  0.82218  0.02494  1.0000
  C   C2612     1.0  0.66423  0.96645  0.37557  1.0000
  C   C2613     1.0  0.74720  0.78948  0.22119  1.0000
  C   C2614     1.0  0.74048  0.95664  0.12668  1.0000
  C   C2615     1.0  0.50907  0.83387  0.11493  1.0000
  H   H2089     1.0  0.68403  0.90297  0.26265  1.0000
  S   S358      1.0  0.50305  0.85562  0.00344  1.0000
  H   H2090     1.0  0.68456  0.93997  0.44663  1.0000
  C   C2616     1.0  0.53702  0.86845  0.24380  1.0000
  C   C2617     1.0  0.58548  0.89380  0.28955  1.0000
  C   C2618     1.0  0.78465  0.75496  0.25450  1.0000
  C   C2619     1.0  0.96334  0.75186  0.03232  1.0000
  C   C2620     1.0  0.56580  0.88357  0.28174  1.0000
  H   H2091     1.0  0.72990  0.73679  0.10361  1.0000
  C   C2621     1.0  0.96536  0.88440  0.00943  1.0000
  H   H2092     1.0  0.97254  0.86824  0.00117  1.0000
  H   H2093     1.0  0.51227  0.81955  0.22672  1.0000
  C   C2622     1.0  0.65215  0.92297  0.24977  1.0000
  H   H2094     1.0  0.48414  0.84409  0.31185  1.0000
  C   C2623     1.0  0.82065  0.91877  0.06944  1.0000
  C   C2624     1.0  0.84720  0.94260  0.08735  1.0000
  Fe  Fe172     1.0  0.49522  0.93125  0.33062  1.0000
  H   H2095     1.0  0.57999  0.94483  0.06657  1.0000
  H   H2096     1.0  0.73596  0.95870  0.28053  1.0000
  C   C2625     1.0  0.80284  0.77455  0.29322  1.0000
  H   H2097     1.0  0.78542  0.83636  0.36466  1.0000
  H   H2098     1.0  0.62156  0.91616  0.15275  1.0000
  C   C2626     1.0  0.63393  0.94357  0.17241  1.0000
  C   C2627     1.0  0.96958  0.91649  0.03464  1.0000
  C   C2628     1.0  0.73083  0.78848  0.14240  1.0000
  C   C2629     1.0  0.70881  0.93749  0.11080  1.0000
  H   H2099     1.0  0.76559  0.94794  0.02586  1.0000
  H   H2100     1.0  0.56771  0.89451  0.34956  1.0000
  H   H2101     1.0  0.55942  0.93007  0.26163  1.0000
  H   H2102     1.0  0.72756  0.82438  0.21623  1.0000
  C   C2630     1.0  0.86134  0.96117  0.27013  1.0000
  H   H2103     1.0  0.62687  0.94339  0.29332  1.0000
  C   C2631     1.0  0.70769  0.77137  0.20382  1.0000
  H   H2104     1.0  0.86149  0.89036  0.00135  1.0000
  C   C2632     1.0  0.52038  0.73848  0.00253  1.0000
  C   C2633     1.0  0.74582  0.96991  0.99917  1.0000
  C   C2634     1.0  0.57279  0.97294  0.01057  1.0000
  C   C2635     1.0  0.69280  0.93217  0.23635  1.0000
  H   H2105     1.0  0.50329  0.92811  0.46699  1.0000
  H   H2106     1.0  0.55883  0.96827  0.23598  1.0000
  H   H2107     1.0  0.76218  0.79706  0.22780  1.0000
  C   C2636     1.0  0.82759  0.95855  0.09436  1.0000
  C   C2637     1.0  0.50490  0.73800  0.23805  1.0000
  C   C2638     1.0  0.78068  0.91033  0.44048  1.0000
  C   C2639     1.0  0.72754  0.80520  0.21440  1.0000
  C   C2640     1.0  0.54810  0.88032  0.32320  1.0000
  Fe  Fe173     1.0  0.88792  0.96468  0.01597  1.0000
  H   H2108     1.0  0.77531  0.96107  0.30537  1.0000
  H   H2109     1.0  0.80337  0.78211  0.23209  1.0000
  C   C2641     1.0  0.72723  0.75561  0.21075  1.0000
  H   H2110     1.0  0.73011  0.77061  0.15174  1.0000
  H   H2111     1.0  0.68933  0.76041  0.99634  1.0000
  H   H2112     1.0  0.69252  0.92820  0.11377  1.0000
  C   C2642     1.0  0.52782  0.81591  0.11007  1.0000
  H   H2113     1.0  0.83774  0.96824  0.32008  1.0000
  H   H2114     1.0  0.70802  0.94733  0.31567  1.0000
  H   H2115     1.0  0.56205  0.79696  0.01085  1.0000
  H   H2116     1.0  0.52861  0.93976  0.98936  1.0000
  C   C2643     1.0  0.50975  0.94937  0.43326  1.0000
  H   H2117     1.0  0.51525  0.74026  0.16170  1.0000
  H   H2118     1.0  0.85973  0.94273  0.26619  1.0000
  C   C2644     1.0  0.54742  0.73409  0.31524  1.0000
  C   C2645     1.0  0.71742  0.96632  0.28142  1.0000
  H   H2119     1.0  0.92452  0.94190  0.37324  1.0000
  C   C2646     1.0  0.75824  0.76707  0.98886  1.0000
  C   C2647     1.0  0.65892  0.95635  0.21936  1.0000
  C   C2648     1.0  0.94375  0.92883  0.34106  1.0000
  C   C2649     1.0  0.80421  0.95472  0.08910  1.0000
  H   H2120     1.0  0.65026  0.77782  0.98285  1.0000
  C   C2650     1.0  0.67718  0.96879  0.30179  1.0000
  Fe  Fe174     1.0  0.68999  0.96446  0.97976  1.0000
  Fe  Fe175     1.0  0.61083  0.73697  0.24534  1.0000
  C   C2651     1.0  0.69249  0.85327  0.01957  1.0000
  H   H2121     1.0  0.68676  0.84915  0.03846  1.0000
  H   H2122     1.0  0.54747  0.87241  0.98378  1.0000
  C   C2652     1.0  0.50260  0.96608  0.22940  1.0000
  H   H2123     1.0  0.80008  0.95438  0.14220  1.0000
  H   H2124     1.0  0.78343  0.93145  0.07152  1.0000
  H   H2125     1.0  0.58367  0.97918  0.99459  1.0000
  S   S359      1.0  0.79607  0.73036  0.05307  1.0000
  Fe  Fe176     1.0  0.82980  0.74893  0.05536  1.0000
  C   C2653     1.0  0.50020  0.83622  0.07281  1.0000
  C   C2654     1.0  0.50821  0.97417  0.98144  1.0000
  Fe  Fe177     1.0  0.48781  0.97502  0.36220  1.0000
  C   C2655     1.0  0.51403  0.88985  0.12480  1.0000
  H   H2126     1.0  0.96020  0.92025  0.30610  1.0000
  C   C2656     1.0  0.49261  0.85348  0.23379  1.0000
  C   C2657     1.0  0.94864  0.93324  0.31608  1.0000
  H   H2127     1.0  0.82858  0.97506  0.25448  1.0000
  H   H2128     1.0  0.79425  0.75259  0.99563  1.0000
  H   H2129     1.0  0.52259  0.81255  0.05005  1.0000
  C   C2658     1.0  0.94545  0.75558  0.05109  1.0000
  C   C2659     1.0  0.51884  0.81841  0.06814  1.0000
  C   C2660     1.0  0.71722  0.84288  0.98339  1.0000
  H   H2130     1.0  0.74840  0.96179  0.14228  1.0000
  H   H2131     1.0  0.89427  0.95212  0.28678  1.0000
  Fe  Fe178     1.0  0.86873  0.97464  0.40339  1.0000
  C   C2661     1.0  0.58472  0.82374  0.99354  1.0000
  H   H2132     1.0  0.58685  0.88208  0.99570  1.0000
  H   H2133     1.0  0.58521  0.95536  0.28251  1.0000
  H   H2134     1.0  0.79963  0.74320  0.14290  1.0000
  C   C2662     1.0  0.62956  0.97368  0.12985  1.0000
  H   H2135     1.0  0.76052  0.97972  0.41909  1.0000
  C   C2663     1.0  0.58761  0.78207  0.98369  1.0000
  C   C2664     1.0  0.68136  0.75244  0.98224  1.0000
  C   C2665     1.0  0.61647  0.95814  0.30179  1.0000
  C   C2666     1.0  0.59300  0.96488  0.29557  1.0000
  C   C2667     1.0  0.63953  0.96770  0.17165  1.0000
  C   C2668     1.0  0.66388  0.97708  0.35177  1.0000
  C   C2669     1.0  0.50663  0.97416  0.25169  1.0000
  C   C2670     1.0  0.54583  0.95665  0.05260  1.0000
  C   C2671     1.0  0.51581  0.97171  0.42216  1.0000
  C   C2672     1.0  0.80518  0.74166  0.16108  1.0000
  H   H2136     1.0  0.80172  0.97122  0.01912  1.0000
  H   H2137     1.0  0.61204  0.96987  0.38312  1.0000
  C   C2673     1.0  0.54756  0.97660  0.01193  1.0000
  Fe  Fe179     1.0  0.78722  0.73796  0.09221  1.0000
  H   H2138     1.0  0.55035  0.73600  0.18652  1.0000
  H   H2139     1.0  0.69013  0.97917  0.16458  1.0000
  S   S360      1.0  0.92730  0.94387  0.46910  1.0000
  H   H2140     1.0  0.92633  0.73982  0.08278  1.0000
  H   H2141     1.0  0.49667  0.91540  0.98025  1.0000
  H   H2142     1.0  0.94201  0.95719  0.28454  1.0000
  C   C2674     1.0  0.97948  0.89553  0.02390  1.0000
  S   S361      1.0  0.66511  0.73091  0.16853  1.0000
  H   H2143     1.0  0.51470  0.97042  0.03424  1.0000
  C   C2675     1.0  0.77983  0.74505  0.27835  1.0000
  C   C2676     1.0  0.57994  0.89091  0.97935  1.0000
  P   P90       1.0  0.77906  0.97585  0.09808  1.0000
  H   H2144     1.0  0.83091  0.97426  0.10331  1.0000
  C   C2677     1.0  0.78639  0.97634  0.00867  1.0000
  H   H2145     1.0  0.68603  0.96487  0.04466  1.0000
  C   C2678     1.0  0.72540  0.73020  0.12217  1.0000
  H   H2146     1.0  0.62107  0.73919  0.39774  1.0000
  C   C2679     1.0  0.84363  0.97936  0.26377  1.0000
  Fe  Fe180     1.0  0.66201  0.73015  0.25966  1.0000
  C   C2680     1.0  0.54152  0.73259  0.34021  1.0000
  H   H2147     1.0  0.90661  0.97889  0.35223  1.0000
  H   H2148     1.0  0.92595  0.88975  0.59137  1.0000
  C   C2681     1.0  0.92010  0.85217  0.70543  1.0000
  C   C2682     1.0  0.90913  0.78541  0.79057  1.0000
  S   S362      1.0  0.66908  0.95562  0.49410  1.0000
  H   H2149     1.0  0.85258  0.86867  0.53761  1.0000
  H   H2150     1.0  0.96753  0.89519  0.67040  1.0000
  C   C2683     1.0  0.92088  0.80255  0.71975  1.0000
  C   C2684     1.0  0.61423  0.81006  0.96210  1.0000
  C   C2685     1.0  0.90028  0.84275  0.71914  1.0000
  C   C2686     1.0  0.60349  0.82846  0.97596  1.0000
  H   H2151     1.0  0.90951  0.92775  0.72127  1.0000
  H   H2152     1.0  0.90063  0.91734  0.55989  1.0000
  Fe  Fe181     1.0  0.80265  0.86213  0.67750  1.0000
  S   S363      1.0  0.77005  0.85259  0.66100  1.0000
  S   S364      1.0  0.84083  0.84440  0.67377  1.0000
  Fe  Fe182     1.0  0.77408  0.90314  0.70343  1.0000
  S   S365      1.0  0.73915  0.89694  0.68876  1.0000
  S   S366      1.0  0.77791  0.92665  0.73360  1.0000
  Fe  Fe183     1.0  0.75070  0.85753  0.69780  1.0000
  S   S367      1.0  0.72690  0.82938  0.71633  1.0000
  Fe  Fe184     1.0  0.76145  0.89284  0.65322  1.0000
  S   S368      1.0  0.75594  0.90844  0.61431  1.0000
  S   S369      1.0  0.78401  0.86410  0.71453  1.0000
  S   S370      1.0  0.79570  0.90204  0.66759  1.0000
  H   H2153     1.0  0.68043  0.92782  0.70200  1.0000
  H   H2154     1.0  0.88444  0.85461  0.50718  1.0000
  S   S371      1.0  0.72818  0.79877  0.82918  1.0000
  H   H2155     1.0  0.90266  0.97677  0.54758  1.0000
  C   C2687     1.0  0.95399  0.94389  0.50861  1.0000
  S   S372      1.0  0.52071  0.88874  0.94152  1.0000
  C   C2688     1.0  0.91493  0.86644  0.64951  1.0000
  C   C2689     1.0  0.94087  0.81185  0.70664  1.0000
  H   H2156     1.0  0.83236  0.93572  0.72804  1.0000
  H   H2157     1.0  0.93200  0.89185  0.74259  1.0000
  C   C2690     1.0  0.84366  0.83968  0.61086  1.0000
  C   C2691     1.0  0.89662  0.90355  0.54880  1.0000
  H   H2158     1.0  0.63686  0.91971  0.89296  1.0000
  C   C2692     1.0  0.51878  0.79271  0.90997  1.0000
  C   C2693     1.0  0.52554  0.81605  0.90247  1.0000
  H   H2159     1.0  0.84239  0.77312  0.87541  1.0000
  C   C2694     1.0  0.59371  0.90744  0.96497  1.0000
  C   C2695     1.0  0.58445  0.91886  0.94392  1.0000
  C   C2696     1.0  0.56200  0.91320  0.93708  1.0000
  C   C2697     1.0  0.54838  0.89637  0.95135  1.0000
  C   C2698     1.0  0.79239  0.95311  0.53168  1.0000
  H   H2160     1.0  0.91799  0.76727  0.79207  1.0000
  H   H2161     1.0  0.59489  0.93150  0.93256  1.0000
  H   H2162     1.0  0.55525  0.92175  0.92052  1.0000
  C   C2699     1.0  0.48475  0.81330  0.85998  1.0000
  H   H2163     1.0  0.96303  0.75819  0.78058  1.0000
  C   C2700     1.0  0.77957  0.95793  0.72810  1.0000
  H   H2164     1.0  0.80529  0.93230  0.58868  1.0000
  H   H2165     1.0  0.77758  0.95879  0.68970  1.0000
  S   S373      1.0  0.62321  0.91119  0.97297  1.0000
  C   C2701     1.0  0.72793  0.82081  0.74764  1.0000
  C   C2702     1.0  0.71854  0.79920  0.75741  1.0000
  C   C2703     1.0  0.71886  0.79201  0.78230  1.0000
  C   C2704     1.0  0.72835  0.80655  0.79765  1.0000
  C   C2705     1.0  0.73776  0.82814  0.78787  1.0000
  C   C2706     1.0  0.73773  0.83517  0.76296  1.0000
  H   H2166     1.0  0.71090  0.78801  0.74570  1.0000
  H   H2167     1.0  0.71140  0.77544  0.78965  1.0000
  H   H2168     1.0  0.74498  0.83958  0.79963  1.0000
  H   H2169     1.0  0.74484  0.85194  0.75570  1.0000
  C   C2707     1.0  0.52211  0.74732  0.88833  1.0000
  H   H2170     1.0  0.88520  0.94260  0.91260  1.0000
  C   C2708     1.0  0.94711  0.89623  0.72993  1.0000
  H   H2171     1.0  0.92101  0.78332  0.72486  1.0000
  C   C2709     1.0  0.69196  0.95119  0.57809  1.0000
  C   C2710     1.0  0.71292  0.94338  0.56437  1.0000
  C   C2711     1.0  0.73203  0.92991  0.57575  1.0000
  C   C2712     1.0  0.73066  0.92439  0.60099  1.0000
  C   C2713     1.0  0.70963  0.93205  0.61470  1.0000
  C   C2714     1.0  0.69035  0.94514  0.60326  1.0000
  H   H2172     1.0  0.71440  0.94764  0.54499  1.0000
  H   H2173     1.0  0.74791  0.92353  0.56487  1.0000
  H   H2174     1.0  0.70816  0.92775  0.63407  1.0000
  H   H2175     1.0  0.67401  0.95046  0.61400  1.0000
  C   C2715     1.0  0.93889  0.96785  0.72373  1.0000
  H   H2176     1.0  0.54066  0.96467  0.94343  1.0000
  C   C2716     1.0  0.91356  0.96318  0.51295  1.0000
  C   C2717     1.0  0.93193  0.95119  0.49869  1.0000
  C   C2718     1.0  0.76895  0.75012  0.65662  1.0000
  C   C2719     1.0  0.85290  0.86015  0.59843  1.0000
  H   H2177     1.0  0.77402  0.95721  0.56687  1.0000
  C   C2720     1.0  0.92943  0.90828  0.62295  1.0000
  H   H2178     1.0  0.81174  0.82178  0.62278  1.0000
  C   C2721     1.0  0.84911  0.92613  0.72144  1.0000
  C   C2722     1.0  0.85529  0.76184  0.67453  1.0000
  C   C2723     1.0  0.83259  0.77307  0.66938  1.0000
  C   C2724     1.0  0.82781  0.79833  0.66939  1.0000
  C   C2725     1.0  0.84596  0.81261  0.67381  1.0000
  C   C2726     1.0  0.86892  0.80146  0.67800  1.0000
  C   C2727     1.0  0.87348  0.77616  0.67879  1.0000
  H   H2179     1.0  0.81845  0.76212  0.66610  1.0000
  H   H2180     1.0  0.81004  0.80670  0.66619  1.0000
  H   H2181     1.0  0.88318  0.81240  0.68086  1.0000
  H   H2182     1.0  0.89113  0.76775  0.68250  1.0000
  C   C2728     1.0  0.91114  0.82854  0.78231  1.0000
  C   C2729     1.0  0.92269  0.80523  0.78469  1.0000
  Fe  Fe185     1.0  0.67461  0.97928  0.92907  1.0000
  C   C2730     1.0  0.88404  0.78888  0.79400  1.0000
  C   C2731     1.0  0.87221  0.81222  0.79124  1.0000
  C   C2732     1.0  0.88600  0.83206  0.78547  1.0000
  P   P91       1.0  0.83960  0.81632  0.79354  1.0000
  C   C2733     1.0  0.82792  0.80398  0.76839  1.0000
  C   C2734     1.0  0.82669  0.80251  0.82184  1.0000
  C   C2735     1.0  0.80155  0.80303  0.82639  1.0000
  C   C2736     1.0  0.84134  0.79214  0.83996  1.0000
  C   C2737     1.0  0.80437  0.81139  0.76218  1.0000
  C   C2738     1.0  0.79569  0.80305  0.74199  1.0000
  C   C2739     1.0  0.81035  0.78728  0.72786  1.0000
  C   C2740     1.0  0.83367  0.77978  0.73384  1.0000
  C   C2741     1.0  0.84245  0.78803  0.75396  1.0000
  C   C2742     1.0  0.82954  0.84811  0.79162  1.0000
  C   C2743     1.0  0.82204  0.85994  0.81258  1.0000
  C   C2744     1.0  0.81259  0.88412  0.81070  1.0000
  C   C2745     1.0  0.81064  0.89659  0.78794  1.0000
  C   C2746     1.0  0.81860  0.88505  0.76712  1.0000
  C   C2747     1.0  0.82824  0.86103  0.76887  1.0000
  H   H2183     1.0  0.92169  0.84385  0.77749  1.0000
  H   H2184     1.0  0.96830  0.93453  0.49779  1.0000
  H   H2185     1.0  0.87379  0.77324  0.79822  1.0000
  H   H2186     1.0  0.87749  0.85025  0.78302  1.0000
  H   H2187     1.0  0.78963  0.81138  0.81319  1.0000
  H   H2188     1.0  0.86068  0.79235  0.83765  1.0000
  H   H2189     1.0  0.79278  0.82407  0.77247  1.0000
  H   H2190     1.0  0.77766  0.80899  0.73711  1.0000
  H   H2191     1.0  0.80366  0.78078  0.71230  1.0000
  H   H2192     1.0  0.84485  0.76720  0.72306  1.0000
  H   H2193     1.0  0.86053  0.78166  0.75788  1.0000
  H   H2194     1.0  0.82303  0.85046  0.83034  1.0000
  H   H2195     1.0  0.80628  0.89305  0.82684  1.0000
  H   H2196     1.0  0.80262  0.91508  0.78629  1.0000
  H   H2197     1.0  0.81660  0.89452  0.74952  1.0000
  H   H2198     1.0  0.83393  0.85238  0.75239  1.0000
  C   C2748     1.0  0.93897  0.96006  0.54688  1.0000
  C   C2749     1.0  0.88786  0.86816  0.51891  1.0000
  C   C2750     1.0  0.72425  0.81419  0.89612  1.0000
  C   C2751     1.0  0.74615  0.80205  0.90215  1.0000
  C   C2752     1.0  0.75944  0.81110  0.91885  1.0000
  C   C2753     1.0  0.75076  0.83225  0.92964  1.0000
  C   C2754     1.0  0.72843  0.84422  0.92418  1.0000
  C   C2755     1.0  0.71528  0.83505  0.90723  1.0000
  P   P92       1.0  0.71696  0.87108  0.93888  1.0000
  C   C2756     1.0  0.53624  0.79482  0.94809  1.0000
  C   C2757     1.0  0.74047  0.89154  0.93663  1.0000
  C   C2758     1.0  0.53722  0.82874  0.91787  1.0000
  H   H2199     1.0  0.74004  0.97624  0.90552  1.0000
  C   C2759     1.0  0.77561  0.92491  0.93171  1.0000
  C   C2760     1.0  0.77440  0.90936  0.91363  1.0000
  C   C2761     1.0  0.75695  0.89270  0.91606  1.0000
  C   C2762     1.0  0.76586  0.74749  0.76704  1.0000
  C   C2763     1.0  0.77921  0.96931  0.70476  1.0000
  C   C2764     1.0  0.87004  0.89416  0.69901  1.0000
  C   C2765     1.0  0.48351  0.73817  0.97202  1.0000
  C   C2766     1.0  0.54639  0.74741  0.87947  1.0000
  C   C2767     1.0  0.69178  0.88589  0.92341  1.0000
  C   C2768     1.0  0.66851  0.87854  0.92947  1.0000
  H   H2200     1.0  0.95601  0.84336  0.68887  1.0000
  C   C2769     1.0  0.95720  0.76118  0.90099  1.0000
  C   C2770     1.0  0.56828  0.96938  0.52291  1.0000
  C   C2771     1.0  0.69510  0.90492  0.90542  1.0000
  H   H2201     1.0  0.71418  0.80738  0.88281  1.0000
  H   H2202     1.0  0.75268  0.78546  0.89406  1.0000
  H   H2203     1.0  0.77626  0.80144  0.92371  1.0000
  H   H2204     1.0  0.76131  0.83905  0.94252  1.0000
  H   H2205     1.0  0.69817  0.84393  0.90236  1.0000
  C   C2772     1.0  0.94012  0.96490  0.69901  1.0000
  C   C2773     1.0  0.54249  0.81818  0.94070  1.0000
  C   C2774     1.0  0.81490  0.73992  0.77366  1.0000
  H   H2206     1.0  0.78680  0.91045  0.89757  1.0000
  H   H2207     1.0  0.75597  0.88110  0.90165  1.0000
  C   C2775     1.0  0.83824  0.96150  0.95134  1.0000
  C   C2776     1.0  0.91015  0.87790  0.51654  1.0000
  C   C2777     1.0  0.95779  0.92181  0.95112  1.0000
  H   H2208     1.0  0.55994  0.97154  0.48594  1.0000
  H   H2209     1.0  0.74221  0.95920  0.86589  1.0000
  H   H2210     1.0  0.66543  0.86386  0.94316  1.0000
  H   H2211     1.0  0.74089  0.96226  0.66359  1.0000
  H   H2212     1.0  0.79806  0.77309  0.88248  1.0000
  C   C2778     1.0  0.92420  0.88871  0.61095  1.0000
  H   H2213     1.0  0.71271  0.91110  0.90028  1.0000
  H   H2214     1.0  0.86899  0.93563  0.95538  1.0000
  H   H2215     1.0  0.88435  0.85414  0.72434  1.0000
  C   C2779     1.0  0.51291  0.78420  0.84014  1.0000
  H   H2216     1.0  0.95654  0.79979  0.70172  1.0000
  H   H2217     1.0  0.83146  0.90059  0.70393  1.0000
  H   H2218     1.0  0.88506  0.81074  0.73581  1.0000
  C   C2780     1.0  0.96215  0.95746  0.97165  1.0000
  C   C2781     1.0  0.90065  0.81801  0.72600  1.0000
  H   H2219     1.0  0.86930  0.87904  0.68825  1.0000
  C   C2782     1.0  0.94748  0.94205  0.96254  1.0000
  C   C2783     1.0  0.52442  0.78215  0.93283  1.0000
  C   C2784     1.0  0.95754  0.94830  0.53258  1.0000
  H   H2220     1.0  0.92397  0.87206  0.50290  1.0000
  C   C2785     1.0  0.94050  0.83654  0.69945  1.0000
  S   S374      1.0  0.68406  0.94305  0.94897  1.0000
  H   H2221     1.0  0.63080  0.88548  0.92383  1.0000
  H   H2222     1.0  0.77236  0.95150  0.63196  1.0000
  C   C2786     1.0  0.69067  0.94257  0.70536  1.0000
  C   C2787     1.0  0.86874  0.95269  0.91903  1.0000
  H   H2223     1.0  0.87161  0.94924  0.73646  1.0000
  C   C2788     1.0  0.94622  0.89405  0.70510  1.0000
  H   H2224     1.0  0.72748  0.95799  0.74579  1.0000
  C   C2789     1.0  0.79137  0.79271  0.84826  1.0000
  S   S375      1.0  0.77266  0.73051  0.91805  1.0000
  C   C2790     1.0  0.84857  0.90643  0.70775  1.0000
  H   H2225     1.0  0.90897  0.85015  0.65939  1.0000
  H   H2226     1.0  0.80210  0.73475  0.95615  1.0000
  C   C2791     1.0  0.89273  0.92126  0.71769  1.0000
  C   C2792     1.0  0.95747  0.74363  0.88448  1.0000
  H   H2227     1.0  0.52470  0.76771  0.84049  1.0000
  C   C2793     1.0  0.92741  0.90702  0.64823  1.0000
  H   H2228     1.0  0.77203  0.74378  0.63869  1.0000
  H   H2229     1.0  0.51920  0.79100  0.80148  1.0000
  C   C2794     1.0  0.82649  0.97887  0.93578  1.0000
  H   H2230     1.0  0.81489  0.94638  0.49920  1.0000
  C   C2795     1.0  0.70728  0.86369  0.97042  1.0000
  H   H2231     1.0  0.83831  0.94464  0.67339  1.0000
  C   C2796     1.0  0.96670  0.89836  0.68934  1.0000
  C   C2797     1.0  0.76683  0.74581  0.94455  1.0000
  S   S376      1.0  0.94156  0.96493  0.57762  1.0000
  Fe  Fe186     1.0  0.64497  0.94400  0.96330  1.0000
  C   C2798     1.0  0.87119  0.93366  0.72625  1.0000
  C   C2799     1.0  0.83968  0.96374  0.66873  1.0000
  C   C2800     1.0  0.74180  0.90727  0.95470  1.0000
  H   H2232     1.0  0.55099  0.82831  0.95280  1.0000
  S   S377      1.0  0.89736  0.73131  0.73092  1.0000
  H   H2233     1.0  0.53998  0.78671  0.96590  1.0000
  C   C2801     1.0  0.77491  0.75628  0.78682  1.0000
  C   C2802     1.0  0.79938  0.75226  0.79027  1.0000
  H   H2234     1.0  0.54171  0.84705  0.91239  1.0000
  C   C2803     1.0  0.78993  0.94949  0.55687  1.0000
  H   H2235     1.0  0.78894  0.93803  0.92973  1.0000
  H   H2236     1.0  0.95457  0.95316  0.69095  1.0000
  H   H2237     1.0  0.87211  0.86169  0.59720  1.0000
  C   C2804     1.0  0.91709  0.96757  0.53682  1.0000
  C   C2805     1.0  0.64882  0.89062  0.91839  1.0000
  C   C2806     1.0  0.75936  0.92380  0.95223  1.0000
  C   C2807     1.0  0.76407  0.77478  0.65932  1.0000
  C   C2808     1.0  0.75996  0.78291  0.68242  1.0000
  C   C2809     1.0  0.76091  0.76649  0.70290  1.0000
  C   C2810     1.0  0.74477  0.75883  0.95015  1.0000
  C   C2811     1.0  0.67535  0.91699  0.89444  1.0000
  H   H2238     1.0  0.76290  0.76592  0.79968  1.0000
  H   H2239     1.0  0.80630  0.75853  0.80587  1.0000
  H   H2240     1.0  0.67792  0.93227  0.88126  1.0000
  H   H2241     1.0  0.73057  0.83039  0.97492  1.0000
  H   H2242     1.0  0.55414  0.76429  0.87370  1.0000
  H   H2243     1.0  0.93498  0.92449  0.61258  1.0000
  C   C2812     1.0  0.86989  0.87615  0.53618  1.0000
  C   C2813     1.0  0.91455  0.89542  0.53159  1.0000
  H   H2244     1.0  0.65696  0.77439  0.86286  1.0000
  H   H2245     1.0  0.76336  0.78765  0.64356  1.0000
  H   H2246     1.0  0.75604  0.80202  0.68443  1.0000
  H   H2247     1.0  0.75735  0.77323  0.72063  1.0000
  H   H2248     1.0  0.51931  0.76424  0.93906  1.0000
  S   S378      1.0  0.48257  0.83041  0.95869  1.0000
  C   C2814     1.0  0.85953  0.94860  0.94307  1.0000
  C   C2815     1.0  0.91673  0.86788  0.62423  1.0000
  H   H2249     1.0  0.95116  0.73373  0.81827  1.0000
  H   H2250     1.0  0.97822  0.77851  0.92400  1.0000
  H   H2251     1.0  0.91260  0.85270  0.61497  1.0000
  C   C2816     1.0  0.64207  0.78011  0.87548  1.0000
  C   C2817     1.0  0.62401  0.79736  0.86783  1.0000
  C   C2818     1.0  0.60469  0.80438  0.88408  1.0000
  C   C2819     1.0  0.60346  0.79415  0.90797  1.0000
  C   C2820     1.0  0.62165  0.77690  0.91593  1.0000
  C   C2821     1.0  0.64093  0.76994  0.89939  1.0000
  P   P93       1.0  0.61941  0.76349  0.94684  1.0000
  H   H2252     1.0  0.97449  0.94233  0.54006  1.0000
  Fe  Fe187     1.0  0.49371  0.86703  0.96573  1.0000
  S   S379      1.0  0.63502  0.97846  0.94115  1.0000
  H   H2253     1.0  0.51026  0.96074  0.49204  1.0000
  S   S380      1.0  0.96262  0.74831  0.71840  1.0000
  H   H2254     1.0  0.93126  0.92245  0.65725  1.0000
  C   C2822     1.0  0.66073  0.73137  0.94637  1.0000
  H   H2255     1.0  0.78137  0.96288  0.76581  1.0000
  H   H2256     1.0  0.93180  0.90303  0.52966  1.0000
  H   H2257     1.0  0.58218  0.95466  0.52059  1.0000
  C   C2823     1.0  0.57811  0.74260  0.93790  1.0000
  C   C2824     1.0  0.80606  0.78159  0.86575  1.0000
  P   P94       1.0  0.91972  0.88364  0.69433  1.0000
  C   C2825     1.0  0.92089  0.88579  0.66170  1.0000
  H   H2258     1.0  0.94212  0.80252  0.78166  1.0000
  C   C2826     1.0  0.89230  0.90089  0.70462  1.0000
  C   C2827     1.0  0.81278  0.94299  0.51872  1.0000
  C   C2828     1.0  0.69165  0.96291  0.68878  1.0000
  H   H2259     1.0  0.62505  0.80523  0.84929  1.0000
  H   H2260     1.0  0.59068  0.81778  0.87818  1.0000
  H   H2261     1.0  0.58832  0.79977  0.92024  1.0000
  C   C2829     1.0  0.55747  0.88546  0.97266  1.0000
  H   H2262     1.0  0.94638  0.90968  0.94445  1.0000
  P   P95       1.0  0.50389  0.77565  0.89047  1.0000
  C   C2830     1.0  0.78129  0.97165  0.74768  1.0000
  H   H2263     1.0  0.92557  0.97630  0.66514  1.0000
  H   H2264     1.0  0.83397  0.73716  0.77608  1.0000
  H   H2265     1.0  0.57349  0.75902  0.92689  1.0000
  H   H2266     1.0  0.85561  0.82571  0.61947  1.0000
  H   H2267     1.0  0.95232  0.95829  0.73477  1.0000
  H   H2268     1.0  0.73085  0.76034  0.93767  1.0000
  H   H2269     1.0  0.68209  0.96348  0.67269  1.0000
  S   S381      1.0  0.97623  0.94640  0.63672  1.0000
  P   P96       1.0  0.84989  0.90502  0.57220  1.0000
  C   C2831     1.0  0.83739  0.87871  0.58806  1.0000
  C   C2832     1.0  0.86116  0.92336  0.59303  1.0000
  C   C2833     1.0  0.86283  0.91525  0.61749  1.0000
  C   C2834     1.0  0.87346  0.92903  0.63269  1.0000
  C   C2835     1.0  0.88250  0.95088  0.62363  1.0000
  C   C2836     1.0  0.88002  0.95947  0.59961  1.0000
  C   C2837     1.0  0.86910  0.94594  0.58443  1.0000
  C   C2838     1.0  0.81254  0.87614  0.58980  1.0000
  C   C2839     1.0  0.80338  0.85566  0.60226  1.0000
  C   C2840     1.0  0.82773  0.92421  0.55617  1.0000
  C   C2841     1.0  0.83045  0.92862  0.53088  1.0000
  C   C2842     1.0  0.77800  0.96971  0.85492  1.0000
  H   H2270     1.0  0.96811  0.90587  0.75775  1.0000
  H   H2271     1.0  0.94069  0.77207  0.90574  1.0000
  C   C2843     1.0  0.80764  0.93529  0.56914  1.0000
  H   H2272     1.0  0.85637  0.89821  0.62491  1.0000
  H   H2273     1.0  0.87530  0.92236  0.65135  1.0000
  H   H2274     1.0  0.89179  0.96100  0.63504  1.0000
  C   C2844     1.0  0.78486  0.74435  0.96069  1.0000
  H   H2275     1.0  0.86782  0.95258  0.56565  1.0000
  H   H2276     1.0  0.79999  0.88973  0.58174  1.0000
  H   H2277     1.0  0.78411  0.85414  0.60396  1.0000
  H   H2278     1.0  0.84614  0.92114  0.52039  1.0000
  C   C2845     1.0  0.80592  0.73085  0.75402  1.0000
  H   H2279     1.0  0.74679  0.75060  0.76481  1.0000
  Fe  Fe188     1.0  0.63283  0.97118  0.48270  1.0000
  Fe  Fe189     1.0  0.72686  0.76016  0.84580  1.0000
  H   H2280     1.0  0.77198  0.79319  0.85152  1.0000
  C   C2846     1.0  0.87407  0.89400  0.55119  1.0000
  H   H2281     1.0  0.52173  0.82471  0.88493  1.0000
  C   C2847     1.0  0.97004  0.73580  0.81336  1.0000
  C   C2848     1.0  0.85690  0.96997  0.90338  1.0000
  S   S382      1.0  0.71133  0.75292  0.88424  1.0000
  Fe  Fe190     1.0  0.97590  0.96069  0.59749  1.0000
  C   C2849     1.0  0.83104  0.78146  0.86167  1.0000
  C   C2850     1.0  0.65221  0.90996  0.90105  1.0000
  C   C2851     1.0  0.81890  0.83748  0.61284  1.0000
  H   H2282     1.0  0.92808  0.94560  0.96478  1.0000
  C   C2852     1.0  0.59970  0.73936  0.94926  1.0000
  H   H2283     1.0  0.94111  0.74149  0.87619  1.0000
  C   C2853     1.0  0.49406  0.81835  0.81663  1.0000
  C   C2854     1.0  0.96753  0.90403  0.73862  1.0000
  C   C2855     1.0  0.50069  0.79231  0.86143  1.0000
  H   H2284     1.0  0.89637  0.96855  0.50581  1.0000
  S   S383      1.0  0.66777  0.96933  0.56496  1.0000
  C   C2856     1.0  0.77011  0.73364  0.67704  1.0000
  C   C2857     1.0  0.74532  0.97581  0.64911  1.0000
  C   C2858     1.0  0.97656  0.75015  0.79232  1.0000
  C   C2859     1.0  0.60625  0.78676  0.96574  1.0000
  H   H2285     1.0  0.97146  0.74679  0.97378  1.0000
  H   H2286     1.0  0.65518  0.75665  0.90459  1.0000
  C   C2860     1.0  0.76672  0.74179  0.70036  1.0000
  C   C2861     1.0  0.70347  0.94087  0.72596  1.0000
  H   H2287     1.0  0.70322  0.92483  0.73850  1.0000
  C   C2862     1.0  0.64869  0.75186  0.95635  1.0000
  H   H2288     1.0  0.77849  0.96369  0.52213  1.0000
  H   H2289     1.0  0.77890  0.96220  0.83756  1.0000
  C   C2863     1.0  0.75739  0.96787  0.87088  1.0000
  H   H2290     1.0  0.87376  0.96400  0.68343  1.0000
  C   C2864     1.0  0.76335  0.96961  0.63118  1.0000
  C   C2865     1.0  0.74069  0.76983  0.97209  1.0000
  C   C2866     1.0  0.71712  0.95958  0.73008  1.0000
  C   C2867     1.0  0.50969  0.79729  0.81786  1.0000
  C   C2868     1.0  0.55560  0.97899  0.50325  1.0000
  C   C2869     1.0  0.92366  0.97819  0.68442  1.0000
  H   H2291     1.0  0.62864  0.81404  0.94841  1.0000
  S   S384      1.0  0.76241  0.73999  0.85261  1.0000
  C   C2870     1.0  0.97833  0.76492  0.91119  1.0000
  H   H2292     1.0  0.68165  0.89521  0.97298  1.0000
  H   H2293     1.0  0.60961  0.84647  0.97291  1.0000
  H   H2294     1.0  0.57351  0.97165  0.56040  1.0000
  C   C2871     1.0  0.78121  0.73424  0.75073  1.0000
  H   H2295     1.0  0.76011  0.93606  0.96609  1.0000
  H   H2296     1.0  0.49152  0.82843  0.79934  1.0000
  H   H2297     1.0  0.56767  0.97007  0.90647  1.0000
  H   H2298     1.0  0.86407  0.97254  0.88473  1.0000
  H   H2299     1.0  0.80624  0.96839  0.65216  1.0000
  C   C2872     1.0  0.55235  0.97922  0.94167  1.0000
  C   C2873     1.0  0.75610  0.97764  0.89321  1.0000
  C   C2874     1.0  0.85959  0.97483  0.67453  1.0000
  H   H2300     1.0  0.86510  0.73540  0.97604  1.0000
  C   C2875     1.0  0.65917  0.76229  0.97446  1.0000
  C   C2876     1.0  0.69339  0.73233  0.97184  1.0000
  H   H2301     1.0  0.83110  0.95855  0.97002  1.0000
  C   C2877     1.0  0.82152  0.97716  0.65656  1.0000
  H   H2302     1.0  0.72373  0.78014  0.97625  1.0000
  H   H2303     1.0  0.72909  0.90722  0.97053  1.0000
  H   H2304     1.0  0.88737  0.97620  0.59247  1.0000
  C   C2878     1.0  0.56342  0.97899  0.54529  1.0000
  Fe  Fe191     1.0  0.66257  0.97968  0.52482  1.0000
  C   C2879     1.0  0.48154  0.82631  0.83768  1.0000
  C   C2880     1.0  0.71817  0.97993  0.71356  1.0000
  Fe  Fe192     1.0  0.74595  0.73021  0.88989  1.0000
